0:0:0
     RDKit          3D

 63 66  0  0  1  0  0  0  0  0999 V2000
    3.2851   -5.6408    3.2255 C   0  0  0  0  0  0  0  0  0  0  0  0
    4.2522   -5.9521    2.3128 C   0  0  0  0  0  0  0  0  0  0  0  0
    4.5050   -5.3321    0.9185 C   0  0  1  0  0  0  0  0  0  0  0  0
    4.2182   -6.5923    0.0314 C   0  0  0  0  0  0  0  0  0  0  0  0
    3.4217   -4.1429    0.5638 C   0  0  0  0  0  0  0  0  0  0  0  0
    2.2817   -4.5540   -0.0283 C   0  0  0  0  0  0  0  0  0  0  0  0
    1.7889   -3.8585   -1.2593 C   0  0  0  0  0  0  0  0  0  0  0  0
    3.0062   -3.3337   -2.0489 C   0  0  1  0  0  0  0  0  0  0  0  0
    2.5300   -2.8113   -3.4275 C   0  0  0  0  0  0  0  0  0  0  0  0
    3.9742   -2.4364   -1.1529 C   0  0  2  0  0  0  0  0  0  0  0  0
    4.1025   -1.0636   -1.8823 C   0  0  0  0  0  0  0  0  0  0  0  0
    5.3629   -3.0426   -0.8429 C   0  0  0  0  0  0  0  0  0  0  0  0
    6.0510   -2.9125    0.6797 C   0  0  2  0  0  0  0  0  0  0  0  0
    5.7896   -3.2461    2.2606 C   0  0  0  0  0  0  0  0  0  0  0  0
    4.5576   -2.8198    3.0518 C   0  0  0  0  0  0  0  0  0  0  0  0
    4.1690   -1.4541    2.7062 C   0  0  1  0  0  0  0  0  0  0  0  0
    4.8622   -0.4232    3.6411 C   0  0  0  0  0  0  0  0  0  0  0  0
    4.3844   -1.3190    1.1759 C   0  0  1  0  0  0  0  0  0  0  0  0
    3.8101    0.0988    0.8900 C   0  0  0  0  0  0  0  0  0  0  0  0
    5.9488   -1.3972    0.8315 C   0  0  0  0  0  0  0  0  0  0  0  0
    3.5631   -2.4853    0.3131 C   0  0  2  0  0  0  0  0  0  0  0  0
    7.0834   -3.9960    0.4185 C   0  0  1  0  0  0  0  0  0  0  0  0
    8.4118   -4.0281    1.2220 C   0  0  0  0  0  0  0  0  0  0  0  0
    6.1463   -5.3041    0.5359 C   0  0  1  0  0  0  0  0  0  0  0  0
    6.8626   -6.3248    1.1990 O   0  0  0  0  0  0  0  0  0  0  0  0
    2.5276   -4.9006    3.0311 H   0  0  0  0  0  0  0  0  0  0  0  0
    3.2957   -6.1752    4.1473 H   0  0  0  0  0  0  0  0  0  0  0  0
    4.8972   -6.7728    2.5316 H   0  0  0  0  0  0  0  0  0  0  0  0
    3.2602   -7.0267    0.2883 H   0  0  0  0  0  0  0  0  0  0  0  0
    4.9138   -7.4282    0.1483 H   0  0  0  0  0  0  0  0  0  0  0  0
    4.2507   -6.3325   -1.0387 H   0  0  0  0  0  0  0  0  0  0  0  0
    1.9178   -5.5720    0.0052 H   0  0  0  0  0  0  0  0  0  0  0  0
    1.2324   -4.5676   -1.8578 H   0  0  0  0  0  0  0  0  0  0  0  0
    1.0961   -3.0515   -1.0574 H   0  0  0  0  0  0  0  0  0  0  0  0
    3.5945   -4.2052   -2.3100 H   0  0  0  0  0  0  0  0  0  0  0  0
    1.8977   -1.9311   -3.3296 H   0  0  0  0  0  0  0  0  0  0  0  0
    1.9181   -3.5601   -3.9283 H   0  0  0  0  0  0  0  0  0  0  0  0
    3.3530   -2.5887   -4.1083 H   0  0  0  0  0  0  0  0  0  0  0  0
    4.7459   -0.3201   -1.4157 H   0  0  0  0  0  0  0  0  0  0  0  0
    3.1075   -0.6325   -1.9946 H   0  0  0  0  0  0  0  0  0  0  0  0
    4.5123   -1.1753   -2.8891 H   0  0  0  0  0  0  0  0  0  0  0  0
    5.3435   -4.0263   -1.3048 H   0  0  0  0  0  0  0  0  0  0  0  0
    6.0542   -2.5467   -1.5239 H   0  0  0  0  0  0  0  0  0  0  0  0
    6.0351   -4.2340    2.6156 H   0  0  0  0  0  0  0  0  0  0  0  0
    6.5968   -2.6938    2.7217 H   0  0  0  0  0  0  0  0  0  0  0  0
    3.6899   -3.3318    2.7713 H   0  0  0  0  0  0  0  0  0  0  0  0
    4.7189   -2.9261    4.1116 H   0  0  0  0  0  0  0  0  0  0  0  0
    3.1030   -1.3562    2.9074 H   0  0  0  0  0  0  0  0  0  0  0  0
    5.9448   -0.5813    3.6452 H   0  0  0  0  0  0  0  0  0  0  0  0
    4.5169   -0.6035    4.6667 H   0  0  0  0  0  0  0  0  0  0  0  0
    4.6546    0.6364    3.3940 H   0  0  0  0  0  0  0  0  0  0  0  0
    3.0491    0.0429    0.1259 H   0  0  0  0  0  0  0  0  0  0  0  0
    4.5911    0.8005    0.6071 H   0  0  0  0  0  0  0  0  0  0  0  0
    3.2672    0.5407    1.7228 H   0  0  0  0  0  0  0  0  0  0  0  0
    6.5747   -0.9604    1.6124 H   0  0  0  0  0  0  0  0  0  0  0  0
    6.2287   -0.8605   -0.0705 H   0  0  0  0  0  0  0  0  0  0  0  0
    2.5413   -2.1345    0.3886 H   0  0  0  0  0  0  0  0  0  0  0  0
    7.4847   -3.8988   -0.5958 H   0  0  0  0  0  0  0  0  0  0  0  0
    8.2817   -4.3889    2.2266 H   0  0  0  0  0  0  0  0  0  0  0  0
    8.8854   -3.0430    1.2366 H   0  0  0  0  0  0  0  0  0  0  0  0
    9.1329   -4.7330    0.8033 H   0  0  0  0  0  0  0  0  0  0  0  0
    6.1840   -5.6512   -0.4855 H   0  0  0  0  0  0  0  0  0  0  0  0
    7.7451   -6.3635    0.8452 H   0  0  0  0  0  0  0  0  0  0  0  0
  1  2  2  0
  1 26  1  0
  1 27  1  0
  2  3  1  0
  2 28  1  0
  3 24  1  0
  3  4  1  6
  3  5  1  0
  4 29  1  0
  4 30  1  0
  4 31  1  0
  5 21  1  0
  5  6  2  0
  6  7  1  0
  6 32  1  0
  7  8  1  0
  7 33  1  0
  7 34  1  0
  8  9  1  0
  8 10  1  0
  8 35  1  6
  9 36  1  0
  9 37  1  0
  9 38  1  0
 10 21  1  0
 10 11  1  6
 10 12  1  0
 11 39  1  0
 11 40  1  0
 11 41  1  0
 12 13  1  0
 12 42  1  0
 12 43  1  0
 13 20  1  0
 13 14  1  1
 13 22  1  0
 14 15  1  0
 14 44  1  0
 14 45  1  0
 15 16  1  0
 15 46  1  0
 15 47  1  0
 16 17  1  0
 16 18  1  0
 16 48  1  6
 17 49  1  0
 17 50  1  0
 17 51  1  0
 18 19  1  6
 18 20  1  0
 18 21  1  0
 19 52  1  0
 19 53  1  0
 19 54  1  0
 20 55  1  0
 20 56  1  0
 21 57  1  6
 22 23  1  0
 22 24  1  0
 22 58  1  6
 23 59  1  0
 23 60  1  0
 23 61  1  0
 24 25  1  0
 24 62  1  6
 25 63  1  0
M  END
>  <i_m_ct_stereo_status>  (1) 
1

>  <s_m_source_file>  (1) 
/var/tmp/pbs.5076255.sched01/tmpt68d_85j/0g9mu2vg5.sdf

>  <i_m_source_file_index>  (1) 
1

>  <i_lp_mmshare_version>  (1) 
48012

>  <i_f3d_flags>  (1) 
0

>  <s_epik_input>  (1) 
W0NIM11bQ0BASF0xW0NIMl1bQ0hdPUMoW0NAXShbQ0gzXSkoW0NIXT1bQ0gyXSlbQ0BIXShbT0hdKVtDQEBIXTJbQ0gzXSlbQ0BIXShbQ0BAXTEoW0NIM10pW0NIMl1DMjM0KVtDQF0oW0NIM10pKFtDSDJdNClbQ0BIXShbQ0gzXSlbQ0gyXVtDSDJdMw==

>  <s_epik_cmdline>  (1) 
J2VwaWtfcHl0aG9uJywgJy1waHQnLCAnMi4wJywgJy1waCcsICc3LjAnLCAnLXRuJywgJzgnLCAnLW1hJywgJzIwMCcsICctaW1hZScsICc8aW5maWxlLm1hZT4nLCAnLW9tYWUnLCAnPG91dGZpbGUubWFlPic=

>  <r_lp_tautomer_probability>  (1) 
1

>  <r_epik_Ionization_Penalty>  (1) 
3.90919e-07

>  <r_epik_Ionization_Penalty_Charging>  (1) 
0

>  <r_epik_Ionization_Penalty_Neutral>  (1) 
3.90919e-07

>  <r_epik_State_Penalty>  (1) 
-0

>  <r_epik_Charging_Adjusted_Penalty>  (1) 
0

>  <i_epik_Tot_Q>  (1) 
0

>  <i_epik_Tot_abs_Q>  (1) 
0

>  <s_lp_Force_Field>  (1) 
OPLS3e

>  <r_lp_Energy>  (1) 
304.1

>  <b_lp_Chiralities_Consistent>  (1) 
1

>  <s_lp_Variant>  (1) 
0:0-1

>  <s_i_glide_gridfile>  (1) 
pfpi4k_grid

>  <i_i_glide_lignum>  (1) 
1

>  <i_i_glide_rotatable_bonds>  (1) 
2

>  <r_i_docking_score>  (1) 
-2.61175

>  <r_i_glide_ligand_efficiency>  (1) 
-0.10447

>  <r_i_glide_ligand_efficiency_sa>  (1) 
-0.305472

>  <r_i_glide_ligand_efficiency_ln>  (1) 
-0.619062

>  <r_i_glide_gscore>  (1) 
-2.61175

>  <r_i_glide_lipo>  (1) 
-1.09024

>  <r_i_glide_hbond>  (1) 
0

>  <r_i_glide_metal>  (1) 
-0

>  <r_i_glide_rewards>  (1) 
-1.07347

>  <r_i_glide_evdw>  (1) 
-11.7992

>  <r_i_glide_ecoul>  (1) 
-0.131257

>  <r_i_glide_erotb>  (1) 
0.161608

>  <r_i_glide_esite>  (1) 
0

>  <r_i_glide_emodel>  (1) 
-10.7767

>  <r_i_glide_energy>  (1) 
-11.9305

>  <r_i_glide_einternal>  (1) 
0.373755

>  <r_i_glide_intrahb_reward>  (1) 
-0

>  <i_i_glide_confnum>  (1) 
1

>  <i_i_glide_posenum>  (1) 
5

>  <r_i_glide_eff_state_penalty>  (1) 
0

>  <ligand_id>  (1) 
0

>  <original_smiles>  (1) 
C=CC1(C)C2=CCC(C)C3(C)CC4(CCC(C)C(C)(C4)C23)C(C)C1O

>  <smiles>  (1) 
[H]OC1([H])C(C([H])=C([H])[H])(C([H])([H])[H])C2=C([H])C([H])([H])C([H])(C([H])([H])[H])C3(C([H])([H])[H])C([H])([H])C4(C([H])([H])C([H])([H])C([H])(C([H])([H])[H])C(C([H])([H])[H])(C4([H])[H])C23[H])C1([H])C([H])([H])[H]

$$$$
0:0:1
     RDKit          3D

 63 66  0  0  1  0  0  0  0  0999 V2000
    4.9667   -5.9720    3.4597 C   0  0  0  0  0  0  0  0  0  0  0  0
    4.2474   -5.9280    2.3486 C   0  0  0  0  0  0  0  0  0  0  0  0
    4.5526   -5.3383    0.9177 C   0  0  1  0  0  0  0  0  0  0  0  0
    4.2246   -6.5864    0.0251 C   0  0  0  0  0  0  0  0  0  0  0  0
    3.4343   -4.1413    0.5557 C   0  0  0  0  0  0  0  0  0  0  0  0
    2.2895   -4.5590   -0.0250 C   0  0  0  0  0  0  0  0  0  0  0  0
    1.7833   -3.8360   -1.2643 C   0  0  0  0  0  0  0  0  0  0  0  0
    3.0032   -3.3379   -2.0639 C   0  0  1  0  0  0  0  0  0  0  0  0
    2.5308   -2.8194   -3.4410 C   0  0  0  0  0  0  0  0  0  0  0  0
    3.9682   -2.4324   -1.1729 C   0  0  2  0  0  0  0  0  0  0  0  0
    4.1006   -1.0606   -1.8950 C   0  0  0  0  0  0  0  0  0  0  0  0
    5.3705   -3.0146   -0.8619 C   0  0  0  0  0  0  0  0  0  0  0  0
    6.0483   -2.8774    0.6552 C   0  0  2  0  0  0  0  0  0  0  0  0
    5.8073   -3.2238    2.2343 C   0  0  0  0  0  0  0  0  0  0  0  0
    4.5328   -2.8634    3.0189 C   0  0  0  0  0  0  0  0  0  0  0  0
    4.1041   -1.4752    2.6838 C   0  0  1  0  0  0  0  0  0  0  0  0
    4.8387   -0.4696    3.6217 C   0  0  0  0  0  0  0  0  0  0  0  0
    4.3569   -1.3055    1.1548 C   0  0  1  0  0  0  0  0  0  0  0  0
    3.8043    0.1096    0.8724 C   0  0  0  0  0  0  0  0  0  0  0  0
    5.9321   -1.3618    0.8125 C   0  0  0  0  0  0  0  0  0  0  0  0
    3.5562   -2.4877    0.2978 C   0  0  2  0  0  0  0  0  0  0  0  0
    7.0975   -3.9694    0.4175 C   0  0  1  0  0  0  0  0  0  0  0  0
    8.4032   -4.0129    1.2840 C   0  0  0  0  0  0  0  0  0  0  0  0
    6.1733   -5.2909    0.5083 C   0  0  1  0  0  0  0  0  0  0  0  0
    6.8896   -6.3267    1.1503 O   0  0  0  0  0  0  0  0  0  0  0  0
    5.9793   -5.5983    3.5373 H   0  0  0  0  0  0  0  0  0  0  0  0
    4.5282   -6.4138    4.3463 H   0  0  0  0  0  0  0  0  0  0  0  0
    3.2644   -6.3889    2.3650 H   0  0  0  0  0  0  0  0  0  0  0  0
    3.2511   -6.9993    0.2607 H   0  0  0  0  0  0  0  0  0  0  0  0
    4.9013   -7.4393    0.1158 H   0  0  0  0  0  0  0  0  0  0  0  0
    4.2725   -6.3383   -1.0436 H   0  0  0  0  0  0  0  0  0  0  0  0
    1.9146   -5.5663    0.0131 H   0  0  0  0  0  0  0  0  0  0  0  0
    1.2270   -4.5658   -1.8576 H   0  0  0  0  0  0  0  0  0  0  0  0
    1.0755   -3.0882   -1.0638 H   0  0  0  0  0  0  0  0  0  0  0  0
    3.5824   -4.2154   -2.3211 H   0  0  0  0  0  0  0  0  0  0  0  0
    1.9060   -1.9360   -3.3451 H   0  0  0  0  0  0  0  0  0  0  0  0
    1.9205   -3.5661   -3.9440 H   0  0  0  0  0  0  0  0  0  0  0  0
    3.3582   -2.6035   -4.1126 H   0  0  0  0  0  0  0  0  0  0  0  0
    4.7537   -0.3310   -1.4251 H   0  0  0  0  0  0  0  0  0  0  0  0
    3.1119   -0.6169   -2.0071 H   0  0  0  0  0  0  0  0  0  0  0  0
    4.5165   -1.1847   -2.8956 H   0  0  0  0  0  0  0  0  0  0  0  0
    5.3291   -4.0159   -1.2834 H   0  0  0  0  0  0  0  0  0  0  0  0
    6.0681   -2.5533   -1.5733 H   0  0  0  0  0  0  0  0  0  0  0  0
    6.1283   -4.1516    2.5418 H   0  0  0  0  0  0  0  0  0  0  0  0
    6.5276   -2.6005    2.7433 H   0  0  0  0  0  0  0  0  0  0  0  0
    3.6833   -3.5111    2.8713 H   0  0  0  0  0  0  0  0  0  0  0  0
    4.6963   -2.9488    4.0936 H   0  0  0  0  0  0  0  0  0  0  0  0
    3.0214   -1.3776    2.8901 H   0  0  0  0  0  0  0  0  0  0  0  0
    5.9190   -0.6123    3.6233 H   0  0  0  0  0  0  0  0  0  0  0  0
    4.5164   -0.6143    4.6564 H   0  0  0  0  0  0  0  0  0  0  0  0
    4.6529    0.5745    3.3750 H   0  0  0  0  0  0  0  0  0  0  0  0
    3.0478    0.0757    0.1030 H   0  0  0  0  0  0  0  0  0  0  0  0
    4.5937    0.8066    0.5958 H   0  0  0  0  0  0  0  0  0  0  0  0
    3.2721    0.5585    1.7086 H   0  0  0  0  0  0  0  0  0  0  0  0
    6.5771   -0.9381    1.5890 H   0  0  0  0  0  0  0  0  0  0  0  0
    6.2385   -0.8264   -0.0923 H   0  0  0  0  0  0  0  0  0  0  0  0
    2.5295   -2.1314    0.3731 H   0  0  0  0  0  0  0  0  0  0  0  0
    7.5111   -3.9101   -0.5976 H   0  0  0  0  0  0  0  0  0  0  0  0
    8.2738   -4.3608    2.2783 H   0  0  0  0  0  0  0  0  0  0  0  0
    8.8913   -3.0389    1.2497 H   0  0  0  0  0  0  0  0  0  0  0  0
    9.1178   -4.7298    0.8483 H   0  0  0  0  0  0  0  0  0  0  0  0
    6.1966   -5.6680   -0.5060 H   0  0  0  0  0  0  0  0  0  0  0  0
    6.9394   -6.1268    2.0726 H   0  0  0  0  0  0  0  0  0  0  0  0
  1  2  2  0
  1 26  1  0
  1 27  1  0
  2  3  1  0
  2 28  1  0
  3 24  1  0
  3  4  1  6
  3  5  1  0
  4 29  1  0
  4 30  1  0
  4 31  1  0
  5 21  1  0
  5  6  2  0
  6  7  1  0
  6 32  1  0
  7  8  1  0
  7 33  1  0
  7 34  1  0
  8  9  1  0
  8 10  1  0
  8 35  1  6
  9 36  1  0
  9 37  1  0
  9 38  1  0
 10 21  1  0
 10 11  1  6
 10 12  1  0
 11 39  1  0
 11 40  1  0
 11 41  1  0
 12 13  1  0
 12 42  1  0
 12 43  1  0
 13 20  1  0
 13 14  1  1
 13 22  1  0
 14 15  1  0
 14 44  1  0
 14 45  1  0
 15 16  1  0
 15 46  1  0
 15 47  1  0
 16 17  1  0
 16 18  1  0
 16 48  1  6
 17 49  1  0
 17 50  1  0
 17 51  1  0
 18 19  1  6
 18 20  1  0
 18 21  1  0
 19 52  1  0
 19 53  1  0
 19 54  1  0
 20 55  1  0
 20 56  1  0
 21 57  1  6
 22 23  1  0
 22 24  1  0
 22 58  1  6
 23 59  1  0
 23 60  1  0
 23 61  1  0
 24 25  1  0
 24 62  1  6
 25 63  1  0
M  END
>  <i_m_ct_stereo_status>  (2) 
1

>  <s_m_source_file>  (2) 
/var/tmp/pbs.5076255.sched01/tmpt68d_85j/0g9mu2vg5.sdf

>  <i_m_source_file_index>  (2) 
1

>  <i_lp_mmshare_version>  (2) 
48012

>  <i_f3d_flags>  (2) 
0

>  <s_epik_input>  (2) 
W0NIM11bQ0BASF0xW0NIMl1bQ0hdPUMoW0NAXShbQ0gzXSkoW0NIXT1bQ0gyXSlbQ0BIXShbT0hdKVtDQEBIXTJbQ0gzXSlbQ0BIXShbQ0BAXTEoW0NIM10pW0NIMl1DMjM0KVtDQF0oW0NIM10pKFtDSDJdNClbQ0BIXShbQ0gzXSlbQ0gyXVtDSDJdMw==

>  <s_epik_cmdline>  (2) 
J2VwaWtfcHl0aG9uJywgJy1waHQnLCAnMi4wJywgJy1waCcsICc3LjAnLCAnLXRuJywgJzgnLCAnLW1hJywgJzIwMCcsICctaW1hZScsICc8aW5maWxlLm1hZT4nLCAnLW9tYWUnLCAnPG91dGZpbGUubWFlPic=

>  <r_lp_tautomer_probability>  (2) 
1

>  <r_epik_Ionization_Penalty>  (2) 
3.90919e-07

>  <r_epik_Ionization_Penalty_Charging>  (2) 
0

>  <r_epik_Ionization_Penalty_Neutral>  (2) 
3.90919e-07

>  <r_epik_State_Penalty>  (2) 
-0

>  <r_epik_Charging_Adjusted_Penalty>  (2) 
0

>  <i_epik_Tot_Q>  (2) 
0

>  <i_epik_Tot_abs_Q>  (2) 
0

>  <s_lp_Force_Field>  (2) 
OPLS3e

>  <r_lp_Energy>  (2) 
304.1

>  <b_lp_Chiralities_Consistent>  (2) 
1

>  <s_lp_Variant>  (2) 
0:0-1

>  <s_i_glide_gridfile>  (2) 
pfpi4k_grid

>  <i_i_glide_lignum>  (2) 
1

>  <i_i_glide_rotatable_bonds>  (2) 
2

>  <r_i_docking_score>  (2) 
-2.53756

>  <r_i_glide_ligand_efficiency>  (2) 
-0.101502

>  <r_i_glide_ligand_efficiency_sa>  (2) 
-0.296795

>  <r_i_glide_ligand_efficiency_ln>  (2) 
-0.601478

>  <r_i_glide_gscore>  (2) 
-2.53756

>  <r_i_glide_lipo>  (2) 
-1.06915

>  <r_i_glide_hbond>  (2) 
0

>  <r_i_glide_metal>  (2) 
-0

>  <r_i_glide_rewards>  (2) 
-1.07347

>  <r_i_glide_evdw>  (2) 
-10.28

>  <r_i_glide_ecoul>  (2) 
-0.283648

>  <r_i_glide_erotb>  (2) 
0.161608

>  <r_i_glide_esite>  (2) 
0

>  <r_i_glide_emodel>  (2) 
-7.1577

>  <r_i_glide_energy>  (2) 
-10.5637

>  <r_i_glide_einternal>  (2) 
1.37576

>  <r_i_glide_intrahb_reward>  (2) 
-0

>  <i_i_glide_confnum>  (2) 
6

>  <i_i_glide_posenum>  (2) 
22

>  <r_i_glide_eff_state_penalty>  (2) 
0

>  <ligand_id>  (2) 
0

>  <original_smiles>  (2) 
C=CC1(C)C2=CCC(C)C3(C)CC4(CCC(C)C(C)(C4)C23)C(C)C1O

>  <smiles>  (2) 
[H]OC1([H])C(C([H])=C([H])[H])(C([H])([H])[H])C2=C([H])C([H])([H])C([H])(C([H])([H])[H])C3(C([H])([H])[H])C([H])([H])C4(C([H])([H])C([H])([H])C([H])(C([H])([H])[H])C(C([H])([H])[H])(C4([H])[H])C23[H])C1([H])C([H])([H])[H]

$$$$
0:0:2
     RDKit          3D

 63 66  0  0  1  0  0  0  0  0999 V2000
    2.2795   -5.0251    3.3061 C   0  0  0  0  0  0  0  0  0  0  0  0
    3.1891   -5.7300    2.6117 C   0  0  0  0  0  0  0  0  0  0  0  0
    3.9180   -5.4057    1.2630 C   0  0  1  0  0  0  0  0  0  0  0  0
    3.4661   -6.6179    0.4415 C   0  0  0  0  0  0  0  0  0  0  0  0
    3.3015   -4.0127    0.5973 C   0  0  0  0  0  0  0  0  0  0  0  0
    2.2288   -4.2077   -0.1949 C   0  0  0  0  0  0  0  0  0  0  0  0
    2.2139   -3.5878   -1.5653 C   0  0  0  0  0  0  0  0  0  0  0  0
    3.6614   -3.4504   -2.0822 C   0  0  1  0  0  0  0  0  0  0  0  0
    3.6277   -3.0145   -3.5723 C   0  0  0  0  0  0  0  0  0  0  0  0
    4.6372   -2.7236   -1.0453 C   0  0  2  0  0  0  0  0  0  0  0  0
    5.2800   -1.5447   -1.8198 C   0  0  0  0  0  0  0  0  0  0  0  0
    5.7140   -3.6342   -0.3781 C   0  0  0  0  0  0  0  0  0  0  0  0
    6.0949   -3.5044    1.2496 C   0  0  2  0  0  0  0  0  0  0  0  0
    5.4135   -3.5509    2.7611 C   0  0  0  0  0  0  0  0  0  0  0  0
    4.2362   -2.7138    3.2074 C   0  0  0  0  0  0  0  0  0  0  0  0
    4.3078   -1.3581    2.6650 C   0  0  1  0  0  0  0  0  0  0  0  0
    5.0613   -0.4312    3.6675 C   0  0  0  0  0  0  0  0  0  0  0  0
    4.8595   -1.4705    1.2120 C   0  0  1  0  0  0  0  0  0  0  0  0
    4.7713   -0.0078    0.7021 C   0  0  0  0  0  0  0  0  0  0  0  0
    6.3737   -2.0056    1.2483 C   0  0  0  0  0  0  0  0  0  0  0  0
    3.9384   -2.4950    0.2819 C   0  0  2  0  0  0  0  0  0  0  0  0
    6.8157   -4.8514    1.3147 C   0  0  1  0  0  0  0  0  0  0  0  0
    7.8691   -5.1391    2.3992 C   0  0  0  0  0  0  0  0  0  0  0  0
    5.5400   -5.8503    1.2603 C   0  0  1  0  0  0  0  0  0  0  0  0
    5.7815   -6.9340    2.1429 O   0  0  0  0  0  0  0  0  0  0  0  0
    1.8687   -4.0806    2.9272 H   0  0  0  0  0  0  0  0  0  0  0  0
    1.9534   -5.3942    4.2444 H   0  0  0  0  0  0  0  0  0  0  0  0
    3.4725   -6.6981    3.0038 H   0  0  0  0  0  0  0  0  0  0  0  0
    2.3778   -6.7930    0.5552 H   0  0  0  0  0  0  0  0  0  0  0  0
    3.8645   -7.5841    0.6970 H   0  0  0  0  0  0  0  0  0  0  0  0
    3.6898   -6.4907   -0.6169 H   0  0  0  0  0  0  0  0  0  0  0  0
    1.6072   -5.0793   -0.1667 H   0  0  0  0  0  0  0  0  0  0  0  0
    1.6027   -4.2057   -2.2247 H   0  0  0  0  0  0  0  0  0  0  0  0
    1.6804   -2.6688   -1.5726 H   0  0  0  0  0  0  0  0  0  0  0  0
    4.0702   -4.4142   -2.1249 H   0  0  0  0  0  0  0  0  0  0  0  0
    3.2639   -1.9941   -3.7014 H   0  0  0  0  0  0  0  0  0  0  0  0
    2.9505   -3.6574   -4.1380 H   0  0  0  0  0  0  0  0  0  0  0  0
    4.6022   -3.1229   -4.0452 H   0  0  0  0  0  0  0  0  0  0  0  0
    6.0185   -0.9765   -1.2620 H   0  0  0  0  0  0  0  0  0  0  0  0
    4.5213   -0.8444   -2.1856 H   0  0  0  0  0  0  0  0  0  0  0  0
    5.8203   -1.9198   -2.6921 H   0  0  0  0  0  0  0  0  0  0  0  0
    5.4955   -4.6280   -0.7412 H   0  0  0  0  0  0  0  0  0  0  0  0
    6.6444   -3.4598   -0.9294 H   0  0  0  0  0  0  0  0  0  0  0  0
    5.2812   -4.5323    3.2036 H   0  0  0  0  0  0  0  0  0  0  0  0
    6.1912   -3.2211    3.4293 H   0  0  0  0  0  0  0  0  0  0  0  0
    3.3661   -3.0265    2.7492 H   0  0  0  0  0  0  0  0  0  0  0  0
    4.1000   -2.7370    4.2786 H   0  0  0  0  0  0  0  0  0  0  0  0
    3.2883   -0.9743    2.6092 H   0  0  0  0  0  0  0  0  0  0  0  0
    6.0254   -0.8682    3.9174 H   0  0  0  0  0  0  0  0  0  0  0  0
    4.4878   -0.3819    4.5962 H   0  0  0  0  0  0  0  0  0  0  0  0
    5.2203    0.5932    3.2954 H   0  0  0  0  0  0  0  0  0  0  0  0
    4.2386    0.0942   -0.2303 H   0  0  0  0  0  0  0  0  0  0  0  0
    5.7607    0.4113    0.5834 H   0  0  0  0  0  0  0  0  0  0  0  0
    4.2202    0.6534    1.3559 H   0  0  0  0  0  0  0  0  0  0  0  0
    6.9205   -1.6307    2.1020 H   0  0  0  0  0  0  0  0  0  0  0  0
    6.9853   -1.6897    0.4079 H   0  0  0  0  0  0  0  0  0  0  0  0
    3.0583   -1.8805    0.0819 H   0  0  0  0  0  0  0  0  0  0  0  0
    7.4224   -4.9963    0.4215 H   0  0  0  0  0  0  0  0  0  0  0  0
    7.4301   -5.1922    3.3964 H   0  0  0  0  0  0  0  0  0  0  0  0
    8.6325   -4.3551    2.3990 H   0  0  0  0  0  0  0  0  0  0  0  0
    8.4192   -6.0531    2.2551 H   0  0  0  0  0  0  0  0  0  0  0  0
    5.7526   -6.3640    0.3136 H   0  0  0  0  0  0  0  0  0  0  0  0
    6.6277   -7.3101    1.9520 H   0  0  0  0  0  0  0  0  0  0  0  0
  1  2  2  0
  1 26  1  0
  1 27  1  0
  2  3  1  0
  2 28  1  0
  3 24  1  0
  3  4  1  6
  3  5  1  0
  4 29  1  0
  4 30  1  0
  4 31  1  0
  5 21  1  0
  5  6  2  0
  6  7  1  0
  6 32  1  0
  7  8  1  0
  7 33  1  0
  7 34  1  0
  8  9  1  0
  8 10  1  0
  8 35  1  6
  9 36  1  0
  9 37  1  0
  9 38  1  0
 10 21  1  0
 10 11  1  6
 10 12  1  0
 11 39  1  0
 11 40  1  0
 11 41  1  0
 12 13  1  0
 12 42  1  0
 12 43  1  0
 13 20  1  0
 13 14  1  1
 13 22  1  0
 14 15  1  0
 14 44  1  0
 14 45  1  0
 15 16  1  0
 15 46  1  0
 15 47  1  0
 16 17  1  0
 16 18  1  0
 16 48  1  6
 17 49  1  0
 17 50  1  0
 17 51  1  0
 18 19  1  6
 18 20  1  0
 18 21  1  0
 19 52  1  0
 19 53  1  0
 19 54  1  0
 20 55  1  0
 20 56  1  0
 21 57  1  6
 22 23  1  0
 22 24  1  0
 22 58  1  6
 23 59  1  0
 23 60  1  0
 23 61  1  0
 24 25  1  0
 24 62  1  6
 25 63  1  0
M  END
>  <i_m_ct_stereo_status>  (3) 
1

>  <s_m_source_file>  (3) 
/var/tmp/pbs.5076255.sched01/tmpt68d_85j/0g9mu2vg5.sdf

>  <i_m_source_file_index>  (3) 
1

>  <i_lp_mmshare_version>  (3) 
48012

>  <i_f3d_flags>  (3) 
0

>  <s_epik_input>  (3) 
W0NIM11bQ0BASF0xW0NIMl1bQ0hdPUMoW0NAXShbQ0gzXSkoW0NIXT1bQ0gyXSlbQ0BIXShbT0hdKVtDQEBIXTJbQ0gzXSlbQ0BIXShbQ0BAXTEoW0NIM10pW0NIMl1DMjM0KVtDQF0oW0NIM10pKFtDSDJdNClbQ0BIXShbQ0gzXSlbQ0gyXVtDSDJdMw==

>  <s_epik_cmdline>  (3) 
J2VwaWtfcHl0aG9uJywgJy1waHQnLCAnMi4wJywgJy1waCcsICc3LjAnLCAnLXRuJywgJzgnLCAnLW1hJywgJzIwMCcsICctaW1hZScsICc8aW5maWxlLm1hZT4nLCAnLW9tYWUnLCAnPG91dGZpbGUubWFlPic=

>  <r_lp_tautomer_probability>  (3) 
1

>  <r_epik_Ionization_Penalty>  (3) 
3.90919e-07

>  <r_epik_Ionization_Penalty_Charging>  (3) 
0

>  <r_epik_Ionization_Penalty_Neutral>  (3) 
3.90919e-07

>  <r_epik_State_Penalty>  (3) 
-0

>  <r_epik_Charging_Adjusted_Penalty>  (3) 
0

>  <i_epik_Tot_Q>  (3) 
0

>  <i_epik_Tot_abs_Q>  (3) 
0

>  <s_lp_Force_Field>  (3) 
OPLS3e

>  <r_lp_Energy>  (3) 
304.1

>  <b_lp_Chiralities_Consistent>  (3) 
1

>  <s_lp_Variant>  (3) 
0:0-1

>  <s_i_glide_gridfile>  (3) 
pfpi4k_grid

>  <i_i_glide_lignum>  (3) 
1

>  <i_i_glide_rotatable_bonds>  (3) 
2

>  <r_i_docking_score>  (3) 
-2.19669

>  <r_i_glide_ligand_efficiency>  (3) 
-0.0878677

>  <r_i_glide_ligand_efficiency_sa>  (3) 
-0.256927

>  <r_i_glide_ligand_efficiency_ln>  (3) 
-0.520682

>  <r_i_glide_gscore>  (3) 
-2.19669

>  <r_i_glide_lipo>  (3) 
-1.13824

>  <r_i_glide_hbond>  (3) 
0

>  <r_i_glide_metal>  (3) 
-0

>  <r_i_glide_rewards>  (3) 
-1.07347

>  <r_i_glide_evdw>  (3) 
-5.97129

>  <r_i_glide_ecoul>  (3) 
0.106929

>  <r_i_glide_erotb>  (3) 
0.161608

>  <r_i_glide_esite>  (3) 
0

>  <r_i_glide_emodel>  (3) 
-1.94796

>  <r_i_glide_energy>  (3) 
-5.86436

>  <r_i_glide_einternal>  (3) 
0.349377

>  <r_i_glide_intrahb_reward>  (3) 
-0

>  <i_i_glide_confnum>  (3) 
1

>  <i_i_glide_posenum>  (3) 
25

>  <r_i_glide_eff_state_penalty>  (3) 
0

>  <ligand_id>  (3) 
0

>  <original_smiles>  (3) 
C=CC1(C)C2=CCC(C)C3(C)CC4(CCC(C)C(C)(C4)C23)C(C)C1O

>  <smiles>  (3) 
[H]OC1([H])C(C([H])=C([H])[H])(C([H])([H])[H])C2=C([H])C([H])([H])C([H])(C([H])([H])[H])C3(C([H])([H])[H])C([H])([H])C4(C([H])([H])C([H])([H])C([H])(C([H])([H])[H])C(C([H])([H])[H])(C4([H])[H])C23[H])C1([H])C([H])([H])[H]

$$$$
2:0:0
     RDKit          3D

 20 21  0  0  1  0  0  0  0  0999 V2000
   -7.1796   -4.3043   -4.5954 C   0  0  0  0  0  0  0  0  0  0  0  0
   -7.3765   -5.2980   -5.6423 N   0  0  0  0  0  0  0  0  0  0  0  0
   -8.3026   -5.1414   -6.6795 C   0  0  0  0  0  0  0  0  0  0  0  0
   -9.0743   -4.2047   -6.8862 O   0  0  0  0  0  0  0  0  0  0  0  0
   -8.2093   -6.5870   -7.7613 S   0  0  0  0  0  0  0  0  0  0  0  0
   -6.9654   -7.3030   -6.7820 C   0  0  0  0  0  0  0  0  0  0  0  0
   -6.3364   -8.5356   -7.0246 C   0  0  0  0  0  0  0  0  0  0  0  0
   -5.3245   -8.9650   -6.1302 C   0  0  0  0  0  0  0  0  0  0  0  0
   -4.6408  -10.2553   -6.3371 N   0  0  0  0  0  0  0  0  0  0  0  0
   -4.9377  -10.9184   -7.3241 O   0  0  0  0  0  0  0  0  0  0  0  0
   -3.7931  -10.6015   -5.5226 O   0  0  0  0  0  0  0  0  0  0  0  0
   -4.9729   -8.1350   -5.0314 C   0  0  0  0  0  0  0  0  0  0  0  0
   -5.6201   -6.8993   -4.8047 C   0  0  0  0  0  0  0  0  0  0  0  0
   -6.6256   -6.4963   -5.7001 C   0  0  0  0  0  0  0  0  0  0  0  0
   -7.8461   -3.4542   -4.7201 H   0  0  0  0  0  0  0  0  0  0  0  0
   -6.1539   -3.9323   -4.6044 H   0  0  0  0  0  0  0  0  0  0  0  0
   -7.3770   -4.7395   -3.6153 H   0  0  0  0  0  0  0  0  0  0  0  0
   -6.6266   -9.1295   -7.8789 H   0  0  0  0  0  0  0  0  0  0  0  0
   -4.2068   -8.4529   -4.3395 H   0  0  0  0  0  0  0  0  0  0  0  0
   -5.3542   -6.2836   -3.9549 H   0  0  0  0  0  0  0  0  0  0  0  0
  1  2  1  0
  1 15  1  0
  1 16  1  0
  1 17  1  0
  2 14  1  0
  2  3  1  0
  3  4  2  0
  3  5  1  0
  5  6  1  0
  6 14  2  0
  6  7  1  0
  7  8  2  0
  7 18  1  0
  8  9  1  0
  8 12  1  0
  9 10  2  0
  9 11  1  0
 12 13  2  0
 12 19  1  0
 13 14  1  0
 13 20  1  0
M  CHG  2   9   1  11  -1
M  END
>  <i_m_ct_stereo_status>  (4) 
1

>  <s_m_source_file>  (4) 
/var/tmp/pbs.5076255.sched01/tmpt68d_85j/0g9mu2vg5.sdf

>  <i_m_source_file_index>  (4) 
3

>  <i_lp_mmshare_version>  (4) 
48012

>  <i_f3d_flags>  (4) 
0

>  <s_epik_input>  (4) 
Tz1jKHMxKW4oW0NIM10pYyhjMTIpW2NIXVtjSF1jKFtjSF0yKVtOK10oPU8pW08tXQ==

>  <s_epik_cmdline>  (4) 
J2VwaWtfcHl0aG9uJywgJy1waHQnLCAnMi4wJywgJy1waCcsICc3LjAnLCAnLXRuJywgJzgnLCAnLW1hJywgJzIwMCcsICctaW1hZScsICc8aW5maWxlLm1hZT4nLCAnLW9tYWUnLCAnPG91dGZpbGUubWFlPic=

>  <r_lp_tautomer_probability>  (4) 
1

>  <r_epik_Ionization_Penalty>  (4) 
3.75412e-07

>  <r_epik_Ionization_Penalty_Charging>  (4) 
2.99177e-07

>  <r_epik_Ionization_Penalty_Neutral>  (4) 
7.62352e-08

>  <r_epik_State_Penalty>  (4) 
-0

>  <r_epik_Charging_Adjusted_Penalty>  (4) 
2.99177e-07

>  <i_epik_Tot_Q>  (4) 
0

>  <i_epik_Tot_abs_Q>  (4) 
2

>  <s_lp_Force_Field>  (4) 
OPLS3e

>  <r_lp_Energy>  (4) 
12.9184

>  <b_lp_Chiralities_Consistent>  (4) 
1

>  <s_lp_Variant>  (4) 
2:0-1

>  <s_i_glide_gridfile>  (4) 
pfpi4k_grid

>  <i_i_glide_lignum>  (4) 
3

>  <i_i_glide_rotatable_bonds>  (4) 
1

>  <r_i_docking_score>  (4) 
-6.88894

>  <r_i_glide_ligand_efficiency>  (4) 
-0.492067

>  <r_i_glide_ligand_efficiency_sa>  (4) 
-1.18595

>  <r_i_glide_ligand_efficiency_ln>  (4) 
-1.89306

>  <r_i_glide_gscore>  (4) 
-6.88894

>  <r_i_glide_lipo>  (4) 
-2.30459

>  <r_i_glide_hbond>  (4) 
0

>  <r_i_glide_metal>  (4) 
-0

>  <r_i_glide_rewards>  (4) 
-3.07889

>  <r_i_glide_evdw>  (4) 
-28.6545

>  <r_i_glide_ecoul>  (4) 
-0.484833

>  <r_i_glide_erotb>  (4) 
0

>  <r_i_glide_esite>  (4) 
0

>  <r_i_glide_emodel>  (4) 
-42.8479

>  <r_i_glide_energy>  (4) 
-29.1394

>  <r_i_glide_einternal>  (4) 
0.00264122

>  <r_i_glide_intrahb_reward>  (4) 
-0

>  <i_i_glide_confnum>  (4) 
1

>  <i_i_glide_posenum>  (4) 
6

>  <r_i_glide_eff_state_penalty>  (4) 
0

>  <ligand_id>  (4) 
2

>  <original_smiles>  (4) 
Cn1c(=O)sc2cc([N+](=O)[O-])ccc21

>  <smiles>  (4) 
[H]c1c([N+](=O)[O-])c([H])c2sc(=O)n(C([H])([H])[H])c2c1[H]

$$$$
2:0:1
     RDKit          3D

 20 21  0  0  1  0  0  0  0  0999 V2000
   -6.5525   -4.4175   -4.1857 C   0  0  0  0  0  0  0  0  0  0  0  0
   -7.2765   -5.0308   -5.2910 N   0  0  0  0  0  0  0  0  0  0  0  0
   -8.3834   -4.4428   -5.9128 C   0  0  0  0  0  0  0  0  0  0  0  0
   -8.9457   -3.3839   -5.6439 O   0  0  0  0  0  0  0  0  0  0  0  0
   -8.9324   -5.5058   -7.2627 S   0  0  0  0  0  0  0  0  0  0  0  0
   -7.7072   -6.6843   -6.8866 C   0  0  0  0  0  0  0  0  0  0  0  0
   -7.5098   -7.9035   -7.5533 C   0  0  0  0  0  0  0  0  0  0  0  0
   -6.4417   -8.7366   -7.1326 C   0  0  0  0  0  0  0  0  0  0  0  0
   -6.1899  -10.0215   -7.8064 N   0  0  0  0  0  0  0  0  0  0  0  0
   -5.2367  -10.6966   -7.4319 O   0  0  0  0  0  0  0  0  0  0  0  0
   -6.9392  -10.3594   -8.7192 O   0  0  0  0  0  0  0  0  0  0  0  0
   -5.6127   -8.3179   -6.0550 C   0  0  0  0  0  0  0  0  0  0  0  0
   -5.8353   -7.0918   -5.3924 C   0  0  0  0  0  0  0  0  0  0  0  0
   -6.9026   -6.2829   -5.8260 C   0  0  0  0  0  0  0  0  0  0  0  0
   -6.9771   -3.4579   -3.9197 H   0  0  0  0  0  0  0  0  0  0  0  0
   -5.5057   -4.2491   -4.4520 H   0  0  0  0  0  0  0  0  0  0  0  0
   -6.5887   -5.0552   -3.3011 H   0  0  0  0  0  0  0  0  0  0  0  0
   -8.1645   -8.1837   -8.3677 H   0  0  0  0  0  0  0  0  0  0  0  0
   -4.7953   -8.9417   -5.7224 H   0  0  0  0  0  0  0  0  0  0  0  0
   -5.1988   -6.7874   -4.5706 H   0  0  0  0  0  0  0  0  0  0  0  0
  1  2  1  0
  1 15  1  0
  1 16  1  0
  1 17  1  0
  2 14  1  0
  2  3  1  0
  3  4  2  0
  3  5  1  0
  5  6  1  0
  6 14  2  0
  6  7  1  0
  7  8  2  0
  7 18  1  0
  8  9  1  0
  8 12  1  0
  9 10  2  0
  9 11  1  0
 12 13  2  0
 12 19  1  0
 13 14  1  0
 13 20  1  0
M  CHG  2   9   1  11  -1
M  END
>  <i_m_ct_stereo_status>  (5) 
1

>  <s_m_source_file>  (5) 
/var/tmp/pbs.5076255.sched01/tmpt68d_85j/0g9mu2vg5.sdf

>  <i_m_source_file_index>  (5) 
3

>  <i_lp_mmshare_version>  (5) 
48012

>  <i_f3d_flags>  (5) 
0

>  <s_epik_input>  (5) 
Tz1jKHMxKW4oW0NIM10pYyhjMTIpW2NIXVtjSF1jKFtjSF0yKVtOK10oPU8pW08tXQ==

>  <s_epik_cmdline>  (5) 
J2VwaWtfcHl0aG9uJywgJy1waHQnLCAnMi4wJywgJy1waCcsICc3LjAnLCAnLXRuJywgJzgnLCAnLW1hJywgJzIwMCcsICctaW1hZScsICc8aW5maWxlLm1hZT4nLCAnLW9tYWUnLCAnPG91dGZpbGUubWFlPic=

>  <r_lp_tautomer_probability>  (5) 
1

>  <r_epik_Ionization_Penalty>  (5) 
3.75412e-07

>  <r_epik_Ionization_Penalty_Charging>  (5) 
2.99177e-07

>  <r_epik_Ionization_Penalty_Neutral>  (5) 
7.62352e-08

>  <r_epik_State_Penalty>  (5) 
-0

>  <r_epik_Charging_Adjusted_Penalty>  (5) 
2.99177e-07

>  <i_epik_Tot_Q>  (5) 
0

>  <i_epik_Tot_abs_Q>  (5) 
2

>  <s_lp_Force_Field>  (5) 
OPLS3e

>  <r_lp_Energy>  (5) 
12.9184

>  <b_lp_Chiralities_Consistent>  (5) 
1

>  <s_lp_Variant>  (5) 
2:0-1

>  <s_i_glide_gridfile>  (5) 
pfpi4k_grid

>  <i_i_glide_lignum>  (5) 
3

>  <i_i_glide_rotatable_bonds>  (5) 
1

>  <r_i_docking_score>  (5) 
-6.80066

>  <r_i_glide_ligand_efficiency>  (5) 
-0.485762

>  <r_i_glide_ligand_efficiency_sa>  (5) 
-1.17075

>  <r_i_glide_ligand_efficiency_ln>  (5) 
-1.8688

>  <r_i_glide_gscore>  (5) 
-6.80066

>  <r_i_glide_lipo>  (5) 
-2.27361

>  <r_i_glide_hbond>  (5) 
0

>  <r_i_glide_metal>  (5) 
-0

>  <r_i_glide_rewards>  (5) 
-3.0027

>  <r_i_glide_evdw>  (5) 
-26.8648

>  <r_i_glide_ecoul>  (5) 
-1.20738

>  <r_i_glide_erotb>  (5) 
0

>  <r_i_glide_esite>  (5) 
0

>  <r_i_glide_emodel>  (5) 
-41.5968

>  <r_i_glide_energy>  (5) 
-28.0722

>  <r_i_glide_einternal>  (5) 
0.000285617

>  <r_i_glide_intrahb_reward>  (5) 
-0

>  <i_i_glide_confnum>  (5) 
2

>  <i_i_glide_posenum>  (5) 
7

>  <r_i_glide_eff_state_penalty>  (5) 
0

>  <ligand_id>  (5) 
2

>  <original_smiles>  (5) 
Cn1c(=O)sc2cc([N+](=O)[O-])ccc21

>  <smiles>  (5) 
[H]c1c([N+](=O)[O-])c([H])c2sc(=O)n(C([H])([H])[H])c2c1[H]

$$$$
2:0:2
     RDKit          3D

 20 21  0  0  1  0  0  0  0  0999 V2000
   -1.5196   -8.9311    3.2830 C   0  0  0  0  0  0  0  0  0  0  0  0
   -0.1591   -8.6918    2.8150 N   0  0  0  0  0  0  0  0  0  0  0  0
    0.1869   -7.5689    2.0610 C   0  0  0  0  0  0  0  0  0  0  0  0
   -0.5429   -6.6548    1.6798 O   0  0  0  0  0  0  0  0  0  0  0  0
    1.9561   -7.6326    1.6924 S   0  0  0  0  0  0  0  0  0  0  0  0
    2.1259   -9.1405    2.5407 C   0  0  0  0  0  0  0  0  0  0  0  0
    3.3159   -9.8700    2.6925 C   0  0  0  0  0  0  0  0  0  0  0  0
    3.2721  -11.0832    3.4239 C   0  0  0  0  0  0  0  0  0  0  0  0
    4.4938  -11.8877    3.6066 N   0  0  0  0  0  0  0  0  0  0  0  0
    5.5682  -11.3968    3.2791 O   0  0  0  0  0  0  0  0  0  0  0  0
    4.3868  -13.0072    4.0969 O   0  0  0  0  0  0  0  0  0  0  0  0
    2.0395  -11.5108    3.9856 C   0  0  0  0  0  0  0  0  0  0  0  0
    0.8519  -10.7674    3.8164 C   0  0  0  0  0  0  0  0  0  0  0  0
    0.9165   -9.5708    3.0833 C   0  0  0  0  0  0  0  0  0  0  0  0
   -2.2184   -8.1521    2.9879 H   0  0  0  0  0  0  0  0  0  0  0  0
   -1.5275   -9.0004    4.3697 H   0  0  0  0  0  0  0  0  0  0  0  0
   -1.8844   -9.8698    2.8774 H   0  0  0  0  0  0  0  0  0  0  0  0
    4.2348   -9.5101    2.2545 H   0  0  0  0  0  0  0  0  0  0  0  0
    1.9909  -12.4290    4.5557 H   0  0  0  0  0  0  0  0  0  0  0  0
   -0.0816  -11.1103    4.2453 H   0  0  0  0  0  0  0  0  0  0  0  0
  1  2  1  0
  1 15  1  0
  1 16  1  0
  1 17  1  0
  2 14  1  0
  2  3  1  0
  3  4  2  0
  3  5  1  0
  5  6  1  0
  6 14  2  0
  6  7  1  0
  7  8  2  0
  7 18  1  0
  8  9  1  0
  8 12  1  0
  9 10  2  0
  9 11  1  0
 12 13  2  0
 12 19  1  0
 13 14  1  0
 13 20  1  0
M  CHG  2   9   1  11  -1
M  END
>  <i_m_ct_stereo_status>  (6) 
1

>  <s_m_source_file>  (6) 
/var/tmp/pbs.5076255.sched01/tmpt68d_85j/0g9mu2vg5.sdf

>  <i_m_source_file_index>  (6) 
3

>  <i_lp_mmshare_version>  (6) 
48012

>  <i_f3d_flags>  (6) 
0

>  <s_epik_input>  (6) 
Tz1jKHMxKW4oW0NIM10pYyhjMTIpW2NIXVtjSF1jKFtjSF0yKVtOK10oPU8pW08tXQ==

>  <s_epik_cmdline>  (6) 
J2VwaWtfcHl0aG9uJywgJy1waHQnLCAnMi4wJywgJy1waCcsICc3LjAnLCAnLXRuJywgJzgnLCAnLW1hJywgJzIwMCcsICctaW1hZScsICc8aW5maWxlLm1hZT4nLCAnLW9tYWUnLCAnPG91dGZpbGUubWFlPic=

>  <r_lp_tautomer_probability>  (6) 
1

>  <r_epik_Ionization_Penalty>  (6) 
3.75412e-07

>  <r_epik_Ionization_Penalty_Charging>  (6) 
2.99177e-07

>  <r_epik_Ionization_Penalty_Neutral>  (6) 
7.62352e-08

>  <r_epik_State_Penalty>  (6) 
-0

>  <r_epik_Charging_Adjusted_Penalty>  (6) 
2.99177e-07

>  <i_epik_Tot_Q>  (6) 
0

>  <i_epik_Tot_abs_Q>  (6) 
2

>  <s_lp_Force_Field>  (6) 
OPLS3e

>  <r_lp_Energy>  (6) 
12.9184

>  <b_lp_Chiralities_Consistent>  (6) 
1

>  <s_lp_Variant>  (6) 
2:0-1

>  <s_i_glide_gridfile>  (6) 
pfpi4k_grid

>  <i_i_glide_lignum>  (6) 
3

>  <i_i_glide_rotatable_bonds>  (6) 
1

>  <r_i_docking_score>  (6) 
-4.26624

>  <r_i_glide_ligand_efficiency>  (6) 
-0.304731

>  <r_i_glide_ligand_efficiency_sa>  (6) 
-0.734446

>  <r_i_glide_ligand_efficiency_ln>  (6) 
-1.17235

>  <r_i_glide_gscore>  (6) 
-4.26624

>  <r_i_glide_lipo>  (6) 
-0.0719276

>  <r_i_glide_hbond>  (6) 
-0.218526

>  <r_i_glide_metal>  (6) 
-0

>  <r_i_glide_rewards>  (6) 
-1.97584

>  <r_i_glide_evdw>  (6) 
-20.6676

>  <r_i_glide_ecoul>  (6) 
-5.55915

>  <r_i_glide_erotb>  (6) 
0

>  <r_i_glide_esite>  (6) 
-0.132695

>  <r_i_glide_emodel>  (6) 
-34.673

>  <r_i_glide_energy>  (6) 
-26.2267

>  <r_i_glide_einternal>  (6) 
0.0743977

>  <r_i_glide_intrahb_reward>  (6) 
-0

>  <i_i_glide_confnum>  (6) 
1

>  <i_i_glide_posenum>  (6) 
1

>  <r_i_glide_eff_state_penalty>  (6) 
0

>  <ligand_id>  (6) 
2

>  <original_smiles>  (6) 
Cn1c(=O)sc2cc([N+](=O)[O-])ccc21

>  <smiles>  (6) 
[H]c1c([N+](=O)[O-])c([H])c2sc(=O)n(C([H])([H])[H])c2c1[H]

$$$$
3:0:0
     RDKit          3D

 30 33  0  0  1  0  0  0  0  0999 V2000
    2.5040    0.4665    4.8276 Cl  0  0  0  0  0  0  0  0  0  0  0  0
    2.7176   -0.5072    3.4058 C   0  0  0  0  0  0  0  0  0  0  0  0
    3.1889    0.1388    2.2467 C   0  0  0  0  0  0  0  0  0  0  0  0
    3.4271   -0.5444    1.0442 C   0  0  0  0  0  0  0  0  0  0  0  0
    3.1435   -1.9204    1.1014 N   0  0  0  0  0  0  0  0  0  0  0  0
    3.2033   -2.9311    0.1818 C   0  0  0  0  0  0  0  0  0  0  0  0
    3.6199   -2.8494   -1.2720 C   0  0  2  0  0  0  0  0  0  0  0  0
    2.4871   -3.1539   -2.2841 C   0  0  0  0  0  0  0  0  0  0  0  0
    3.0008   -2.5610   -3.6069 C   0  0  0  0  0  0  0  0  0  0  0  0
    4.3650   -1.9669   -3.1990 C   0  0  2  0  0  0  0  0  0  0  0  0
    5.3830   -3.0901   -2.9404 C   0  0  0  0  0  0  0  0  0  0  0  0
    4.8535   -3.7169   -1.6230 C   0  0  0  0  0  0  0  0  0  0  0  0
    4.0735   -1.4897   -1.7875 C   0  0  0  0  0  0  0  0  0  0  0  0
    2.8124   -4.0643    0.7845 N   0  0  0  0  0  0  0  0  0  0  0  0
    2.5006   -3.8019    2.0974 N   0  0  0  0  0  0  0  0  0  0  0  0
    2.6830   -2.4972    2.3018 C   0  0  0  0  0  0  0  0  0  0  0  0
    2.4562   -1.8300    3.4659 N   0  0  0  0  0  0  0  0  0  0  0  0
    3.3676    1.2092    2.2866 H   0  0  0  0  0  0  0  0  0  0  0  0
    3.7832   -0.0876    0.1254 H   0  0  0  0  0  0  0  0  0  0  0  0
    2.2140   -4.2038   -2.3620 H   0  0  0  0  0  0  0  0  0  0  0  0
    1.5576   -2.6703   -1.9829 H   0  0  0  0  0  0  0  0  0  0  0  0
    3.0889   -3.3059   -4.3985 H   0  0  0  0  0  0  0  0  0  0  0  0
    2.3355   -1.7653   -3.9457 H   0  0  0  0  0  0  0  0  0  0  0  0
    4.7223   -1.1780   -3.8671 H   0  0  0  0  0  0  0  0  0  0  0  0
    5.4405   -3.8127   -3.7625 H   0  0  0  0  0  0  0  0  0  0  0  0
    6.3837   -2.6788   -2.7720 H   0  0  0  0  0  0  0  0  0  0  0  0
    5.6189   -3.6433   -0.8435 H   0  0  0  0  0  0  0  0  0  0  0  0
    4.6122   -4.7817   -1.7375 H   0  0  0  0  0  0  0  0  0  0  0  0
    3.2972   -0.7160   -1.7701 H   0  0  0  0  0  0  0  0  0  0  0  0
    4.9677   -1.1051   -1.3103 H   0  0  0  0  0  0  0  0  0  0  0  0
  1  2  1  0
  2 17  2  0
  2  3  1  0
  3  4  2  0
  3 18  1  0
  4  5  1  0
  4 19  1  0
  5 16  1  0
  5  6  1  0
  7  6  1  1
  6 14  2  0
  7 12  1  0
  7 13  1  0
  7  8  1  0
  8  9  1  0
  8 20  1  0
  8 21  1  0
  9 10  1  0
  9 22  1  0
  9 23  1  0
 10 11  1  0
 10 13  1  0
 10 24  1  6
 11 12  1  0
 11 25  1  0
 11 26  1  0
 12 27  1  0
 12 28  1  0
 13 29  1  0
 13 30  1  0
 14 15  1  0
 15 16  2  0
 16 17  1  0
M  END
>  <i_m_ct_stereo_status>  (7) 
1

>  <s_m_source_file>  (7) 
/var/tmp/pbs.5076255.sched01/tmpt68d_85j/0g9mu2vg5.sdf

>  <i_m_source_file_index>  (7) 
4

>  <i_lp_mmshare_version>  (7) 
48012

>  <i_f3d_flags>  (7) 
0

>  <s_epik_input>  (7) 
W2NIXTFbY0hdYyhDbCluYyhuMTIpbm5jMltDQEBdMzRbQ0gyXVtDSDJdW0NASF0oW0NIMl00KVtDSDJdW0NIMl0z

>  <s_epik_cmdline>  (7) 
J2VwaWtfcHl0aG9uJywgJy1waHQnLCAnMi4wJywgJy1waCcsICc3LjAnLCAnLXRuJywgJzgnLCAnLW1hJywgJzIwMCcsICctaW1hZScsICc8aW5maWxlLm1hZT4nLCAnLW9tYWUnLCAnPG91dGZpbGUubWFlPic=

>  <r_lp_tautomer_probability>  (7) 
1

>  <r_epik_Ionization_Penalty>  (7) 
5.12553e-07

>  <r_epik_Ionization_Penalty_Charging>  (7) 
0

>  <r_epik_Ionization_Penalty_Neutral>  (7) 
5.12553e-07

>  <r_epik_State_Penalty>  (7) 
-0

>  <r_epik_Charging_Adjusted_Penalty>  (7) 
0

>  <i_epik_Tot_Q>  (7) 
0

>  <i_epik_Tot_abs_Q>  (7) 
0

>  <s_lp_Force_Field>  (7) 
OPLS3e

>  <r_lp_Energy>  (7) 
46.5477

>  <b_lp_Chiralities_Consistent>  (7) 
1

>  <s_lp_Variant>  (7) 
3:0-1

>  <s_i_glide_gridfile>  (7) 
pfpi4k_grid

>  <i_i_glide_lignum>  (7) 
4

>  <i_i_glide_rotatable_bonds>  (7) 
1

>  <r_i_docking_score>  (7) 
-3.4542

>  <r_i_glide_ligand_efficiency>  (7) 
-0.203188

>  <r_i_glide_ligand_efficiency_sa>  (7) 
-0.522454

>  <r_i_glide_ligand_efficiency_ln>  (7) 
-0.901123

>  <r_i_glide_gscore>  (7) 
-3.4542

>  <r_i_glide_lipo>  (7) 
-0.640818

>  <r_i_glide_hbond>  (7) 
0

>  <r_i_glide_metal>  (7) 
-0

>  <r_i_glide_rewards>  (7) 
-1.71333

>  <r_i_glide_evdw>  (7) 
-22.0342

>  <r_i_glide_ecoul>  (7) 
-1.2524

>  <r_i_glide_erotb>  (7) 
0.282491

>  <r_i_glide_esite>  (7) 
-0.0929687

>  <r_i_glide_emodel>  (7) 
-27.8395

>  <r_i_glide_energy>  (7) 
-23.2866

>  <r_i_glide_einternal>  (7) 
1.28519

>  <r_i_glide_intrahb_reward>  (7) 
-0

>  <i_i_glide_confnum>  (7) 
6

>  <i_i_glide_posenum>  (7) 
1

>  <r_i_glide_eff_state_penalty>  (7) 
0

>  <ligand_id>  (7) 
3

>  <original_smiles>  (7) 
Clc1ccn2c(C34CCC(CC3)C4)nnc2n1

>  <smiles>  (7) 
[H]c1c(Cl)nc2nnc(C34C([H])([H])C([H])([H])C([H])(C([H])([H])C3([H])[H])C4([H])[H])n2c1[H]

$$$$
3:0:1
     RDKit          3D

 30 33  0  0  1  0  0  0  0  0999 V2000
   -3.0043    4.2411    8.9728 Cl  0  0  0  0  0  0  0  0  0  0  0  0
   -2.1999    3.3005    7.7738 C   0  0  0  0  0  0  0  0  0  0  0  0
   -1.0945    3.8810    7.1376 C   0  0  0  0  0  0  0  0  0  0  0  0
   -0.3444    3.2094    6.1600 C   0  0  0  0  0  0  0  0  0  0  0  0
   -0.8382    1.9377    5.8497 N   0  0  0  0  0  0  0  0  0  0  0  0
   -0.4413    0.9743    4.9636 C   0  0  0  0  0  0  0  0  0  0  0  0
    0.7393    1.0503    4.0277 C   0  0  2  0  0  0  0  0  0  0  0  0
    0.5849    0.1466    2.7762 C   0  0  0  0  0  0  0  0  0  0  0  0
    1.5947    0.7395    1.7710 C   0  0  0  0  0  0  0  0  0  0  0  0
    2.1745    1.9171    2.5599 C   0  0  2  0  0  0  0  0  0  0  0  0
    3.0911    1.3879    3.6804 C   0  0  0  0  0  0  0  0  0  0  0  0
    2.1040    0.7568    4.6816 C   0  0  0  0  0  0  0  0  0  0  0  0
    0.9795    2.4011    3.3433 C   0  0  0  0  0  0  0  0  0  0  0  0
   -1.1972   -0.1075    5.1488 N   0  0  0  0  0  0  0  0  0  0  0  0
   -2.1733    0.1707    6.0853 N   0  0  0  0  0  0  0  0  0  0  0  0
   -1.9543    1.4120    6.5298 C   0  0  0  0  0  0  0  0  0  0  0  0
   -2.6356    2.0586    7.5022 N   0  0  0  0  0  0  0  0  0  0  0  0
   -0.7946    4.8801    7.4053 H   0  0  0  0  0  0  0  0  0  0  0  0
    0.5336    3.6382    5.6960 H   0  0  0  0  0  0  0  0  0  0  0  0
    0.7647   -0.9130    2.9793 H   0  0  0  0  0  0  0  0  0  0  0  0
   -0.4201    0.2441    2.3583 H   0  0  0  0  0  0  0  0  0  0  0  0
    2.3665    0.0235    1.4707 H   0  0  0  0  0  0  0  0  0  0  0  0
    1.0724    1.0885    0.8807 H   0  0  0  0  0  0  0  0  0  0  0  0
    2.6214    2.7028    1.9596 H   0  0  0  0  0  0  0  0  0  0  0  0
    3.8317    0.6772    3.3086 H   0  0  0  0  0  0  0  0  0  0  0  0
    3.6344    2.2071    4.1525 H   0  0  0  0  0  0  0  0  0  0  0  0
    2.1895    1.2468    5.6524 H   0  0  0  0  0  0  0  0  0  0  0  0
    2.2844   -0.3091    4.8358 H   0  0  0  0  0  0  0  0  0  0  0  0
    0.1369    2.7192    2.7223 H   0  0  0  0  0  0  0  0  0  0  0  0
    1.3222    3.2283    3.9660 H   0  0  0  0  0  0  0  0  0  0  0  0
  1  2  1  0
  2 17  2  0
  2  3  1  0
  3  4  2  0
  3 18  1  0
  4  5  1  0
  4 19  1  0
  5 16  1  0
  5  6  1  0
  7  6  1  1
  6 14  2  0
  7 12  1  0
  7 13  1  0
  7  8  1  0
  8  9  1  0
  8 20  1  0
  8 21  1  0
  9 10  1  0
  9 22  1  0
  9 23  1  0
 10 11  1  0
 10 13  1  0
 10 24  1  6
 11 12  1  0
 11 25  1  0
 11 26  1  0
 12 27  1  0
 12 28  1  0
 13 29  1  0
 13 30  1  0
 14 15  1  0
 15 16  2  0
 16 17  1  0
M  END
>  <i_m_ct_stereo_status>  (8) 
1

>  <s_m_source_file>  (8) 
/var/tmp/pbs.5076255.sched01/tmpt68d_85j/0g9mu2vg5.sdf

>  <i_m_source_file_index>  (8) 
4

>  <i_lp_mmshare_version>  (8) 
48012

>  <i_f3d_flags>  (8) 
0

>  <s_epik_input>  (8) 
W2NIXTFbY0hdYyhDbCluYyhuMTIpbm5jMltDQEBdMzRbQ0gyXVtDSDJdW0NASF0oW0NIMl00KVtDSDJdW0NIMl0z

>  <s_epik_cmdline>  (8) 
J2VwaWtfcHl0aG9uJywgJy1waHQnLCAnMi4wJywgJy1waCcsICc3LjAnLCAnLXRuJywgJzgnLCAnLW1hJywgJzIwMCcsICctaW1hZScsICc8aW5maWxlLm1hZT4nLCAnLW9tYWUnLCAnPG91dGZpbGUubWFlPic=

>  <r_lp_tautomer_probability>  (8) 
1

>  <r_epik_Ionization_Penalty>  (8) 
5.12553e-07

>  <r_epik_Ionization_Penalty_Charging>  (8) 
0

>  <r_epik_Ionization_Penalty_Neutral>  (8) 
5.12553e-07

>  <r_epik_State_Penalty>  (8) 
-0

>  <r_epik_Charging_Adjusted_Penalty>  (8) 
0

>  <i_epik_Tot_Q>  (8) 
0

>  <i_epik_Tot_abs_Q>  (8) 
0

>  <s_lp_Force_Field>  (8) 
OPLS3e

>  <r_lp_Energy>  (8) 
46.5477

>  <b_lp_Chiralities_Consistent>  (8) 
1

>  <s_lp_Variant>  (8) 
3:0-1

>  <s_i_glide_gridfile>  (8) 
pfpi4k_grid

>  <i_i_glide_lignum>  (8) 
4

>  <i_i_glide_rotatable_bonds>  (8) 
1

>  <r_i_docking_score>  (8) 
-3.07268

>  <r_i_glide_ligand_efficiency>  (8) 
-0.180746

>  <r_i_glide_ligand_efficiency_sa>  (8) 
-0.464748

>  <r_i_glide_ligand_efficiency_ln>  (8) 
-0.801593

>  <r_i_glide_gscore>  (8) 
-3.07268

>  <r_i_glide_lipo>  (8) 
-0.131308

>  <r_i_glide_hbond>  (8) 
0

>  <r_i_glide_metal>  (8) 
-0

>  <r_i_glide_rewards>  (8) 
-1.71333

>  <r_i_glide_evdw>  (8) 
-18.9979

>  <r_i_glide_ecoul>  (8) 
-2.40547

>  <r_i_glide_erotb>  (8) 
0.282491

>  <r_i_glide_esite>  (8) 
-0.199811

>  <r_i_glide_emodel>  (8) 
-25.797

>  <r_i_glide_energy>  (8) 
-21.4034

>  <r_i_glide_einternal>  (8) 
0.554194

>  <r_i_glide_intrahb_reward>  (8) 
-0

>  <i_i_glide_confnum>  (8) 
6

>  <i_i_glide_posenum>  (8) 
3

>  <r_i_glide_eff_state_penalty>  (8) 
0

>  <ligand_id>  (8) 
3

>  <original_smiles>  (8) 
Clc1ccn2c(C34CCC(CC3)C4)nnc2n1

>  <smiles>  (8) 
[H]c1c(Cl)nc2nnc(C34C([H])([H])C([H])([H])C([H])(C([H])([H])C3([H])[H])C4([H])[H])n2c1[H]

$$$$
3:0:2
     RDKit          3D

 30 33  0  0  1  0  0  0  0  0999 V2000
    3.5558   -4.3072    6.0030 Cl  0  0  0  0  0  0  0  0  0  0  0  0
    3.4741   -4.1782    4.2816 C   0  0  0  0  0  0  0  0  0  0  0  0
    4.3193   -3.2439    3.6531 C   0  0  0  0  0  0  0  0  0  0  0  0
    4.3445   -3.0675    2.2729 C   0  0  0  0  0  0  0  0  0  0  0  0
    3.4570   -3.8615    1.5607 N   0  0  0  0  0  0  0  0  0  0  0  0
    3.1417   -3.9788    0.2359 C   0  0  0  0  0  0  0  0  0  0  0  0
    3.7789   -3.2195   -0.9152 C   0  0  2  0  0  0  0  0  0  0  0  0
    2.8044   -2.9804   -2.1040 C   0  0  0  0  0  0  0  0  0  0  0  0
    3.4505   -1.8203   -2.8907 C   0  0  0  0  0  0  0  0  0  0  0  0
    4.6996   -1.5209   -2.0532 C   0  0  2  0  0  0  0  0  0  0  0  0
    5.7221   -2.6633   -2.2180 C   0  0  0  0  0  0  0  0  0  0  0  0
    5.0696   -3.8437   -1.4647 C   0  0  0  0  0  0  0  0  0  0  0  0
    4.2125   -1.7709   -0.6477 C   0  0  0  0  0  0  0  0  0  0  0  0
    2.2851   -4.9896    0.0991 N   0  0  0  0  0  0  0  0  0  0  0  0
    1.9219   -5.4665    1.3535 N   0  0  0  0  0  0  0  0  0  0  0  0
    2.6361   -4.7981    2.2666 C   0  0  0  0  0  0  0  0  0  0  0  0
    2.6239   -4.9752    3.6060 N   0  0  0  0  0  0  0  0  0  0  0  0
    4.9758   -2.6427    4.2687 H   0  0  0  0  0  0  0  0  0  0  0  0
    5.0255   -2.3552    1.8004 H   0  0  0  0  0  0  0  0  0  0  0  0
    2.6407   -3.8524   -2.7346 H   0  0  0  0  0  0  0  0  0  0  0  0
    1.8266   -2.6583   -1.7408 H   0  0  0  0  0  0  0  0  0  0  0  0
    3.7025   -2.0923   -3.9218 H   0  0  0  0  0  0  0  0  0  0  0  0
    2.7849   -0.9491   -2.9053 H   0  0  0  0  0  0  0  0  0  0  0  0
    5.1048   -0.5220   -2.1997 H   0  0  0  0  0  0  0  0  0  0  0  0
    5.9299   -2.8996   -3.2626 H   0  0  0  0  0  0  0  0  0  0  0  0
    6.6722   -2.4077   -1.7434 H   0  0  0  0  0  0  0  0  0  0  0  0
    5.7158   -4.1831   -0.6540 H   0  0  0  0  0  0  0  0  0  0  0  0
    4.8913   -4.6981   -2.1157 H   0  0  0  0  0  0  0  0  0  0  0  0
    3.3821   -1.1360   -0.3385 H   0  0  0  0  0  0  0  0  0  0  0  0
    5.0701   -1.6150   -0.0074 H   0  0  0  0  0  0  0  0  0  0  0  0
  1  2  1  0
  2 17  2  0
  2  3  1  0
  3  4  2  0
  3 18  1  0
  4  5  1  0
  4 19  1  0
  5 16  1  0
  5  6  1  0
  7  6  1  1
  6 14  2  0
  7 12  1  0
  7 13  1  0
  7  8  1  0
  8  9  1  0
  8 20  1  0
  8 21  1  0
  9 10  1  0
  9 22  1  0
  9 23  1  0
 10 11  1  0
 10 13  1  0
 10 24  1  1
 11 12  1  0
 11 25  1  0
 11 26  1  0
 12 27  1  0
 12 28  1  0
 13 29  1  0
 13 30  1  0
 14 15  1  0
 15 16  2  0
 16 17  1  0
M  END
>  <i_m_ct_stereo_status>  (9) 
1

>  <s_m_source_file>  (9) 
/var/tmp/pbs.5076255.sched01/tmpt68d_85j/0g9mu2vg5.sdf

>  <i_m_source_file_index>  (9) 
4

>  <i_lp_mmshare_version>  (9) 
48012

>  <i_f3d_flags>  (9) 
0

>  <s_epik_input>  (9) 
W2NIXTFbY0hdYyhDbCluYyhuMTIpbm5jMltDQEBdMzRbQ0gyXVtDSDJdW0NASF0oW0NIMl00KVtDSDJdW0NIMl0z

>  <s_epik_cmdline>  (9) 
J2VwaWtfcHl0aG9uJywgJy1waHQnLCAnMi4wJywgJy1waCcsICc3LjAnLCAnLXRuJywgJzgnLCAnLW1hJywgJzIwMCcsICctaW1hZScsICc8aW5maWxlLm1hZT4nLCAnLW9tYWUnLCAnPG91dGZpbGUubWFlPic=

>  <r_lp_tautomer_probability>  (9) 
1

>  <r_epik_Ionization_Penalty>  (9) 
5.12553e-07

>  <r_epik_Ionization_Penalty_Charging>  (9) 
0

>  <r_epik_Ionization_Penalty_Neutral>  (9) 
5.12553e-07

>  <r_epik_State_Penalty>  (9) 
-0

>  <r_epik_Charging_Adjusted_Penalty>  (9) 
0

>  <i_epik_Tot_Q>  (9) 
0

>  <i_epik_Tot_abs_Q>  (9) 
0

>  <s_lp_Force_Field>  (9) 
OPLS3e

>  <r_lp_Energy>  (9) 
46.5477

>  <b_lp_Chiralities_Consistent>  (9) 
1

>  <s_lp_Variant>  (9) 
3:0-1

>  <s_i_glide_gridfile>  (9) 
pfpi4k_grid

>  <i_i_glide_lignum>  (9) 
4

>  <i_i_glide_rotatable_bonds>  (9) 
1

>  <r_i_docking_score>  (9) 
-2.94261

>  <r_i_glide_ligand_efficiency>  (9) 
-0.173095

>  <r_i_glide_ligand_efficiency_sa>  (9) 
-0.445075

>  <r_i_glide_ligand_efficiency_ln>  (9) 
-0.767661

>  <r_i_glide_gscore>  (9) 
-2.94261

>  <r_i_glide_lipo>  (9) 
-0.0873857

>  <r_i_glide_hbond>  (9) 
0

>  <r_i_glide_metal>  (9) 
-0

>  <r_i_glide_rewards>  (9) 
-1.71913

>  <r_i_glide_evdw>  (9) 
-19.7854

>  <r_i_glide_ecoul>  (9) 
-1.88369

>  <r_i_glide_erotb>  (9) 
0.282491

>  <r_i_glide_esite>  (9) 
-0.146768

>  <r_i_glide_emodel>  (9) 
-25.7808

>  <r_i_glide_energy>  (9) 
-21.669

>  <r_i_glide_einternal>  (9) 
0.601905

>  <r_i_glide_intrahb_reward>  (9) 
-0

>  <i_i_glide_confnum>  (9) 
6

>  <i_i_glide_posenum>  (9) 
9

>  <r_i_glide_eff_state_penalty>  (9) 
0

>  <ligand_id>  (9) 
3

>  <original_smiles>  (9) 
Clc1ccn2c(C34CCC(CC3)C4)nnc2n1

>  <smiles>  (9) 
[H]c1c(Cl)nc2nnc(C34C([H])([H])C([H])([H])C([H])(C([H])([H])C3([H])[H])C4([H])[H])n2c1[H]

$$$$
4:0:0
     RDKit          3D

 41 46  0  0  1  0  0  0  0  0999 V2000
    7.4613   -3.7218    0.4412 C   0  0  0  0  0  0  0  0  0  0  0  0
    6.0659   -4.2277    0.4334 N   0  0  1  0  0  0  0  0  0  0  0  0
    5.2544   -4.1054    1.6714 C   0  0  1  0  0  0  0  0  0  0  0  0
    4.9237   -2.6831    2.1788 C   0  0  2  0  0  0  0  0  0  0  0  0
    3.6169   -2.8616    2.9617 C   0  0  0  0  0  0  0  0  0  0  0  0
    2.9182   -4.0825    2.3396 C   0  0  0  0  0  0  0  0  0  0  0  0
    3.8942   -4.6576    1.2938 C   0  0  1  0  0  0  0  0  0  0  0  0
    3.7391   -4.2356   -0.1913 C   0  0  1  0  0  0  0  0  0  0  0  0
    2.9279   -2.9582   -0.4954 C   0  0  2  0  0  0  0  0  0  0  0  0
    2.7875   -2.9121   -2.0458 C   0  0  0  0  0  0  0  0  0  0  0  0
    4.1901   -2.9601   -2.7403 C   0  0  1  0  0  0  0  0  0  0  0  0
    4.2255   -2.0084   -3.7975 O   0  0  0  0  0  0  0  0  0  0  0  0
    5.2977   -2.7312   -1.6537 C   0  0  1  0  0  0  0  0  0  0  0  0
    6.5828   -2.6561   -2.2421 O   0  0  0  0  0  0  0  0  0  0  0  0
    4.8876   -1.3995   -0.9426 C   0  0  2  0  0  0  0  0  0  0  0  0
    5.6301   -1.0324    0.3412 C   0  0  0  0  0  0  0  0  0  0  0  0
    4.7233   -1.7185    1.0322 C   0  0  0  0  0  0  0  0  0  0  0  0
    3.6644   -1.6734   -0.0619 C   0  0  2  0  0  0  0  0  0  0  0  0
    5.1818   -4.0517   -0.7582 C   0  0  1  0  0  0  0  0  0  0  0  0
    7.5485   -2.6415    0.4408 H   0  0  0  0  0  0  0  0  0  0  0  0
    8.0057   -4.0975   -0.4278 H   0  0  0  0  0  0  0  0  0  0  0  0
    7.9802   -4.0846    1.3308 H   0  0  0  0  0  0  0  0  0  0  0  0
    5.6942   -4.6944    2.4779 H   0  0  0  0  0  0  0  0  0  0  0  0
    5.7224   -2.2946    2.8130 H   0  0  0  0  0  0  0  0  0  0  0  0
    3.8321   -3.0660    4.0128 H   0  0  0  0  0  0  0  0  0  0  0  0
    2.9913   -1.9666    2.9201 H   0  0  0  0  0  0  0  0  0  0  0  0
    2.7444   -4.8197    3.1243 H   0  0  0  0  0  0  0  0  0  0  0  0
    1.9405   -3.8332    1.9319 H   0  0  0  0  0  0  0  0  0  0  0  0
    3.9071   -5.7466    1.3558 H   0  0  0  0  0  0  0  0  0  0  0  0
    3.2449   -5.0595   -0.7031 H   0  0  0  0  0  0  0  0  0  0  0  0
    1.9366   -3.0108   -0.0543 H   0  0  0  0  0  0  0  0  0  0  0  0
    2.1600   -3.7281   -2.4110 H   0  0  0  0  0  0  0  0  0  0  0  0
    2.2590   -1.9971   -2.3145 H   0  0  0  0  0  0  0  0  0  0  0  0
    4.3180   -3.9391   -3.2084 H   0  0  0  0  0  0  0  0  0  0  0  0
    3.9164   -1.1795   -3.4630 H   0  0  0  0  0  0  0  0  0  0  0  0
    6.7144   -3.3882   -2.8222 H   0  0  0  0  0  0  0  0  0  0  0  0
    4.7059   -0.5636   -1.6225 H   0  0  0  0  0  0  0  0  0  0  0  0
    6.6637   -0.7373    0.5039 H   0  0  0  0  0  0  0  0  0  0  0  0
    3.0122   -0.8022   -0.0219 H   0  0  0  0  0  0  0  0  0  0  0  0
    5.3944   -4.9106   -1.3968 H   0  0  0  0  0  0  0  0  0  0  0  0
    6.2049   -5.2264    0.4185 H   0  0  0  0  0  0  0  0  0  0  0  0
  1  2  1  0
  1 20  1  0
  1 21  1  0
  1 22  1  0
  2 19  1  0
  2  3  1  0
  2 41  1  6
  3  7  1  0
  3  4  1  0
  3 23  1  1
  4 17  1  0
  4  5  1  0
  4 24  1  1
  5  6  1  0
  5 25  1  0
  5 26  1  0
  6  7  1  0
  6 27  1  0
  6 28  1  0
  7  8  1  0
  7 29  1  6
  8 19  1  0
  8  9  1  0
  8 30  1  6
  9 18  1  0
  9 10  1  0
  9 31  1  1
 10 11  1  0
 10 32  1  0
 10 33  1  0
 11 12  1  0
 11 13  1  0
 11 34  1  6
 12 35  1  0
 13 14  1  6
 13 15  1  0
 13 19  1  0
 14 36  1  0
 15 18  1  0
 15 16  1  0
 15 37  1  6
 16 17  2  0
 16 38  1  0
 17 18  1  0
 18 39  1  1
 19 40  1  6
M  CHG  1   2   1
M  END
>  <i_m_ct_stereo_status>  (10) 
1

>  <s_m_source_file>  (10) 
/var/tmp/pbs.5076255.sched01/tmpt68d_85j/0g9mu2vg5.sdf

>  <i_m_source_file_index>  (10) 
5

>  <i_lp_mmshare_version>  (10) 
48012

>  <i_f3d_flags>  (10) 
0

>  <s_epik_input>  (10) 
W0NIMl0xW0NIMl1bQ0BIXShDMj1bQ0hdMylbQ0BIXShOKFtDSDNdKVtDQEBIXTQ1KVtDQEBIXTFbQ0BIXTRbQ0BIXShbQ0gyXVtDQEhdNltPSF0pW0NAQEhdMltDQEBIXTNbQ0BAXTU2W09IXQ==

>  <s_epik_cmdline>  (10) 
J2VwaWtfcHl0aG9uJywgJy1waHQnLCAnMi4wJywgJy1waCcsICc3LjAnLCAnLXRuJywgJzgnLCAnLW1hJywgJzIwMCcsICctaW1hZScsICc8aW5maWxlLm1hZT4nLCAnLW9tYWUnLCAnPG91dGZpbGUubWFlPic=

>  <r_epik_Ionization_Penalty>  (10) 
0.00167355

>  <r_epik_Ionization_Penalty_Charging>  (10) 
0.00167347

>  <r_epik_Ionization_Penalty_Neutral>  (10) 
7.35672e-08

>  <r_epik_State_Penalty>  (10) 
0.00112945

>  <r_epik_Charging_Adjusted_Penalty>  (10) 
0.00280292

>  <i_epik_Tot_Q>  (10) 
1

>  <i_epik_Tot_abs_Q>  (10) 
1

>  <s_lp_Force_Field>  (10) 
OPLS3e

>  <r_lp_Energy>  (10) 
75.3365

>  <b_lp_Chiralities_Consistent>  (10) 
1

>  <s_lp_Variant>  (10) 
4:0-1

>  <s_i_glide_gridfile>  (10) 
pfpi4k_grid

>  <i_i_glide_lignum>  (10) 
5

>  <i_i_glide_rotatable_bonds>  (10) 
2

>  <r_i_docking_score>  (10) 
-4.07177

>  <r_i_glide_ligand_efficiency>  (10) 
-0.214304

>  <r_i_glide_ligand_efficiency_sa>  (10) 
-0.571848

>  <r_i_glide_ligand_efficiency_ln>  (10) 
-1.03228

>  <r_i_glide_gscore>  (10) 
-4.07177

>  <r_i_glide_lipo>  (10) 
-0.446747

>  <r_i_glide_hbond>  (10) 
0

>  <r_i_glide_metal>  (10) 
-0

>  <r_i_glide_rewards>  (10) 
-1.63397

>  <r_i_glide_evdw>  (10) 
-18.9466

>  <r_i_glide_ecoul>  (10) 
-6.95813

>  <r_i_glide_erotb>  (10) 
0

>  <r_i_glide_esite>  (10) 
0

>  <r_i_glide_emodel>  (10) 
-32.4352

>  <r_i_glide_energy>  (10) 
-25.9048

>  <r_i_glide_einternal>  (10) 
0.178814

>  <r_i_glide_intrahb_reward>  (10) 
-0

>  <i_i_glide_confnum>  (10) 
1

>  <i_i_glide_posenum>  (10) 
35

>  <r_i_glide_eff_state_penalty>  (10) 
0

>  <ligand_id>  (10) 
4

>  <original_smiles>  (10) 
CN1C2C3CCC2C2C4CC(O)C(O)(C5C=C3C45)C21

>  <smiles>  (10) 
[H]OC1([H])C([H])([H])C2([H])C3([H])C4=C([H])C3([H])C1(O[H])C1([H])C2([H])C2([H])C([H])([H])C([H])([H])C4([H])C2([H])[N+]1([H])C([H])([H])[H]

$$$$
4:0:1
     RDKit          3D

 41 46  0  0  1  0  0  0  0  0999 V2000
    7.2043   -2.1686    0.5281 C   0  0  0  0  0  0  0  0  0  0  0  0
    6.4335   -3.3064   -0.0229 N   0  0  1  0  0  0  0  0  0  0  0  0
    5.8873   -4.3184    0.9173 C   0  0  1  0  0  0  0  0  0  0  0  0
    4.8199   -3.8605    1.9358 C   0  0  2  0  0  0  0  0  0  0  0  0
    4.0112   -5.1319    2.2249 C   0  0  0  0  0  0  0  0  0  0  0  0
    4.1392   -6.0080    0.9680 C   0  0  0  0  0  0  0  0  0  0  0  0
    5.1205   -5.2774    0.0335 C   0  0  1  0  0  0  0  0  0  0  0  0
    4.5598   -4.3634   -1.0823 C   0  0  1  0  0  0  0  0  0  0  0  0
    3.0951   -3.8718   -0.9388 C   0  0  2  0  0  0  0  0  0  0  0  0
    2.7632   -3.1520   -2.2797 C   0  0  0  0  0  0  0  0  0  0  0  0
    3.7989   -2.0198   -2.5702 C   0  0  1  0  0  0  0  0  0  0  0  0
    3.1333   -0.8480   -3.0148 O   0  0  0  0  0  0  0  0  0  0  0  0
    4.6406   -1.7779   -1.2846 C   0  0  1  0  0  0  0  0  0  0  0  0
    5.4795   -0.6824   -1.4895 O   0  0  0  0  0  0  0  0  0  0  0  0
    3.6132   -1.5128   -0.1500 C   0  0  2  0  0  0  0  0  0  0  0  0
    4.1270   -1.4802    1.2808 C   0  0  0  0  0  0  0  0  0  0  0  0
    3.9216   -2.7936    1.3584 C   0  0  0  0  0  0  0  0  0  0  0  0
    2.9336   -2.8332    0.1986 C   0  0  2  0  0  0  0  0  0  0  0  0
    5.4925   -3.1179   -1.1586 C   0  0  1  0  0  0  0  0  0  0  0  0
    6.6198   -1.4255    1.0553 H   0  0  0  0  0  0  0  0  0  0  0  0
    7.7632   -1.6671   -0.2615 H   0  0  0  0  0  0  0  0  0  0  0  0
    7.9223   -2.5805    1.2288 H   0  0  0  0  0  0  0  0  0  0  0  0
    6.6953   -4.8396    1.4339 H   0  0  0  0  0  0  0  0  0  0  0  0
    5.2845   -3.4600    2.8371 H   0  0  0  0  0  0  0  0  0  0  0  0
    4.4425   -5.6632    3.0760 H   0  0  0  0  0  0  0  0  0  0  0  0
    2.9687   -4.9054    2.4603 H   0  0  0  0  0  0  0  0  0  0  0  0
    4.5607   -6.9721    1.2574 H   0  0  0  0  0  0  0  0  0  0  0  0
    3.1785   -6.2208    0.5011 H   0  0  0  0  0  0  0  0  0  0  0  0
    5.8137   -5.9971   -0.3916 H   0  0  0  0  0  0  0  0  0  0  0  0
    4.6526   -4.9144   -2.0170 H   0  0  0  0  0  0  0  0  0  0  0  0
    2.4036   -4.6971   -0.7993 H   0  0  0  0  0  0  0  0  0  0  0  0
    2.7410   -3.8546   -3.1128 H   0  0  0  0  0  0  0  0  0  0  0  0
    1.7564   -2.7421   -2.2163 H   0  0  0  0  0  0  0  0  0  0  0  0
    4.4493   -2.3334   -3.3904 H   0  0  0  0  0  0  0  0  0  0  0  0
    2.4310   -0.6492   -2.4080 H   0  0  0  0  0  0  0  0  0  0  0  0
    4.9485    0.1046   -1.4723 H   0  0  0  0  0  0  0  0  0  0  0  0
    2.8961   -0.7248   -0.3795 H   0  0  0  0  0  0  0  0  0  0  0  0
    4.7743   -0.7637    1.7803 H   0  0  0  0  0  0  0  0  0  0  0  0
    1.8941   -2.6663    0.4790 H   0  0  0  0  0  0  0  0  0  0  0  0
    6.1110   -3.2073   -2.0546 H   0  0  0  0  0  0  0  0  0  0  0  0
    7.1537   -3.8481   -0.4672 H   0  0  0  0  0  0  0  0  0  0  0  0
  1  2  1  0
  1 20  1  0
  1 21  1  0
  1 22  1  0
  2 19  1  0
  2  3  1  0
  2 41  1  6
  3  7  1  0
  3  4  1  0
  3 23  1  1
  4 17  1  0
  4  5  1  0
  4 24  1  1
  5  6  1  0
  5 25  1  0
  5 26  1  0
  6  7  1  0
  6 27  1  0
  6 28  1  0
  7  8  1  0
  7 29  1  6
  8 19  1  0
  8  9  1  0
  8 30  1  6
  9 18  1  0
  9 10  1  0
  9 31  1  1
 10 11  1  0
 10 32  1  0
 10 33  1  0
 11 12  1  0
 11 13  1  0
 11 34  1  6
 12 35  1  0
 13 14  1  6
 13 15  1  0
 13 19  1  0
 14 36  1  0
 15 18  1  0
 15 16  1  0
 15 37  1  6
 16 17  2  0
 16 38  1  0
 17 18  1  0
 18 39  1  1
 19 40  1  6
M  CHG  1   2   1
M  END
>  <i_m_ct_stereo_status>  (11) 
1

>  <s_m_source_file>  (11) 
/var/tmp/pbs.5076255.sched01/tmpt68d_85j/0g9mu2vg5.sdf

>  <i_m_source_file_index>  (11) 
5

>  <i_lp_mmshare_version>  (11) 
48012

>  <i_f3d_flags>  (11) 
0

>  <s_epik_input>  (11) 
W0NIMl0xW0NIMl1bQ0BIXShDMj1bQ0hdMylbQ0BIXShOKFtDSDNdKVtDQEBIXTQ1KVtDQEBIXTFbQ0BIXTRbQ0BIXShbQ0gyXVtDQEhdNltPSF0pW0NAQEhdMltDQEBIXTNbQ0BAXTU2W09IXQ==

>  <s_epik_cmdline>  (11) 
J2VwaWtfcHl0aG9uJywgJy1waHQnLCAnMi4wJywgJy1waCcsICc3LjAnLCAnLXRuJywgJzgnLCAnLW1hJywgJzIwMCcsICctaW1hZScsICc8aW5maWxlLm1hZT4nLCAnLW9tYWUnLCAnPG91dGZpbGUubWFlPic=

>  <r_epik_Ionization_Penalty>  (11) 
0.00167355

>  <r_epik_Ionization_Penalty_Charging>  (11) 
0.00167347

>  <r_epik_Ionization_Penalty_Neutral>  (11) 
7.35672e-08

>  <r_epik_State_Penalty>  (11) 
0.00112945

>  <r_epik_Charging_Adjusted_Penalty>  (11) 
0.00280292

>  <i_epik_Tot_Q>  (11) 
1

>  <i_epik_Tot_abs_Q>  (11) 
1

>  <s_lp_Force_Field>  (11) 
OPLS3e

>  <r_lp_Energy>  (11) 
75.3365

>  <b_lp_Chiralities_Consistent>  (11) 
1

>  <s_lp_Variant>  (11) 
4:0-1

>  <s_i_glide_gridfile>  (11) 
pfpi4k_grid

>  <i_i_glide_lignum>  (11) 
5

>  <i_i_glide_rotatable_bonds>  (11) 
2

>  <r_i_docking_score>  (11) 
-3.52182

>  <r_i_glide_ligand_efficiency>  (11) 
-0.185359

>  <r_i_glide_ligand_efficiency_sa>  (11) 
-0.494612

>  <r_i_glide_ligand_efficiency_ln>  (11) 
-0.892857

>  <r_i_glide_gscore>  (11) 
-3.52182

>  <r_i_glide_lipo>  (11) 
-0.351641

>  <r_i_glide_hbond>  (11) 
0

>  <r_i_glide_metal>  (11) 
-0

>  <r_i_glide_rewards>  (11) 
-1.63397

>  <r_i_glide_evdw>  (11) 
-13.6454

>  <r_i_glide_ecoul>  (11) 
-5.69296

>  <r_i_glide_erotb>  (11) 
0

>  <r_i_glide_esite>  (11) 
0

>  <r_i_glide_emodel>  (11) 
-24.8959

>  <r_i_glide_energy>  (11) 
-19.3383

>  <r_i_glide_einternal>  (11) 
0.240507

>  <r_i_glide_intrahb_reward>  (11) 
-0

>  <i_i_glide_confnum>  (11) 
2

>  <i_i_glide_posenum>  (11) 
10

>  <r_i_glide_eff_state_penalty>  (11) 
0

>  <ligand_id>  (11) 
4

>  <original_smiles>  (11) 
CN1C2C3CCC2C2C4CC(O)C(O)(C5C=C3C45)C21

>  <smiles>  (11) 
[H]OC1([H])C([H])([H])C2([H])C3([H])C4=C([H])C3([H])C1(O[H])C1([H])C2([H])C2([H])C([H])([H])C([H])([H])C4([H])C2([H])[N+]1([H])C([H])([H])[H]

$$$$
4:0:2
     RDKit          3D

 41 46  0  0  1  0  0  0  0  0999 V2000
    5.7084   -0.6079    0.9203 C   0  0  0  0  0  0  0  0  0  0  0  0
    6.2319   -1.8279    0.2556 N   0  0  1  0  0  0  0  0  0  0  0  0
    6.3022   -3.0907    1.0320 C   0  0  1  0  0  0  0  0  0  0  0  0
    4.9760   -3.7085    1.5192 C   0  0  2  0  0  0  0  0  0  0  0  0
    5.2917   -5.1989    1.6409 C   0  0  0  0  0  0  0  0  0  0  0  0
    6.4197   -5.4706    0.6415 C   0  0  0  0  0  0  0  0  0  0  0  0
    6.8276   -4.1118    0.0459 C   0  0  1  0  0  0  0  0  0  0  0  0
    6.2033   -3.6642   -1.3011 C   0  0  1  0  0  0  0  0  0  0  0  0
    4.9006   -4.3631   -1.7620 C   0  0  2  0  0  0  0  0  0  0  0  0
    4.6477   -3.8382   -3.2102 C   0  0  0  0  0  0  0  0  0  0  0  0
    4.5446   -2.2989   -3.2261 C   0  0  1  0  0  0  0  0  0  0  0  0
    3.4725   -1.8608   -4.0412 O   0  0  0  0  0  0  0  0  0  0  0  0
    4.4759   -1.7789   -1.7737 C   0  0  1  0  0  0  0  0  0  0  0  0
    4.3444   -0.4003   -1.8709 O   0  0  0  0  0  0  0  0  0  0  0  0
    3.2594   -2.5301   -1.1362 C   0  0  2  0  0  0  0  0  0  0  0  0
    3.0684   -2.4214    0.3711 C   0  0  0  0  0  0  0  0  0  0  0  0
    3.8647   -3.4755    0.5263 C   0  0  0  0  0  0  0  0  0  0  0  0
    3.6821   -3.9761   -0.8961 C   0  0  2  0  0  0  0  0  0  0  0  0
    5.8989   -2.1451   -1.1691 C   0  0  1  0  0  0  0  0  0  0  0  0
    4.6348   -0.5958    1.0769 H   0  0  0  0  0  0  0  0  0  0  0  0
    5.9709    0.2725    0.3359 H   0  0  0  0  0  0  0  0  0  0  0  0
    6.1862   -0.4879    1.8959 H   0  0  0  0  0  0  0  0  0  0  0  0
    7.0001   -2.9820    1.8605 H   0  0  0  0  0  0  0  0  0  0  0  0
    4.6714   -3.2740    2.4680 H   0  0  0  0  0  0  0  0  0  0  0  0
    5.6368   -5.4293    2.6483 H   0  0  0  0  0  0  0  0  0  0  0  0
    4.4128   -5.8094    1.4397 H   0  0  0  0  0  0  0  0  0  0  0  0
    7.2615   -5.9063    1.1744 H   0  0  0  0  0  0  0  0  0  0  0  0
    6.1170   -6.1981   -0.1012 H   0  0  0  0  0  0  0  0  0  0  0  0
    7.9167   -4.0400   -0.0219 H   0  0  0  0  0  0  0  0  0  0  0  0
    6.9626   -3.7967   -2.0745 H   0  0  0  0  0  0  0  0  0  0  0  0
    5.0121   -5.4401   -1.7920 H   0  0  0  0  0  0  0  0  0  0  0  0
    5.4138   -4.1789   -3.9056 H   0  0  0  0  0  0  0  0  0  0  0  0
    3.7020   -4.2234   -3.5823 H   0  0  0  0  0  0  0  0  0  0  0  0
    5.4164   -1.8925   -3.7125 H   0  0  0  0  0  0  0  0  0  0  0  0
    2.6488   -2.1308   -3.6498 H   0  0  0  0  0  0  0  0  0  0  0  0
    3.4396   -0.2302   -2.0813 H   0  0  0  0  0  0  0  0  0  0  0  0
    2.3421   -2.4850   -1.7235 H   0  0  0  0  0  0  0  0  0  0  0  0
    2.7841   -1.5677    0.9767 H   0  0  0  0  0  0  0  0  0  0  0  0
    2.8342   -4.6473   -1.0358 H   0  0  0  0  0  0  0  0  0  0  0  0
    6.6295   -1.6099   -1.7709 H   0  0  0  0  0  0  0  0  0  0  0  0
    7.2144   -1.6228    0.1998 H   0  0  0  0  0  0  0  0  0  0  0  0
  1  2  1  0
  1 20  1  0
  1 21  1  0
  1 22  1  0
  2 19  1  0
  2  3  1  0
  2 41  1  6
  3  7  1  0
  3  4  1  0
  3 23  1  1
  4 17  1  0
  4  5  1  0
  4 24  1  1
  5  6  1  0
  5 25  1  0
  5 26  1  0
  6  7  1  0
  6 27  1  0
  6 28  1  0
  7  8  1  0
  7 29  1  6
  8 19  1  0
  8  9  1  0
  8 30  1  6
  9 18  1  0
  9 10  1  0
  9 31  1  6
 10 11  1  0
 10 32  1  0
 10 33  1  0
 11 12  1  0
 11 13  1  0
 11 34  1  6
 12 35  1  0
 13 14  1  6
 13 15  1  0
 13 19  1  0
 14 36  1  0
 15 18  1  0
 15 16  1  0
 15 37  1  6
 16 17  2  0
 16 38  1  0
 17 18  1  0
 18 39  1  1
 19 40  1  6
M  CHG  1   2   1
M  END
>  <i_m_ct_stereo_status>  (12) 
1

>  <s_m_source_file>  (12) 
/var/tmp/pbs.5076255.sched01/tmpt68d_85j/0g9mu2vg5.sdf

>  <i_m_source_file_index>  (12) 
5

>  <i_lp_mmshare_version>  (12) 
48012

>  <i_f3d_flags>  (12) 
0

>  <s_epik_input>  (12) 
W0NIMl0xW0NIMl1bQ0BIXShDMj1bQ0hdMylbQ0BIXShOKFtDSDNdKVtDQEBIXTQ1KVtDQEBIXTFbQ0BIXTRbQ0BIXShbQ0gyXVtDQEhdNltPSF0pW0NAQEhdMltDQEBIXTNbQ0BAXTU2W09IXQ==

>  <s_epik_cmdline>  (12) 
J2VwaWtfcHl0aG9uJywgJy1waHQnLCAnMi4wJywgJy1waCcsICc3LjAnLCAnLXRuJywgJzgnLCAnLW1hJywgJzIwMCcsICctaW1hZScsICc8aW5maWxlLm1hZT4nLCAnLW9tYWUnLCAnPG91dGZpbGUubWFlPic=

>  <r_epik_Ionization_Penalty>  (12) 
0.00167355

>  <r_epik_Ionization_Penalty_Charging>  (12) 
0.00167347

>  <r_epik_Ionization_Penalty_Neutral>  (12) 
7.35672e-08

>  <r_epik_State_Penalty>  (12) 
0.00112945

>  <r_epik_Charging_Adjusted_Penalty>  (12) 
0.00280292

>  <i_epik_Tot_Q>  (12) 
1

>  <i_epik_Tot_abs_Q>  (12) 
1

>  <s_lp_Force_Field>  (12) 
OPLS3e

>  <r_lp_Energy>  (12) 
75.3365

>  <b_lp_Chiralities_Consistent>  (12) 
1

>  <s_lp_Variant>  (12) 
4:0-1

>  <s_i_glide_gridfile>  (12) 
pfpi4k_grid

>  <i_i_glide_lignum>  (12) 
5

>  <i_i_glide_rotatable_bonds>  (12) 
2

>  <r_i_docking_score>  (12) 
-3.4159

>  <r_i_glide_ligand_efficiency>  (12) 
-0.179784

>  <r_i_glide_ligand_efficiency_sa>  (12) 
-0.479736

>  <r_i_glide_ligand_efficiency_ln>  (12) 
-0.866003

>  <r_i_glide_gscore>  (12) 
-3.4159

>  <r_i_glide_lipo>  (12) 
-0.679911

>  <r_i_glide_hbond>  (12) 
0

>  <r_i_glide_metal>  (12) 
-0

>  <r_i_glide_rewards>  (12) 
-1.63397

>  <r_i_glide_evdw>  (12) 
-13.4143

>  <r_i_glide_ecoul>  (12) 
-2.87536

>  <r_i_glide_erotb>  (12) 
0

>  <r_i_glide_esite>  (12) 
0

>  <r_i_glide_emodel>  (12) 
-21.57

>  <r_i_glide_energy>  (12) 
-16.2896

>  <r_i_glide_einternal>  (12) 
0.152639

>  <r_i_glide_intrahb_reward>  (12) 
-0

>  <i_i_glide_confnum>  (12) 
1

>  <i_i_glide_posenum>  (12) 
4

>  <r_i_glide_eff_state_penalty>  (12) 
0

>  <ligand_id>  (12) 
4

>  <original_smiles>  (12) 
CN1C2C3CCC2C2C4CC(O)C(O)(C5C=C3C45)C21

>  <smiles>  (12) 
[H]OC1([H])C([H])([H])C2([H])C3([H])C4=C([H])C3([H])C1(O[H])C1([H])C2([H])C2([H])C([H])([H])C([H])([H])C4([H])C2([H])[N+]1([H])C([H])([H])[H]

$$$$
5:0:0
     RDKit          3D

 33 34  0  0  1  0  0  0  0  0999 V2000
    2.9688    0.0927   -5.0755 C   0  0  0  0  0  0  0  0  0  0  0  0
    3.6666   -0.7707   -4.0319 C   0  0  0  0  0  0  0  0  0  0  0  0
    4.2105   -0.2077   -2.8637 C   0  0  0  0  0  0  0  0  0  0  0  0
    4.8625   -1.0001   -1.8955 C   0  0  0  0  0  0  0  0  0  0  0  0
    4.9912   -2.3867   -2.0859 C   0  0  0  0  0  0  0  0  0  0  0  0
    5.7219   -3.1657   -1.0461 C   0  0  0  0  0  0  0  0  0  0  0  0
    6.7221   -2.6871   -0.5089 O   0  0  0  0  0  0  0  0  0  0  0  0
    5.1889   -4.4897   -0.6570 C   0  0  0  0  0  0  0  0  0  0  0  0
    4.4822   -4.6456    0.4806 C   0  0  0  0  0  0  0  0  0  0  0  0
    3.9250   -5.9220    1.0082 C   0  0  0  0  0  0  0  0  0  0  0  0
    4.5164   -7.1681    0.6898 C   0  0  0  0  0  0  0  0  0  0  0  0
    3.9783   -8.3854    1.1719 C   0  0  0  0  0  0  0  0  0  0  0  0
    2.8116   -8.3724    1.9559 C   0  0  0  0  0  0  0  0  0  0  0  0
    2.2005   -7.1425    2.2668 C   0  0  0  0  0  0  0  0  0  0  0  0
    2.7494   -5.9318    1.7969 C   0  0  0  0  0  0  0  0  0  0  0  0
    2.1200   -4.7612    2.1191 O   0  0  0  0  0  0  0  0  0  0  0  0
    4.4477   -2.9533   -3.2630 C   0  0  0  0  0  0  0  0  0  0  0  0
    4.6163   -4.2605   -3.5791 O   0  0  0  0  0  0  0  0  0  0  0  0
    3.7821   -2.1545   -4.2084 C   0  0  0  0  0  0  0  0  0  0  0  0
    2.9474    1.1410   -4.7903 H   0  0  0  0  0  0  0  0  0  0  0  0
    1.9406   -0.2361   -5.1859 H   0  0  0  0  0  0  0  0  0  0  0  0
    3.4564    0.0199   -6.0430 H   0  0  0  0  0  0  0  0  0  0  0  0
    4.1475    0.8622   -2.7250 H   0  0  0  0  0  0  0  0  0  0  0  0
    5.2937   -0.5444   -1.0085 H   0  0  0  0  0  0  0  0  0  0  0  0
    5.3682   -5.3256   -1.3152 H   0  0  0  0  0  0  0  0  0  0  0  0
    4.3271   -3.7655    1.0873 H   0  0  0  0  0  0  0  0  0  0  0  0
    5.4119   -7.1790    0.0875 H   0  0  0  0  0  0  0  0  0  0  0  0
    4.4446   -9.3346    0.9266 H   0  0  0  0  0  0  0  0  0  0  0  0
    2.3851   -9.3014    2.3171 H   0  0  0  0  0  0  0  0  0  0  0  0
    1.3001   -7.1285    2.8686 H   0  0  0  0  0  0  0  0  0  0  0  0
    2.5990   -3.9940    1.8364 H   0  0  0  0  0  0  0  0  0  0  0  0
    4.0132   -4.8476   -3.1191 H   0  0  0  0  0  0  0  0  0  0  0  0
    3.3706   -2.6086   -5.0923 H   0  0  0  0  0  0  0  0  0  0  0  0
  1  2  1  0
  1 20  1  0
  1 21  1  0
  1 22  1  0
  2 19  2  0
  2  3  1  0
  3  4  2  0
  3 23  1  0
  4  5  1  0
  4 24  1  0
  5  6  1  0
  5 17  2  0
  6  7  2  0
  6  8  1  0
  8  9  2  3
  8 25  1  0
  9 10  1  0
  9 26  1  0
 10 15  1  0
 10 11  2  0
 11 12  1  0
 11 27  1  0
 12 13  2  0
 12 28  1  0
 13 14  1  0
 13 29  1  0
 14 15  2  0
 14 30  1  0
 15 16  1  0
 16 31  1  0
 17 18  1  0
 17 19  1  0
 18 32  1  0
 19 33  1  0
M  END
>  <i_m_ct_stereo_status>  (13) 
1

>  <s_m_source_file>  (13) 
/var/tmp/pbs.5076255.sched01/tmpt68d_85j/0g9mu2vg5.sdf

>  <i_m_source_file_index>  (13) 
6

>  <i_lp_mmshare_version>  (13) 
48012

>  <i_f3d_flags>  (13) 
0

>  <s_epik_input>  (13) 
W0NIM11jMVtjSF1bY0hdYyhjKFtPSF0pW2NIXTEpQyg9TykvW0NIXT1bQ0hdL2MyW2NIXVtjSF1bY0hdW2NIXWMyW09IXQ==

>  <s_epik_cmdline>  (13) 
J2VwaWtfcHl0aG9uJywgJy1waHQnLCAnMi4wJywgJy1waCcsICc3LjAnLCAnLXRuJywgJzgnLCAnLW1hJywgJzIwMCcsICctaW1hZScsICc8aW5maWxlLm1hZT4nLCAnLW9tYWUnLCAnPG91dGZpbGUubWFlPic=

>  <r_epik_Ionization_Penalty>  (13) 
0.0397064

>  <r_epik_Ionization_Penalty_Charging>  (13) 
0

>  <r_epik_Ionization_Penalty_Neutral>  (13) 
0.0397064

>  <r_epik_State_Penalty>  (13) 
0.0312789

>  <r_epik_Charging_Adjusted_Penalty>  (13) 
0.0312789

>  <i_epik_Tot_Q>  (13) 
0

>  <i_epik_Tot_abs_Q>  (13) 
0

>  <s_lp_Force_Field>  (13) 
OPLS3e

>  <r_lp_Energy>  (13) 
27.4278

>  <b_lp_Chiralities_Consistent>  (13) 
1

>  <s_lp_Variant>  (13) 
5:0-1

>  <s_i_glide_gridfile>  (13) 
pfpi4k_grid

>  <i_i_glide_lignum>  (13) 
6

>  <i_i_glide_rotatable_bonds>  (13) 
5

>  <r_i_docking_score>  (13) 
-4.43799

>  <r_i_glide_ligand_efficiency>  (13) 
-0.233578

>  <r_i_glide_ligand_efficiency_sa>  (13) 
-0.62328

>  <r_i_glide_ligand_efficiency_ln>  (13) 
-1.12512

>  <r_i_glide_gscore>  (13) 
-4.43799

>  <r_i_glide_lipo>  (13) 
-0.885316

>  <r_i_glide_hbond>  (13) 
-0.32

>  <r_i_glide_metal>  (13) 
-0

>  <r_i_glide_rewards>  (13) 
-1.76725

>  <r_i_glide_evdw>  (13) 
-24.3785

>  <r_i_glide_ecoul>  (13) 
-7.08249

>  <r_i_glide_erotb>  (13) 
0.815881

>  <r_i_glide_esite>  (13) 
0

>  <r_i_glide_emodel>  (13) 
-33.1405

>  <r_i_glide_energy>  (13) 
-31.461

>  <r_i_glide_einternal>  (13) 
14.5559

>  <r_i_glide_intrahb_reward>  (13) 
-0

>  <i_i_glide_confnum>  (13) 
2

>  <i_i_glide_posenum>  (13) 
2

>  <r_i_glide_eff_state_penalty>  (13) 
0

>  <ligand_id>  (13) 
5

>  <original_smiles>  (13) 
Cc1ccc(C(=O)C=Cc2ccccc2O)c(O)c1

>  <smiles>  (13) 
[H]Oc1c([H])c([H])c([H])c([H])c1C([H])=C([H])C(=O)c1c([H])c([H])c(C([H])([H])[H])c([H])c1O[H]

$$$$
5:0:1
     RDKit          3D

 33 34  0  0  1  0  0  0  0  0999 V2000
    3.4104   -0.3748   -4.0030 C   0  0  0  0  0  0  0  0  0  0  0  0
    3.7461   -1.4477   -2.9832 C   0  0  0  0  0  0  0  0  0  0  0  0
    2.8479   -2.4914   -2.6919 C   0  0  0  0  0  0  0  0  0  0  0  0
    3.1768   -3.4524   -1.7146 C   0  0  0  0  0  0  0  0  0  0  0  0
    4.4298   -3.4384   -1.0475 C   0  0  0  0  0  0  0  0  0  0  0  0
    4.7893   -4.5144   -0.0564 C   0  0  0  0  0  0  0  0  0  0  0  0
    5.9624   -4.6740    0.2924 O   0  0  0  0  0  0  0  0  0  0  0  0
    3.7082   -5.3570    0.5210 C   0  0  0  0  0  0  0  0  0  0  0  0
    3.9698   -6.5830    1.0272 C   0  0  0  0  0  0  0  0  0  0  0  0
    3.0084   -7.5071    1.6786 C   0  0  0  0  0  0  0  0  0  0  0  0
    1.8350   -7.0150    2.3078 C   0  0  0  0  0  0  0  0  0  0  0  0
    0.9045   -7.9036    2.8991 C   0  0  0  0  0  0  0  0  0  0  0  0
    1.1260   -9.2933    2.8551 C   0  0  0  0  0  0  0  0  0  0  0  0
    2.2809   -9.7942    2.2228 C   0  0  0  0  0  0  0  0  0  0  0  0
    3.2087   -8.9132    1.6287 C   0  0  0  0  0  0  0  0  0  0  0  0
    4.2831   -9.4555    0.9757 O   0  0  0  0  0  0  0  0  0  0  0  0
    5.3300   -2.3748   -1.3503 C   0  0  0  0  0  0  0  0  0  0  0  0
    6.5587   -2.2414   -0.7562 O   0  0  0  0  0  0  0  0  0  0  0  0
    4.9705   -1.3903   -2.2943 C   0  0  0  0  0  0  0  0  0  0  0  0
    2.4232   -0.5276   -4.4334 H   0  0  0  0  0  0  0  0  0  0  0  0
    4.1387   -0.3604   -4.8137 H   0  0  0  0  0  0  0  0  0  0  0  0
    3.4149    0.6025   -3.5261 H   0  0  0  0  0  0  0  0  0  0  0  0
    1.8972   -2.5390   -3.2066 H   0  0  0  0  0  0  0  0  0  0  0  0
    2.4696   -4.2497   -1.5229 H   0  0  0  0  0  0  0  0  0  0  0  0
    2.7006   -4.9703    0.5215 H   0  0  0  0  0  0  0  0  0  0  0  0
    4.9889   -6.9444    1.0002 H   0  0  0  0  0  0  0  0  0  0  0  0
    1.6611   -5.9494    2.3656 H   0  0  0  0  0  0  0  0  0  0  0  0
    0.0244   -7.5223    3.3978 H   0  0  0  0  0  0  0  0  0  0  0  0
    0.4172   -9.9753    3.3022 H   0  0  0  0  0  0  0  0  0  0  0  0
    2.4492  -10.8607    2.1746 H   0  0  0  0  0  0  0  0  0  0  0  0
    4.2224  -10.4072    0.8777 H   0  0  0  0  0  0  0  0  0  0  0  0
    6.7219   -2.9590   -0.1550 H   0  0  0  0  0  0  0  0  0  0  0  0
    5.6439   -0.5732   -2.4760 H   0  0  0  0  0  0  0  0  0  0  0  0
  1  2  1  0
  1 20  1  0
  1 21  1  0
  1 22  1  0
  2 19  2  0
  2  3  1  0
  3  4  2  0
  3 23  1  0
  4  5  1  0
  4 24  1  0
  5  6  1  0
  5 17  2  0
  6  7  2  0
  6  8  1  0
  8  9  2  3
  8 25  1  0
  9 10  1  0
  9 26  1  0
 10 15  1  0
 10 11  2  0
 11 12  1  0
 11 27  1  0
 12 13  2  0
 12 28  1  0
 13 14  1  0
 13 29  1  0
 14 15  2  0
 14 30  1  0
 15 16  1  0
 16 31  1  0
 17 18  1  0
 17 19  1  0
 18 32  1  0
 19 33  1  0
M  END
>  <i_m_ct_stereo_status>  (14) 
1

>  <s_m_source_file>  (14) 
/var/tmp/pbs.5076255.sched01/tmpt68d_85j/0g9mu2vg5.sdf

>  <i_m_source_file_index>  (14) 
6

>  <i_lp_mmshare_version>  (14) 
48012

>  <i_f3d_flags>  (14) 
0

>  <s_epik_input>  (14) 
W0NIM11jMVtjSF1bY0hdYyhjKFtPSF0pW2NIXTEpQyg9TykvW0NIXT1bQ0hdL2MyW2NIXVtjSF1bY0hdW2NIXWMyW09IXQ==

>  <s_epik_cmdline>  (14) 
J2VwaWtfcHl0aG9uJywgJy1waHQnLCAnMi4wJywgJy1waCcsICc3LjAnLCAnLXRuJywgJzgnLCAnLW1hJywgJzIwMCcsICctaW1hZScsICc8aW5maWxlLm1hZT4nLCAnLW9tYWUnLCAnPG91dGZpbGUubWFlPic=

>  <r_epik_Ionization_Penalty>  (14) 
0.0397064

>  <r_epik_Ionization_Penalty_Charging>  (14) 
0

>  <r_epik_Ionization_Penalty_Neutral>  (14) 
0.0397064

>  <r_epik_State_Penalty>  (14) 
0.0312789

>  <r_epik_Charging_Adjusted_Penalty>  (14) 
0.0312789

>  <i_epik_Tot_Q>  (14) 
0

>  <i_epik_Tot_abs_Q>  (14) 
0

>  <s_lp_Force_Field>  (14) 
OPLS3e

>  <r_lp_Energy>  (14) 
27.4278

>  <b_lp_Chiralities_Consistent>  (14) 
1

>  <s_lp_Variant>  (14) 
5:0-1

>  <s_i_glide_gridfile>  (14) 
pfpi4k_grid

>  <i_i_glide_lignum>  (14) 
6

>  <i_i_glide_rotatable_bonds>  (14) 
5

>  <r_i_docking_score>  (14) 
-4.32887

>  <r_i_glide_ligand_efficiency>  (14) 
-0.227835

>  <r_i_glide_ligand_efficiency_sa>  (14) 
-0.607956

>  <r_i_glide_ligand_efficiency_ln>  (14) 
-1.09746

>  <r_i_glide_gscore>  (14) 
-4.32887

>  <r_i_glide_lipo>  (14) 
-0.554343

>  <r_i_glide_hbond>  (14) 
-0.16

>  <r_i_glide_metal>  (14) 
-0

>  <r_i_glide_rewards>  (14) 
-2.20931

>  <r_i_glide_evdw>  (14) 
-25.1348

>  <r_i_glide_ecoul>  (14) 
-6.42901

>  <r_i_glide_erotb>  (14) 
0.815881

>  <r_i_glide_esite>  (14) 
0

>  <r_i_glide_emodel>  (14) 
-42.7463

>  <r_i_glide_energy>  (14) 
-31.5638

>  <r_i_glide_einternal>  (14) 
5.85625

>  <r_i_glide_intrahb_reward>  (14) 
-0.5

>  <i_i_glide_confnum>  (14) 
6

>  <i_i_glide_posenum>  (14) 
31

>  <r_i_glide_eff_state_penalty>  (14) 
0

>  <ligand_id>  (14) 
5

>  <original_smiles>  (14) 
Cc1ccc(C(=O)C=Cc2ccccc2O)c(O)c1

>  <smiles>  (14) 
[H]Oc1c([H])c([H])c([H])c([H])c1C([H])=C([H])C(=O)c1c([H])c([H])c(C([H])([H])[H])c([H])c1O[H]

$$$$
5:0:2
     RDKit          3D

 33 34  0  0  1  0  0  0  0  0999 V2000
    2.9660    0.2098   -4.9047 C   0  0  0  0  0  0  0  0  0  0  0  0
    3.4273   -0.7777   -3.8460 C   0  0  0  0  0  0  0  0  0  0  0  0
    3.0608   -2.1351   -3.8953 C   0  0  0  0  0  0  0  0  0  0  0  0
    3.4963   -3.0241   -2.8902 C   0  0  0  0  0  0  0  0  0  0  0  0
    4.3089   -2.5795   -1.8212 C   0  0  0  0  0  0  0  0  0  0  0  0
    4.8115   -3.5624   -0.8136 C   0  0  0  0  0  0  0  0  0  0  0  0
    6.0036   -3.5703   -0.4930 O   0  0  0  0  0  0  0  0  0  0  0  0
    3.8280   -4.4909   -0.2063 C   0  0  0  0  0  0  0  0  0  0  0  0
    4.2185   -5.6496    0.3799 C   0  0  0  0  0  0  0  0  0  0  0  0
    3.3617   -6.6452    1.0837 C   0  0  0  0  0  0  0  0  0  0  0  0
    2.0566   -6.3080    1.5102 C   0  0  0  0  0  0  0  0  0  0  0  0
    1.2256   -7.2639    2.1385 C   0  0  0  0  0  0  0  0  0  0  0  0
    1.6868   -8.5789    2.3403 C   0  0  0  0  0  0  0  0  0  0  0  0
    2.9762   -8.9375    1.9124 C   0  0  0  0  0  0  0  0  0  0  0  0
    3.8081   -7.9798    1.2903 C   0  0  0  0  0  0  0  0  0  0  0  0
    5.0446   -8.3837    0.8781 O   0  0  0  0  0  0  0  0  0  0  0  0
    4.6576   -1.2013   -1.7627 C   0  0  0  0  0  0  0  0  0  0  0  0
    5.4056   -0.6793   -0.7435 O   0  0  0  0  0  0  0  0  0  0  0  0
    4.2157   -0.3236   -2.7746 C   0  0  0  0  0  0  0  0  0  0  0  0
    2.3492   -0.2555   -5.6572 H   0  0  0  0  0  0  0  0  0  0  0  0
    3.8117    0.6955   -5.3976 H   0  0  0  0  0  0  0  0  0  0  0  0
    2.3438    0.9720   -4.4434 H   0  0  0  0  0  0  0  0  0  0  0  0
    2.4501   -2.5040   -4.7073 H   0  0  0  0  0  0  0  0  0  0  0  0
    3.2318   -4.0691   -2.9695 H   0  0  0  0  0  0  0  0  0  0  0  0
    2.7868   -4.1979   -0.2457 H   0  0  0  0  0  0  0  0  0  0  0  0
    5.2717   -5.8918    0.3617 H   0  0  0  0  0  0  0  0  0  0  0  0
    1.6947   -5.2967    1.3771 H   0  0  0  0  0  0  0  0  0  0  0  0
    0.2318   -6.9955    2.4764 H   0  0  0  0  0  0  0  0  0  0  0  0
    1.0537   -9.3153    2.8230 H   0  0  0  0  0  0  0  0  0  0  0  0
    3.3203   -9.9582    2.0545 H   0  0  0  0  0  0  0  0  0  0  0  0
    5.1800   -9.3123    1.0184 H   0  0  0  0  0  0  0  0  0  0  0  0
    5.4091    0.2796   -0.7473 H   0  0  0  0  0  0  0  0  0  0  0  0
    4.4737    0.7277   -2.7320 H   0  0  0  0  0  0  0  0  0  0  0  0
  1  2  1  0
  1 20  1  0
  1 21  1  0
  1 22  1  0
  2 19  2  0
  2  3  1  0
  3  4  2  0
  3 23  1  0
  4  5  1  0
  4 24  1  0
  5  6  1  0
  5 17  2  0
  6  7  2  0
  6  8  1  0
  8  9  2  3
  8 25  1  0
  9 10  1  0
  9 26  1  0
 10 15  1  0
 10 11  2  0
 11 12  1  0
 11 27  1  0
 12 13  2  0
 12 28  1  0
 13 14  1  0
 13 29  1  0
 14 15  2  0
 14 30  1  0
 15 16  1  0
 16 31  1  0
 17 18  1  0
 17 19  1  0
 18 32  1  0
 19 33  1  0
M  END
>  <i_m_ct_stereo_status>  (15) 
1

>  <s_m_source_file>  (15) 
/var/tmp/pbs.5076255.sched01/tmpt68d_85j/0g9mu2vg5.sdf

>  <i_m_source_file_index>  (15) 
6

>  <i_lp_mmshare_version>  (15) 
48012

>  <i_f3d_flags>  (15) 
0

>  <s_epik_input>  (15) 
W0NIM11jMVtjSF1bY0hdYyhjKFtPSF0pW2NIXTEpQyg9TykvW0NIXT1bQ0hdL2MyW2NIXVtjSF1bY0hdW2NIXWMyW09IXQ==

>  <s_epik_cmdline>  (15) 
J2VwaWtfcHl0aG9uJywgJy1waHQnLCAnMi4wJywgJy1waCcsICc3LjAnLCAnLXRuJywgJzgnLCAnLW1hJywgJzIwMCcsICctaW1hZScsICc8aW5maWxlLm1hZT4nLCAnLW9tYWUnLCAnPG91dGZpbGUubWFlPic=

>  <r_epik_Ionization_Penalty>  (15) 
0.0397064

>  <r_epik_Ionization_Penalty_Charging>  (15) 
0

>  <r_epik_Ionization_Penalty_Neutral>  (15) 
0.0397064

>  <r_epik_State_Penalty>  (15) 
0.0312789

>  <r_epik_Charging_Adjusted_Penalty>  (15) 
0.0312789

>  <i_epik_Tot_Q>  (15) 
0

>  <i_epik_Tot_abs_Q>  (15) 
0

>  <s_lp_Force_Field>  (15) 
OPLS3e

>  <r_lp_Energy>  (15) 
27.4278

>  <b_lp_Chiralities_Consistent>  (15) 
1

>  <s_lp_Variant>  (15) 
5:0-1

>  <s_i_glide_gridfile>  (15) 
pfpi4k_grid

>  <i_i_glide_lignum>  (15) 
6

>  <i_i_glide_rotatable_bonds>  (15) 
5

>  <r_i_docking_score>  (15) 
-3.95894

>  <r_i_glide_ligand_efficiency>  (15) 
-0.208365

>  <r_i_glide_ligand_efficiency_sa>  (15) 
-0.556002

>  <r_i_glide_ligand_efficiency_ln>  (15) 
-1.00368

>  <r_i_glide_gscore>  (15) 
-3.95894

>  <r_i_glide_lipo>  (15) 
-0.711657

>  <r_i_glide_hbond>  (15) 
0

>  <r_i_glide_metal>  (15) 
-0

>  <r_i_glide_rewards>  (15) 
-1.72474

>  <r_i_glide_evdw>  (15) 
-25.4218

>  <r_i_glide_ecoul>  (15) 
-7.11553

>  <r_i_glide_erotb>  (15) 
0.815881

>  <r_i_glide_esite>  (15) 
0

>  <r_i_glide_emodel>  (15) 
-36.9417

>  <r_i_glide_energy>  (15) 
-32.5373

>  <r_i_glide_einternal>  (15) 
7.73662

>  <r_i_glide_intrahb_reward>  (15) 
-0

>  <i_i_glide_confnum>  (15) 
3

>  <i_i_glide_posenum>  (15) 
1

>  <r_i_glide_eff_state_penalty>  (15) 
0

>  <ligand_id>  (15) 
5

>  <original_smiles>  (15) 
Cc1ccc(C(=O)C=Cc2ccccc2O)c(O)c1

>  <smiles>  (15) 
[H]Oc1c([H])c([H])c([H])c([H])c1C([H])=C([H])C(=O)c1c([H])c([H])c(C([H])([H])[H])c([H])c1O[H]

$$$$
5:1:0
     RDKit          3D

 33 34  0  0  1  0  0  0  0  0999 V2000
    3.3254   -0.0741   -4.7254 C   0  0  0  0  0  0  0  0  0  0  0  0
    3.4174   -1.0363   -3.5572 C   0  0  0  0  0  0  0  0  0  0  0  0
    2.6359   -2.2104   -3.5257 C   0  0  0  0  0  0  0  0  0  0  0  0
    2.7080   -3.0667   -2.4094 C   0  0  0  0  0  0  0  0  0  0  0  0
    3.5860   -2.7937   -1.3386 C   0  0  0  0  0  0  0  0  0  0  0  0
    3.6094   -3.7284   -0.1909 C   0  0  0  0  0  0  0  0  0  0  0  0
    3.1045   -3.4285    0.8907 O   0  0  0  0  0  0  0  0  0  0  0  0
    4.3326   -4.9934   -0.4216 C   0  0  0  0  0  0  0  0  0  0  0  0
    4.0977   -6.1648    0.2168 C   0  0  0  0  0  0  0  0  0  0  0  0
    3.0367   -6.4848    1.1965 C   0  0  0  0  0  0  0  0  0  0  0  0
    3.4033   -7.0538    2.4393 C   0  0  0  0  0  0  0  0  0  0  0  0
    2.4157   -7.4096    3.3797 C   0  0  0  0  0  0  0  0  0  0  0  0
    1.0509   -7.2319    3.0830 C   0  0  0  0  0  0  0  0  0  0  0  0
    0.6729   -6.6935    1.8368 C   0  0  0  0  0  0  0  0  0  0  0  0
    1.6555   -6.3232    0.8997 C   0  0  0  0  0  0  0  0  0  0  0  0
    1.2418   -5.8462   -0.3132 O   0  0  0  0  0  0  0  0  0  0  0  0
    4.3701   -1.6182   -1.3682 C   0  0  0  0  0  0  0  0  0  0  0  0
    5.2331   -1.2950   -0.3580 O   0  0  0  0  0  0  0  0  0  0  0  0
    4.2822   -0.7540   -2.4788 C   0  0  0  0  0  0  0  0  0  0  0  0
    2.4371   -0.2549   -5.3266 H   0  0  0  0  0  0  0  0  0  0  0  0
    4.1934   -0.1923   -5.3647 H   0  0  0  0  0  0  0  0  0  0  0  0
    3.2952    0.9551   -4.3749 H   0  0  0  0  0  0  0  0  0  0  0  0
    1.9317   -2.4306   -4.3207 H   0  0  0  0  0  0  0  0  0  0  0  0
    2.0636   -3.9342   -2.3779 H   0  0  0  0  0  0  0  0  0  0  0  0
    5.1132   -4.9589   -1.1682 H   0  0  0  0  0  0  0  0  0  0  0  0
    4.7334   -7.0007   -0.0455 H   0  0  0  0  0  0  0  0  0  0  0  0
    4.4495   -7.2215    2.6666 H   0  0  0  0  0  0  0  0  0  0  0  0
    2.7059   -7.8286    4.3349 H   0  0  0  0  0  0  0  0  0  0  0  0
    0.2949   -7.5123    3.8010 H   0  0  0  0  0  0  0  0  0  0  0  0
   -0.3717   -6.6086    1.5777 H   0  0  0  0  0  0  0  0  0  0  0  0
    1.9754   -5.7647   -0.9117 H   0  0  0  0  0  0  0  0  0  0  0  0
    5.1160   -1.8025    0.4322 H   0  0  0  0  0  0  0  0  0  0  0  0
    4.8757    0.1449   -2.4950 H   0  0  0  0  0  0  0  0  0  0  0  0
  1  2  1  0
  1 20  1  0
  1 21  1  0
  1 22  1  0
  2 19  2  0
  2  3  1  0
  3  4  2  0
  3 23  1  0
  4  5  1  0
  4 24  1  0
  5  6  1  0
  5 17  2  0
  6  7  2  0
  6  8  1  0
  8  9  2  3
  8 25  1  0
  9 10  1  0
  9 26  1  0
 10 15  1  0
 10 11  2  0
 11 12  1  0
 11 27  1  0
 12 13  2  0
 12 28  1  0
 13 14  1  0
 13 29  1  0
 14 15  2  0
 14 30  1  0
 15 16  1  0
 16 31  1  0
 17 18  1  0
 17 19  1  0
 18 32  1  0
 19 33  1  0
M  END
>  <i_m_ct_stereo_status>  (16) 
1

>  <s_m_source_file>  (16) 
/var/tmp/pbs.5076255.sched01/tmpt68d_85j/0g9mu2vg5.sdf

>  <i_m_source_file_index>  (16) 
7

>  <i_lp_mmshare_version>  (16) 
48012

>  <i_f3d_flags>  (16) 
0

>  <s_epik_input>  (16) 
W0NIM11jMVtjSF1bY0hdYyhjKFtPSF0pW2NIXTEpQyg9TykvW0NIXT1bQ0hdL2MyW2NIXVtjSF1bY0hdW2NIXWMyW09IXQ==

>  <s_epik_cmdline>  (16) 
J2VwaWtfcHl0aG9uJywgJy1waHQnLCAnMi4wJywgJy1waCcsICc3LjAnLCAnLXRuJywgJzgnLCAnLW1hJywgJzIwMCcsICctaW1hZScsICc8aW5maWxlLm1hZT4nLCAnLW9tYWUnLCAnPG91dGZpbGUubWFlPic=

>  <r_epik_Ionization_Penalty>  (16) 
0.0397064

>  <r_epik_Ionization_Penalty_Charging>  (16) 
0

>  <r_epik_Ionization_Penalty_Neutral>  (16) 
0.0397064

>  <r_epik_State_Penalty>  (16) 
0.0312789

>  <r_epik_Charging_Adjusted_Penalty>  (16) 
0.0312789

>  <i_epik_Tot_Q>  (16) 
0

>  <i_epik_Tot_abs_Q>  (16) 
0

>  <s_lp_Force_Field>  (16) 
OPLS3e

>  <r_lp_Energy>  (16) 
32.2496

>  <b_lp_Chiralities_Consistent>  (16) 
1

>  <s_lp_Variant>  (16) 
5:0-2

>  <s_i_glide_gridfile>  (16) 
pfpi4k_grid

>  <i_i_glide_lignum>  (16) 
7

>  <i_i_glide_rotatable_bonds>  (16) 
5

>  <r_i_docking_score>  (16) 
-3.86486

>  <r_i_glide_ligand_efficiency>  (16) 
-0.203414

>  <r_i_glide_ligand_efficiency_sa>  (16) 
-0.54279

>  <r_i_glide_ligand_efficiency_ln>  (16) 
-0.979826

>  <r_i_glide_gscore>  (16) 
-3.86486

>  <r_i_glide_lipo>  (16) 
-0.771473

>  <r_i_glide_hbond>  (16) 
0

>  <r_i_glide_metal>  (16) 
-0

>  <r_i_glide_rewards>  (16) 
-1.67536

>  <r_i_glide_evdw>  (16) 
-25.8458

>  <r_i_glide_ecoul>  (16) 
-6.26053

>  <r_i_glide_erotb>  (16) 
0.815881

>  <r_i_glide_esite>  (16) 
-0.00254623

>  <r_i_glide_emodel>  (16) 
-34.5213

>  <r_i_glide_energy>  (16) 
-32.1063

>  <r_i_glide_einternal>  (16) 
10.982

>  <r_i_glide_intrahb_reward>  (16) 
-0

>  <i_i_glide_confnum>  (16) 
5

>  <i_i_glide_posenum>  (16) 
17

>  <r_i_glide_eff_state_penalty>  (16) 
0

>  <ligand_id>  (16) 
5

>  <original_smiles>  (16) 
Cc1ccc(C(=O)C=Cc2ccccc2O)c(O)c1

>  <smiles>  (16) 
[H]Oc1c([H])c([H])c([H])c([H])c1C([H])=C([H])C(=O)c1c([H])c([H])c(C([H])([H])[H])c([H])c1O[H]

$$$$
5:1:1
     RDKit          3D

 33 34  0  0  1  0  0  0  0  0999 V2000
    3.3440    0.1752   -4.9897 C   0  0  0  0  0  0  0  0  0  0  0  0
    3.6643   -0.8082   -3.8748 C   0  0  0  0  0  0  0  0  0  0  0  0
    3.4257   -2.1850   -4.0007 C   0  0  0  0  0  0  0  0  0  0  0  0
    3.6949   -3.0578   -2.9315 C   0  0  0  0  0  0  0  0  0  0  0  0
    4.2228   -2.5900   -1.7036 C   0  0  0  0  0  0  0  0  0  0  0  0
    4.4820   -3.5643   -0.5910 C   0  0  0  0  0  0  0  0  0  0  0  0
    4.4345   -3.2491    0.6004 O   0  0  0  0  0  0  0  0  0  0  0  0
    4.8422   -4.9325   -1.0070 C   0  0  0  0  0  0  0  0  0  0  0  0
    4.6162   -6.0495   -0.2833 C   0  0  0  0  0  0  0  0  0  0  0  0
    3.9233   -6.1800    1.0044 C   0  0  0  0  0  0  0  0  0  0  0  0
    4.6344   -6.6839    2.1126 C   0  0  0  0  0  0  0  0  0  0  0  0
    3.9901   -6.8564    3.3535 C   0  0  0  0  0  0  0  0  0  0  0  0
    2.6221   -6.5426    3.4863 C   0  0  0  0  0  0  0  0  0  0  0  0
    1.9023   -6.0587    2.3783 C   0  0  0  0  0  0  0  0  0  0  0  0
    2.5461   -5.8850    1.1389 C   0  0  0  0  0  0  0  0  0  0  0  0
    1.8145   -5.4636    0.0640 O   0  0  0  0  0  0  0  0  0  0  0  0
    4.4975   -1.1996   -1.5953 C   0  0  0  0  0  0  0  0  0  0  0  0
    5.0621   -0.6537   -0.4732 O   0  0  0  0  0  0  0  0  0  0  0  0
    4.2163   -0.3374   -2.6786 C   0  0  0  0  0  0  0  0  0  0  0  0
    2.6797   -0.2446   -5.7401 H   0  0  0  0  0  0  0  0  0  0  0  0
    4.2503    0.4983   -5.4910 H   0  0  0  0  0  0  0  0  0  0  0  0
    2.8710    1.0725   -4.5899 H   0  0  0  0  0  0  0  0  0  0  0  0
    3.0173   -2.5910   -4.9049 H   0  0  0  0  0  0  0  0  0  0  0  0
    3.4591   -4.0972   -3.0888 H   0  0  0  0  0  0  0  0  0  0  0  0
    5.3166   -5.0255   -1.9706 H   0  0  0  0  0  0  0  0  0  0  0  0
    4.9447   -6.9873   -0.7002 H   0  0  0  0  0  0  0  0  0  0  0  0
    5.6797   -6.9455    2.0132 H   0  0  0  0  0  0  0  0  0  0  0  0
    4.5427   -7.2307    4.2046 H   0  0  0  0  0  0  0  0  0  0  0  0
    2.1298   -6.6706    4.4362 H   0  0  0  0  0  0  0  0  0  0  0  0
    0.8506   -5.8368    2.4780 H   0  0  0  0  0  0  0  0  0  0  0  0
    2.3121   -5.4583   -0.7462 H   0  0  0  0  0  0  0  0  0  0  0  0
    5.0431    0.2943   -0.4837 H   0  0  0  0  0  0  0  0  0  0  0  0
    4.4047    0.7168   -2.6210 H   0  0  0  0  0  0  0  0  0  0  0  0
  1  2  1  0
  1 20  1  0
  1 21  1  0
  1 22  1  0
  2 19  2  0
  2  3  1  0
  3  4  2  0
  3 23  1  0
  4  5  1  0
  4 24  1  0
  5  6  1  0
  5 17  2  0
  6  7  2  0
  6  8  1  0
  8  9  2  3
  8 25  1  0
  9 10  1  0
  9 26  1  0
 10 15  1  0
 10 11  2  0
 11 12  1  0
 11 27  1  0
 12 13  2  0
 12 28  1  0
 13 14  1  0
 13 29  1  0
 14 15  2  0
 14 30  1  0
 15 16  1  0
 16 31  1  0
 17 18  1  0
 17 19  1  0
 18 32  1  0
 19 33  1  0
M  END
>  <i_m_ct_stereo_status>  (17) 
1

>  <s_m_source_file>  (17) 
/var/tmp/pbs.5076255.sched01/tmpt68d_85j/0g9mu2vg5.sdf

>  <i_m_source_file_index>  (17) 
7

>  <i_lp_mmshare_version>  (17) 
48012

>  <i_f3d_flags>  (17) 
0

>  <s_epik_input>  (17) 
W0NIM11jMVtjSF1bY0hdYyhjKFtPSF0pW2NIXTEpQyg9TykvW0NIXT1bQ0hdL2MyW2NIXVtjSF1bY0hdW2NIXWMyW09IXQ==

>  <s_epik_cmdline>  (17) 
J2VwaWtfcHl0aG9uJywgJy1waHQnLCAnMi4wJywgJy1waCcsICc3LjAnLCAnLXRuJywgJzgnLCAnLW1hJywgJzIwMCcsICctaW1hZScsICc8aW5maWxlLm1hZT4nLCAnLW9tYWUnLCAnPG91dGZpbGUubWFlPic=

>  <r_epik_Ionization_Penalty>  (17) 
0.0397064

>  <r_epik_Ionization_Penalty_Charging>  (17) 
0

>  <r_epik_Ionization_Penalty_Neutral>  (17) 
0.0397064

>  <r_epik_State_Penalty>  (17) 
0.0312789

>  <r_epik_Charging_Adjusted_Penalty>  (17) 
0.0312789

>  <i_epik_Tot_Q>  (17) 
0

>  <i_epik_Tot_abs_Q>  (17) 
0

>  <s_lp_Force_Field>  (17) 
OPLS3e

>  <r_lp_Energy>  (17) 
32.2496

>  <b_lp_Chiralities_Consistent>  (17) 
1

>  <s_lp_Variant>  (17) 
5:0-2

>  <s_i_glide_gridfile>  (17) 
pfpi4k_grid

>  <i_i_glide_lignum>  (17) 
7

>  <i_i_glide_rotatable_bonds>  (17) 
5

>  <r_i_docking_score>  (17) 
-3.8214

>  <r_i_glide_ligand_efficiency>  (17) 
-0.201126

>  <r_i_glide_ligand_efficiency_sa>  (17) 
-0.536686

>  <r_i_glide_ligand_efficiency_ln>  (17) 
-0.968807

>  <r_i_glide_gscore>  (17) 
-3.8214

>  <r_i_glide_lipo>  (17) 
-0.652956

>  <r_i_glide_hbond>  (17) 
0

>  <r_i_glide_metal>  (17) 
-0

>  <r_i_glide_rewards>  (17) 
-1.71834

>  <r_i_glide_evdw>  (17) 
-21.6135

>  <r_i_glide_ecoul>  (17) 
-7.90205

>  <r_i_glide_erotb>  (17) 
0.815881

>  <r_i_glide_esite>  (17) 
0

>  <r_i_glide_emodel>  (17) 
-33.7166

>  <r_i_glide_energy>  (17) 
-29.5155

>  <r_i_glide_einternal>  (17) 
7.34083

>  <r_i_glide_intrahb_reward>  (17) 
-0

>  <i_i_glide_confnum>  (17) 
5

>  <i_i_glide_posenum>  (17) 
28

>  <r_i_glide_eff_state_penalty>  (17) 
0

>  <ligand_id>  (17) 
5

>  <original_smiles>  (17) 
Cc1ccc(C(=O)C=Cc2ccccc2O)c(O)c1

>  <smiles>  (17) 
[H]Oc1c([H])c([H])c([H])c([H])c1C([H])=C([H])C(=O)c1c([H])c([H])c(C([H])([H])[H])c([H])c1O[H]

$$$$
5:1:2
     RDKit          3D

 33 34  0  0  1  0  0  0  0  0999 V2000
   -2.6989    2.9455    3.9318 C   0  0  0  0  0  0  0  0  0  0  0  0
   -1.5154    2.0047    3.9857 C   0  0  0  0  0  0  0  0  0  0  0  0
   -0.2839    2.3677    3.4014 C   0  0  0  0  0  0  0  0  0  0  0  0
    0.8122    1.4803    3.4581 C   0  0  0  0  0  0  0  0  0  0  0  0
    0.7026    0.2229    4.1053 C   0  0  0  0  0  0  0  0  0  0  0  0
    1.8842   -0.6939    4.1455 C   0  0  0  0  0  0  0  0  0  0  0  0
    1.7563   -1.9203    4.2044 O   0  0  0  0  0  0  0  0  0  0  0  0
    3.2158   -0.0542    4.1569 C   0  0  0  0  0  0  0  0  0  0  0  0
    4.2480   -0.3728    3.3409 C   0  0  0  0  0  0  0  0  0  0  0  0
    4.2921   -1.3109    2.1957 C   0  0  0  0  0  0  0  0  0  0  0  0
    5.4058   -2.1748    2.0718 C   0  0  0  0  0  0  0  0  0  0  0  0
    5.5081   -3.0827    0.9953 C   0  0  0  0  0  0  0  0  0  0  0  0
    4.4984   -3.1353    0.0161 C   0  0  0  0  0  0  0  0  0  0  0  0
    3.3934   -2.2659    0.1175 C   0  0  0  0  0  0  0  0  0  0  0  0
    3.2830   -1.3598    1.1983 C   0  0  0  0  0  0  0  0  0  0  0  0
    2.2145   -0.5163    1.2548 O   0  0  0  0  0  0  0  0  0  0  0  0
   -0.5458   -0.1412    4.6791 C   0  0  0  0  0  0  0  0  0  0  0  0
   -0.7281   -1.3403    5.3105 O   0  0  0  0  0  0  0  0  0  0  0  0
   -1.6345    0.7541    4.6266 C   0  0  0  0  0  0  0  0  0  0  0  0
   -2.5480    3.7252    3.1888 H   0  0  0  0  0  0  0  0  0  0  0  0
   -2.8395    3.4211    4.8993 H   0  0  0  0  0  0  0  0  0  0  0  0
   -3.6152    2.4166    3.6800 H   0  0  0  0  0  0  0  0  0  0  0  0
   -0.1861    3.3100    2.8804 H   0  0  0  0  0  0  0  0  0  0  0  0
    1.7275    1.7744    2.9613 H   0  0  0  0  0  0  0  0  0  0  0  0
    3.3458    0.7326    4.8845 H   0  0  0  0  0  0  0  0  0  0  0  0
    5.1719    0.1626    3.5000 H   0  0  0  0  0  0  0  0  0  0  0  0
    6.1877   -2.1315    2.8150 H   0  0  0  0  0  0  0  0  0  0  0  0
    6.3655   -3.7425    0.9235 H   0  0  0  0  0  0  0  0  0  0  0  0
    4.5626   -3.8351   -0.8024 H   0  0  0  0  0  0  0  0  0  0  0  0
    2.6321   -2.2979   -0.6467 H   0  0  0  0  0  0  0  0  0  0  0  0
    1.6044   -0.6495    0.5288 H   0  0  0  0  0  0  0  0  0  0  0  0
    0.0282   -1.9020    5.1981 H   0  0  0  0  0  0  0  0  0  0  0  0
   -2.5745    0.4625    5.0673 H   0  0  0  0  0  0  0  0  0  0  0  0
  1  2  1  0
  1 20  1  0
  1 21  1  0
  1 22  1  0
  2 19  2  0
  2  3  1  0
  3  4  2  0
  3 23  1  0
  4  5  1  0
  4 24  1  0
  5  6  1  0
  5 17  2  0
  6  7  2  0
  6  8  1  0
  8  9  2  3
  8 25  1  0
  9 10  1  0
  9 26  1  0
 10 15  1  0
 10 11  2  0
 11 12  1  0
 11 27  1  0
 12 13  2  0
 12 28  1  0
 13 14  1  0
 13 29  1  0
 14 15  2  0
 14 30  1  0
 15 16  1  0
 16 31  1  0
 17 18  1  0
 17 19  1  0
 18 32  1  0
 19 33  1  0
M  END
>  <i_m_ct_stereo_status>  (18) 
1

>  <s_m_source_file>  (18) 
/var/tmp/pbs.5076255.sched01/tmpt68d_85j/0g9mu2vg5.sdf

>  <i_m_source_file_index>  (18) 
7

>  <i_lp_mmshare_version>  (18) 
48012

>  <i_f3d_flags>  (18) 
0

>  <s_epik_input>  (18) 
W0NIM11jMVtjSF1bY0hdYyhjKFtPSF0pW2NIXTEpQyg9TykvW0NIXT1bQ0hdL2MyW2NIXVtjSF1bY0hdW2NIXWMyW09IXQ==

>  <s_epik_cmdline>  (18) 
J2VwaWtfcHl0aG9uJywgJy1waHQnLCAnMi4wJywgJy1waCcsICc3LjAnLCAnLXRuJywgJzgnLCAnLW1hJywgJzIwMCcsICctaW1hZScsICc8aW5maWxlLm1hZT4nLCAnLW9tYWUnLCAnPG91dGZpbGUubWFlPic=

>  <r_epik_Ionization_Penalty>  (18) 
0.0397064

>  <r_epik_Ionization_Penalty_Charging>  (18) 
0

>  <r_epik_Ionization_Penalty_Neutral>  (18) 
0.0397064

>  <r_epik_State_Penalty>  (18) 
0.0312789

>  <r_epik_Charging_Adjusted_Penalty>  (18) 
0.0312789

>  <i_epik_Tot_Q>  (18) 
0

>  <i_epik_Tot_abs_Q>  (18) 
0

>  <s_lp_Force_Field>  (18) 
OPLS3e

>  <r_lp_Energy>  (18) 
32.2496

>  <b_lp_Chiralities_Consistent>  (18) 
1

>  <s_lp_Variant>  (18) 
5:0-2

>  <s_i_glide_gridfile>  (18) 
pfpi4k_grid

>  <i_i_glide_lignum>  (18) 
7

>  <i_i_glide_rotatable_bonds>  (18) 
5

>  <r_i_docking_score>  (18) 
-3.25048

>  <r_i_glide_ligand_efficiency>  (18) 
-0.171078

>  <r_i_glide_ligand_efficiency_sa>  (18) 
-0.456505

>  <r_i_glide_ligand_efficiency_ln>  (18) 
-0.824068

>  <r_i_glide_gscore>  (18) 
-3.25048

>  <r_i_glide_lipo>  (18) 
-0.206531

>  <r_i_glide_hbond>  (18) 
0

>  <r_i_glide_metal>  (18) 
-0

>  <r_i_glide_rewards>  (18) 
-2.17536

>  <r_i_glide_evdw>  (18) 
-16.7283

>  <r_i_glide_ecoul>  (18) 
-5.64814

>  <r_i_glide_erotb>  (18) 
0.815881

>  <r_i_glide_esite>  (18) 
-0.000837845

>  <r_i_glide_emodel>  (18) 
-29.5336

>  <r_i_glide_energy>  (18) 
-22.3764

>  <r_i_glide_einternal>  (18) 
8.77063

>  <r_i_glide_intrahb_reward>  (18) 
-0.5

>  <i_i_glide_confnum>  (18) 
5

>  <i_i_glide_posenum>  (18) 
19

>  <r_i_glide_eff_state_penalty>  (18) 
0

>  <ligand_id>  (18) 
5

>  <original_smiles>  (18) 
Cc1ccc(C(=O)C=Cc2ccccc2O)c(O)c1

>  <smiles>  (18) 
[H]Oc1c([H])c([H])c([H])c([H])c1C([H])=C([H])C(=O)c1c([H])c([H])c(C([H])([H])[H])c([H])c1O[H]

$$$$
5:2:0
     RDKit          3D

 32 33  0  0  1  0  0  0  0  0999 V2000
    3.5782   -9.2774    1.7799 C   0  0  0  0  0  0  0  0  0  0  0  0
    4.3972   -8.0328    1.5059 C   0  0  0  0  0  0  0  0  0  0  0  0
    3.8156   -6.9153    0.8955 C   0  0  0  0  0  0  0  0  0  0  0  0
    4.5741   -5.7583    0.6896 C   0  0  0  0  0  0  0  0  0  0  0  0
    5.9613   -5.6823    1.0186 C   0  0  0  0  0  0  0  0  0  0  0  0
    6.7621   -4.4240    0.7291 C   0  0  0  0  0  0  0  0  0  0  0  0
    7.8834   -4.2111    1.1922 O   0  0  0  0  0  0  0  0  0  0  0  0
    6.2209   -3.3574   -0.1354 C   0  0  0  0  0  0  0  0  0  0  0  0
    5.4949   -3.5844   -1.2467 C   0  0  0  0  0  0  0  0  0  0  0  0
    4.8677   -2.5686   -2.1132 C   0  0  0  0  0  0  0  0  0  0  0  0
    4.8137   -1.2017   -1.7409 C   0  0  0  0  0  0  0  0  0  0  0  0
    4.2468   -0.2589   -2.6241 C   0  0  0  0  0  0  0  0  0  0  0  0
    3.7058   -0.6496   -3.8539 C   0  0  0  0  0  0  0  0  0  0  0  0
    3.7265   -2.0043   -4.2035 C   0  0  0  0  0  0  0  0  0  0  0  0
    4.3163   -2.9558   -3.3579 C   0  0  0  0  0  0  0  0  0  0  0  0
    4.3277   -4.2417   -3.7989 O   0  0  0  0  0  0  0  0  0  0  0  0
    6.5340   -6.8312    1.6517 C   0  0  0  0  0  0  0  0  0  0  0  0
    7.8353   -6.8921    2.0697 O   0  0  0  0  0  0  0  0  0  0  0  0
    5.7544   -7.9858    1.8908 C   0  0  0  0  0  0  0  0  0  0  0  0
    2.5544   -9.1730    1.4172 H   0  0  0  0  0  0  0  0  0  0  0  0
    3.5429   -9.4774    2.8513 H   0  0  0  0  0  0  0  0  0  0  0  0
    4.0294  -10.1351    1.2852 H   0  0  0  0  0  0  0  0  0  0  0  0
    2.7724   -6.9250    0.5957 H   0  0  0  0  0  0  0  0  0  0  0  0
    4.0330   -4.9293    0.2765 H   0  0  0  0  0  0  0  0  0  0  0  0
    6.4778   -2.3536    0.1703 H   0  0  0  0  0  0  0  0  0  0  0  0
    5.3206   -4.6033   -1.5563 H   0  0  0  0  0  0  0  0  0  0  0  0
    5.2001   -0.8583   -0.7873 H   0  0  0  0  0  0  0  0  0  0  0  0
    4.2102    0.7849   -2.3552 H   0  0  0  0  0  0  0  0  0  0  0  0
    3.2608    0.0857   -4.5117 H   0  0  0  0  0  0  0  0  0  0  0  0
    3.2888   -2.3418   -5.1194 H   0  0  0  0  0  0  0  0  0  0  0  0
    3.9635   -4.8703   -3.1743 H   0  0  0  0  0  0  0  0  0  0  0  0
    6.2002   -8.8414    2.3816 H   0  0  0  0  0  0  0  0  0  0  0  0
  1  2  1  0
  1 20  1  0
  1 21  1  0
  1 22  1  0
  2 19  2  0
  2  3  1  0
  3  4  2  0
  3 23  1  0
  4  5  1  0
  4 24  1  0
  5  6  1  0
  5 17  2  0
  6  7  2  0
  6  8  1  0
  8  9  2  3
  8 25  1  0
  9 10  1  0
  9 26  1  0
 10 15  1  0
 10 11  2  0
 11 12  1  0
 11 27  1  0
 12 13  2  0
 12 28  1  0
 13 14  1  0
 13 29  1  0
 14 15  2  0
 14 30  1  0
 15 16  1  0
 16 31  1  0
 17 18  1  0
 17 19  1  0
 19 32  1  0
M  CHG  1  18  -1
M  END
>  <i_m_ct_stereo_status>  (19) 
1

>  <s_m_source_file>  (19) 
/var/tmp/pbs.5076255.sched01/tmpt68d_85j/0g9mu2vg5.sdf

>  <i_m_source_file_index>  (19) 
8

>  <i_lp_mmshare_version>  (19) 
48012

>  <i_f3d_flags>  (19) 
0

>  <s_epik_input>  (19) 
W0NIM11jMVtjSF1bY0hdYyhjKFtPSF0pW2NIXTEpQyg9TykvW0NIXT1bQ0hdL2MyW2NIXVtjSF1bY0hdW2NIXWMyW09IXQ==

>  <s_epik_cmdline>  (19) 
J2VwaWtfcHl0aG9uJywgJy1waHQnLCAnMi4wJywgJy1waCcsICc3LjAnLCAnLXRuJywgJzgnLCAnLW1hJywgJzIwMCcsICctaW1hZScsICc8aW5maWxlLm1hZT4nLCAnLW9tYWUnLCAnPG91dGZpbGUubWFlPic=

>  <r_epik_Ionization_Penalty>  (19) 
1.65816

>  <r_epik_Ionization_Penalty_Charging>  (19) 
1.65583

>  <r_epik_Ionization_Penalty_Neutral>  (19) 
0.0023319

>  <r_epik_State_Penalty>  (19) 
1.7583

>  <r_epik_Charging_Adjusted_Penalty>  (19) 
3.41413

>  <i_epik_Tot_Q>  (19) 
-1

>  <i_epik_Tot_abs_Q>  (19) 
1

>  <s_lp_Force_Field>  (19) 
OPLS3e

>  <r_lp_Energy>  (19) 
25.8982

>  <b_lp_Chiralities_Consistent>  (19) 
1

>  <s_lp_Variant>  (19) 
5:0-3

>  <s_i_glide_gridfile>  (19) 
pfpi4k_grid

>  <i_i_glide_lignum>  (19) 
8

>  <i_i_glide_rotatable_bonds>  (19) 
4

>  <r_i_docking_score>  (19) 
-4.38312

>  <r_i_glide_ligand_efficiency>  (19) 
-0.23069

>  <r_i_glide_ligand_efficiency_sa>  (19) 
-0.615574

>  <r_i_glide_ligand_efficiency_ln>  (19) 
-1.11121

>  <r_i_glide_gscore>  (19) 
-4.38312

>  <r_i_glide_lipo>  (19) 
-1.18208

>  <r_i_glide_hbond>  (19) 
-0.32

>  <r_i_glide_metal>  (19) 
-0

>  <r_i_glide_rewards>  (19) 
-1.84548

>  <r_i_glide_evdw>  (19) 
-19.8423

>  <r_i_glide_ecoul>  (19) 
-5.766

>  <r_i_glide_erotb>  (19) 
0.821465

>  <r_i_glide_esite>  (19) 
0

>  <r_i_glide_emodel>  (19) 
-33.5978

>  <r_i_glide_energy>  (19) 
-25.6083

>  <r_i_glide_einternal>  (19) 
4.71647

>  <r_i_glide_intrahb_reward>  (19) 
-0

>  <i_i_glide_confnum>  (19) 
3

>  <i_i_glide_posenum>  (19) 
19

>  <r_i_glide_eff_state_penalty>  (19) 
0

>  <ligand_id>  (19) 
5

>  <original_smiles>  (19) 
Cc1ccc(C(=O)C=Cc2ccccc2O)c(O)c1

>  <smiles>  (19) 
[H]Oc1c([H])c([H])c([H])c([H])c1C([H])=C([H])C(=O)c1c([H])c([H])c(C([H])([H])[H])c([H])c1[O-]

$$$$
5:2:1
     RDKit          3D

 32 33  0  0  1  0  0  0  0  0999 V2000
    3.5995   -0.8817   -3.8177 C   0  0  0  0  0  0  0  0  0  0  0  0
    4.2489   -1.7031   -2.7158 C   0  0  0  0  0  0  0  0  0  0  0  0
    3.9515   -3.0753   -2.5797 C   0  0  0  0  0  0  0  0  0  0  0  0
    4.6125   -3.8287   -1.5888 C   0  0  0  0  0  0  0  0  0  0  0  0
    5.4840   -3.2285   -0.6479 C   0  0  0  0  0  0  0  0  0  0  0  0
    6.0645   -4.0588    0.4749 C   0  0  0  0  0  0  0  0  0  0  0  0
    7.2303   -3.8956    0.8343 O   0  0  0  0  0  0  0  0  0  0  0  0
    5.2782   -5.1100    1.1664 C   0  0  0  0  0  0  0  0  0  0  0  0
    3.9585   -5.3514    0.9605 C   0  0  0  0  0  0  0  0  0  0  0  0
    3.1497   -6.4263    1.5720 C   0  0  0  0  0  0  0  0  0  0  0  0
    3.6655   -7.3034    2.5651 C   0  0  0  0  0  0  0  0  0  0  0  0
    2.8503   -8.2967    3.1402 C   0  0  0  0  0  0  0  0  0  0  0  0
    1.5151   -8.4458    2.7099 C   0  0  0  0  0  0  0  0  0  0  0  0
    1.0009   -7.6175    1.6899 C   0  0  0  0  0  0  0  0  0  0  0  0
    1.8141   -6.6262    1.1202 C   0  0  0  0  0  0  0  0  0  0  0  0
    1.2961   -5.8761    0.0940 O   0  0  0  0  0  0  0  0  0  0  0  0
    5.7569   -1.8455   -0.7913 C   0  0  0  0  0  0  0  0  0  0  0  0
    6.5742   -1.1635    0.0836 O   0  0  0  0  0  0  0  0  0  0  0  0
    5.1630   -1.0996   -1.8293 C   0  0  0  0  0  0  0  0  0  0  0  0
    2.9040   -1.4792   -4.4041 H   0  0  0  0  0  0  0  0  0  0  0  0
    4.3640   -0.5026   -4.4961 H   0  0  0  0  0  0  0  0  0  0  0  0
    3.0479   -0.0352   -3.4036 H   0  0  0  0  0  0  0  0  0  0  0  0
    3.2228   -3.5362   -3.2284 H   0  0  0  0  0  0  0  0  0  0  0  0
    4.4161   -4.8888   -1.4886 H   0  0  0  0  0  0  0  0  0  0  0  0
    5.8641   -5.6958    1.8595 H   0  0  0  0  0  0  0  0  0  0  0  0
    3.4309   -4.7069    0.2780 H   0  0  0  0  0  0  0  0  0  0  0  0
    4.6843   -7.2077    2.9079 H   0  0  0  0  0  0  0  0  0  0  0  0
    3.2483   -8.9361    3.9214 H   0  0  0  0  0  0  0  0  0  0  0  0
    0.8892   -9.2057    3.1451 H   0  0  0  0  0  0  0  0  0  0  0  0
   -0.0142   -7.7507    1.3386 H   0  0  0  0  0  0  0  0  0  0  0  0
    1.9428   -5.4591   -0.4597 H   0  0  0  0  0  0  0  0  0  0  0  0
    5.3987   -0.0502   -1.9582 H   0  0  0  0  0  0  0  0  0  0  0  0
  1  2  1  0
  1 20  1  0
  1 21  1  0
  1 22  1  0
  2 19  2  0
  2  3  1  0
  3  4  2  0
  3 23  1  0
  4  5  1  0
  4 24  1  0
  5  6  1  0
  5 17  2  0
  6  7  2  0
  6  8  1  0
  8  9  2  3
  8 25  1  0
  9 10  1  0
  9 26  1  0
 10 15  1  0
 10 11  2  0
 11 12  1  0
 11 27  1  0
 12 13  2  0
 12 28  1  0
 13 14  1  0
 13 29  1  0
 14 15  2  0
 14 30  1  0
 15 16  1  0
 16 31  1  0
 17 18  1  0
 17 19  1  0
 19 32  1  0
M  CHG  1  18  -1
M  END
>  <i_m_ct_stereo_status>  (20) 
1

>  <s_m_source_file>  (20) 
/var/tmp/pbs.5076255.sched01/tmpt68d_85j/0g9mu2vg5.sdf

>  <i_m_source_file_index>  (20) 
8

>  <i_lp_mmshare_version>  (20) 
48012

>  <i_f3d_flags>  (20) 
0

>  <s_epik_input>  (20) 
W0NIM11jMVtjSF1bY0hdYyhjKFtPSF0pW2NIXTEpQyg9TykvW0NIXT1bQ0hdL2MyW2NIXVtjSF1bY0hdW2NIXWMyW09IXQ==

>  <s_epik_cmdline>  (20) 
J2VwaWtfcHl0aG9uJywgJy1waHQnLCAnMi4wJywgJy1waCcsICc3LjAnLCAnLXRuJywgJzgnLCAnLW1hJywgJzIwMCcsICctaW1hZScsICc8aW5maWxlLm1hZT4nLCAnLW9tYWUnLCAnPG91dGZpbGUubWFlPic=

>  <r_epik_Ionization_Penalty>  (20) 
1.65816

>  <r_epik_Ionization_Penalty_Charging>  (20) 
1.65583

>  <r_epik_Ionization_Penalty_Neutral>  (20) 
0.0023319

>  <r_epik_State_Penalty>  (20) 
1.7583

>  <r_epik_Charging_Adjusted_Penalty>  (20) 
3.41413

>  <i_epik_Tot_Q>  (20) 
-1

>  <i_epik_Tot_abs_Q>  (20) 
1

>  <s_lp_Force_Field>  (20) 
OPLS3e

>  <r_lp_Energy>  (20) 
25.8982

>  <b_lp_Chiralities_Consistent>  (20) 
1

>  <s_lp_Variant>  (20) 
5:0-3

>  <s_i_glide_gridfile>  (20) 
pfpi4k_grid

>  <i_i_glide_lignum>  (20) 
8

>  <i_i_glide_rotatable_bonds>  (20) 
4

>  <r_i_docking_score>  (20) 
-3.6877

>  <r_i_glide_ligand_efficiency>  (20) 
-0.194089

>  <r_i_glide_ligand_efficiency_sa>  (20) 
-0.517908

>  <r_i_glide_ligand_efficiency_ln>  (20) 
-0.934911

>  <r_i_glide_gscore>  (20) 
-3.6877

>  <r_i_glide_lipo>  (20) 
-0.385985

>  <r_i_glide_hbond>  (20) 
-0.350476

>  <r_i_glide_metal>  (20) 
-0

>  <r_i_glide_rewards>  (20) 
-1.80324

>  <r_i_glide_evdw>  (20) 
-21.686

>  <r_i_glide_ecoul>  (20) 
-5.90109

>  <r_i_glide_erotb>  (20) 
0.821465

>  <r_i_glide_esite>  (20) 
0

>  <r_i_glide_emodel>  (20) 
-35.5719

>  <r_i_glide_energy>  (20) 
-27.5871

>  <r_i_glide_einternal>  (20) 
1.57114

>  <r_i_glide_intrahb_reward>  (20) 
-0

>  <i_i_glide_confnum>  (20) 
4

>  <i_i_glide_posenum>  (20) 
4

>  <r_i_glide_eff_state_penalty>  (20) 
0

>  <ligand_id>  (20) 
5

>  <original_smiles>  (20) 
Cc1ccc(C(=O)C=Cc2ccccc2O)c(O)c1

>  <smiles>  (20) 
[H]Oc1c([H])c([H])c([H])c([H])c1C([H])=C([H])C(=O)c1c([H])c([H])c(C([H])([H])[H])c([H])c1[O-]

$$$$
5:2:2
     RDKit          3D

 32 33  0  0  1  0  0  0  0  0999 V2000
   -1.7750   -8.3935    3.3279 C   0  0  0  0  0  0  0  0  0  0  0  0
   -0.6469   -7.4621    2.9198 C   0  0  0  0  0  0  0  0  0  0  0  0
   -0.1724   -7.4471    1.5991 C   0  0  0  0  0  0  0  0  0  0  0  0
    0.8882   -6.5936    1.2335 C   0  0  0  0  0  0  0  0  0  0  0  0
    1.5024   -5.7305    2.1816 C   0  0  0  0  0  0  0  0  0  0  0  0
    2.6270   -4.8063    1.7684 C   0  0  0  0  0  0  0  0  0  0  0  0
    3.5292   -4.4979    2.5472 O   0  0  0  0  0  0  0  0  0  0  0  0
    2.6395   -4.2715    0.3831 C   0  0  0  0  0  0  0  0  0  0  0  0
    3.3089   -3.1360    0.0725 C   0  0  0  0  0  0  0  0  0  0  0  0
    3.4256   -2.4916   -1.2657 C   0  0  0  0  0  0  0  0  0  0  0  0
    2.8015   -3.0543   -2.4046 C   0  0  0  0  0  0  0  0  0  0  0  0
    2.9120   -2.4600   -3.6755 C   0  0  0  0  0  0  0  0  0  0  0  0
    3.6246   -1.2599   -3.8326 C   0  0  0  0  0  0  0  0  0  0  0  0
    4.2306   -0.6706   -2.7102 C   0  0  0  0  0  0  0  0  0  0  0  0
    4.1527   -1.2805   -1.4406 C   0  0  0  0  0  0  0  0  0  0  0  0
    4.7808   -0.6576   -0.3956 O   0  0  0  0  0  0  0  0  0  0  0  0
    0.9928   -5.7480    3.5170 C   0  0  0  0  0  0  0  0  0  0  0  0
    1.4474   -4.9130    4.5016 O   0  0  0  0  0  0  0  0  0  0  0  0
   -0.0566   -6.6191    3.8750 C   0  0  0  0  0  0  0  0  0  0  0  0
   -2.1236   -9.0162    2.5062 H   0  0  0  0  0  0  0  0  0  0  0  0
   -2.6203   -7.8173    3.6968 H   0  0  0  0  0  0  0  0  0  0  0  0
   -1.4403   -9.0491    4.1320 H   0  0  0  0  0  0  0  0  0  0  0  0
   -0.6242   -8.1148    0.8828 H   0  0  0  0  0  0  0  0  0  0  0  0
    1.2410   -6.6333    0.2124 H   0  0  0  0  0  0  0  0  0  0  0  0
    2.1029   -4.8054   -0.3806 H   0  0  0  0  0  0  0  0  0  0  0  0
    3.8201   -2.6179    0.8724 H   0  0  0  0  0  0  0  0  0  0  0  0
    2.2190   -3.9564   -2.3276 H   0  0  0  0  0  0  0  0  0  0  0  0
    2.4251   -2.9266   -4.5193 H   0  0  0  0  0  0  0  0  0  0  0  0
    3.6938   -0.7895   -4.8023 H   0  0  0  0  0  0  0  0  0  0  0  0
    4.7631    0.2594   -2.8200 H   0  0  0  0  0  0  0  0  0  0  0  0
    5.0127    0.2463   -0.5774 H   0  0  0  0  0  0  0  0  0  0  0  0
   -0.4279   -6.6284    4.8931 H   0  0  0  0  0  0  0  0  0  0  0  0
  1  2  1  0
  1 20  1  0
  1 21  1  0
  1 22  1  0
  2 19  2  0
  2  3  1  0
  3  4  2  0
  3 23  1  0
  4  5  1  0
  4 24  1  0
  5  6  1  0
  5 17  2  0
  6  7  2  0
  6  8  1  0
  8  9  2  3
  8 25  1  0
  9 10  1  0
  9 26  1  0
 10 15  1  0
 10 11  2  0
 11 12  1  0
 11 27  1  0
 12 13  2  0
 12 28  1  0
 13 14  1  0
 13 29  1  0
 14 15  2  0
 14 30  1  0
 15 16  1  0
 16 31  1  0
 17 18  1  0
 17 19  1  0
 19 32  1  0
M  CHG  1  18  -1
M  END
>  <i_m_ct_stereo_status>  (21) 
1

>  <s_m_source_file>  (21) 
/var/tmp/pbs.5076255.sched01/tmpt68d_85j/0g9mu2vg5.sdf

>  <i_m_source_file_index>  (21) 
8

>  <i_lp_mmshare_version>  (21) 
48012

>  <i_f3d_flags>  (21) 
0

>  <s_epik_input>  (21) 
W0NIM11jMVtjSF1bY0hdYyhjKFtPSF0pW2NIXTEpQyg9TykvW0NIXT1bQ0hdL2MyW2NIXVtjSF1bY0hdW2NIXWMyW09IXQ==

>  <s_epik_cmdline>  (21) 
J2VwaWtfcHl0aG9uJywgJy1waHQnLCAnMi4wJywgJy1waCcsICc3LjAnLCAnLXRuJywgJzgnLCAnLW1hJywgJzIwMCcsICctaW1hZScsICc8aW5maWxlLm1hZT4nLCAnLW9tYWUnLCAnPG91dGZpbGUubWFlPic=

>  <r_epik_Ionization_Penalty>  (21) 
1.65816

>  <r_epik_Ionization_Penalty_Charging>  (21) 
1.65583

>  <r_epik_Ionization_Penalty_Neutral>  (21) 
0.0023319

>  <r_epik_State_Penalty>  (21) 
1.7583

>  <r_epik_Charging_Adjusted_Penalty>  (21) 
3.41413

>  <i_epik_Tot_Q>  (21) 
-1

>  <i_epik_Tot_abs_Q>  (21) 
1

>  <s_lp_Force_Field>  (21) 
OPLS3e

>  <r_lp_Energy>  (21) 
25.8982

>  <b_lp_Chiralities_Consistent>  (21) 
1

>  <s_lp_Variant>  (21) 
5:0-3

>  <s_i_glide_gridfile>  (21) 
pfpi4k_grid

>  <i_i_glide_lignum>  (21) 
8

>  <i_i_glide_rotatable_bonds>  (21) 
4

>  <r_i_docking_score>  (21) 
-3.41975

>  <r_i_glide_ligand_efficiency>  (21) 
-0.179987

>  <r_i_glide_ligand_efficiency_sa>  (21) 
-0.480278

>  <r_i_glide_ligand_efficiency_ln>  (21) 
-0.866981

>  <r_i_glide_gscore>  (21) 
-3.41975

>  <r_i_glide_lipo>  (21) 
-0.483697

>  <r_i_glide_hbond>  (21) 
-0.32

>  <r_i_glide_metal>  (21) 
-0

>  <r_i_glide_rewards>  (21) 
-1.68223

>  <r_i_glide_evdw>  (21) 
-25.6608

>  <r_i_glide_ecoul>  (21) 
-3.05691

>  <r_i_glide_erotb>  (21) 
0.821465

>  <r_i_glide_esite>  (21) 
-0.013711

>  <r_i_glide_emodel>  (21) 
-34.6513

>  <r_i_glide_energy>  (21) 
-28.7177

>  <r_i_glide_einternal>  (21) 
5.53375

>  <r_i_glide_intrahb_reward>  (21) 
-0

>  <i_i_glide_confnum>  (21) 
4

>  <i_i_glide_posenum>  (21) 
6

>  <r_i_glide_eff_state_penalty>  (21) 
0

>  <ligand_id>  (21) 
5

>  <original_smiles>  (21) 
Cc1ccc(C(=O)C=Cc2ccccc2O)c(O)c1

>  <smiles>  (21) 
[H]Oc1c([H])c([H])c([H])c([H])c1C([H])=C([H])C(=O)c1c([H])c([H])c(C([H])([H])[H])c([H])c1[O-]

$$$$
5:3:0
     RDKit          3D

 32 33  0  0  1  0  0  0  0  0999 V2000
   -6.7390   -4.0601   -4.0122 C   0  0  0  0  0  0  0  0  0  0  0  0
   -6.6981   -5.2713   -4.9120 C   0  0  0  0  0  0  0  0  0  0  0  0
   -5.7126   -6.2514   -4.7209 C   0  0  0  0  0  0  0  0  0  0  0  0
   -5.6841   -7.3822   -5.5540 C   0  0  0  0  0  0  0  0  0  0  0  0
   -6.6536   -7.5571   -6.5595 C   0  0  0  0  0  0  0  0  0  0  0  0
   -6.5601   -8.7772   -7.3983 C   0  0  0  0  0  0  0  0  0  0  0  0
   -5.7025   -8.8821   -8.2824 O   0  0  0  0  0  0  0  0  0  0  0  0
   -7.5231   -9.8463   -7.0832 C   0  0  0  0  0  0  0  0  0  0  0  0
   -7.2852  -11.1757   -7.2005 C   0  0  0  0  0  0  0  0  0  0  0  0
   -6.0390  -11.8694   -7.5976 C   0  0  0  0  0  0  0  0  0  0  0  0
   -4.9378  -11.9074   -6.7137 C   0  0  0  0  0  0  0  0  0  0  0  0
   -3.7795  -12.6385   -7.0409 C   0  0  0  0  0  0  0  0  0  0  0  0
   -3.7077  -13.3488   -8.2536 C   0  0  0  0  0  0  0  0  0  0  0  0
   -4.8031  -13.3335   -9.1349 C   0  0  0  0  0  0  0  0  0  0  0  0
   -5.9680  -12.6122   -8.8041 C   0  0  0  0  0  0  0  0  0  0  0  0
   -7.0323  -12.6558   -9.6581 O   0  0  0  0  0  0  0  0  0  0  0  0
   -7.6530   -6.5644   -6.7573 C   0  0  0  0  0  0  0  0  0  0  0  0
   -8.5775   -6.6575   -7.7488 O   0  0  0  0  0  0  0  0  0  0  0  0
   -7.6692   -5.4266   -5.9149 C   0  0  0  0  0  0  0  0  0  0  0  0
   -5.7912   -3.8525   -3.5279 H   0  0  0  0  0  0  0  0  0  0  0  0
   -7.4718   -4.2314   -3.2284 H   0  0  0  0  0  0  0  0  0  0  0  0
   -6.9949   -3.1746   -4.5887 H   0  0  0  0  0  0  0  0  0  0  0  0
   -4.9870   -6.1393   -3.9324 H   0  0  0  0  0  0  0  0  0  0  0  0
   -4.9109   -8.1237   -5.4164 H   0  0  0  0  0  0  0  0  0  0  0  0
   -8.4904   -9.5154   -6.7314 H   0  0  0  0  0  0  0  0  0  0  0  0
   -8.0977  -11.8380   -6.9510 H   0  0  0  0  0  0  0  0  0  0  0  0
   -4.9912  -11.3988   -5.7623 H   0  0  0  0  0  0  0  0  0  0  0  0
   -2.9496  -12.6663   -6.3484 H   0  0  0  0  0  0  0  0  0  0  0  0
   -2.8197  -13.9112   -8.4986 H   0  0  0  0  0  0  0  0  0  0  0  0
   -4.7525  -13.8965  -10.0567 H   0  0  0  0  0  0  0  0  0  0  0  0
   -6.8892  -13.2047  -10.4136 H   0  0  0  0  0  0  0  0  0  0  0  0
   -8.4332   -4.6657   -6.0432 H   0  0  0  0  0  0  0  0  0  0  0  0
  1  2  1  0
  1 20  1  0
  1 21  1  0
  1 22  1  0
  2 19  2  0
  2  3  1  0
  3  4  2  0
  3 23  1  0
  4  5  1  0
  4 24  1  0
  5  6  1  0
  5 17  2  0
  6  7  2  0
  6  8  1  0
  8  9  2  3
  8 25  1  0
  9 10  1  0
  9 26  1  0
 10 15  1  0
 10 11  2  0
 11 12  1  0
 11 27  1  0
 12 13  2  0
 12 28  1  0
 13 14  1  0
 13 29  1  0
 14 15  2  0
 14 30  1  0
 15 16  1  0
 16 31  1  0
 17 18  1  0
 17 19  1  0
 19 32  1  0
M  CHG  1  18  -1
M  END
>  <i_m_ct_stereo_status>  (22) 
1

>  <s_m_source_file>  (22) 
/var/tmp/pbs.5076255.sched01/tmpt68d_85j/0g9mu2vg5.sdf

>  <i_m_source_file_index>  (22) 
9

>  <i_lp_mmshare_version>  (22) 
48012

>  <i_f3d_flags>  (22) 
0

>  <s_epik_input>  (22) 
W0NIM11jMVtjSF1bY0hdYyhjKFtPSF0pW2NIXTEpQyg9TykvW0NIXT1bQ0hdL2MyW2NIXVtjSF1bY0hdW2NIXWMyW09IXQ==

>  <s_epik_cmdline>  (22) 
J2VwaWtfcHl0aG9uJywgJy1waHQnLCAnMi4wJywgJy1waCcsICc3LjAnLCAnLXRuJywgJzgnLCAnLW1hJywgJzIwMCcsICctaW1hZScsICc8aW5maWxlLm1hZT4nLCAnLW9tYWUnLCAnPG91dGZpbGUubWFlPic=

>  <r_epik_Ionization_Penalty>  (22) 
1.65816

>  <r_epik_Ionization_Penalty_Charging>  (22) 
1.65583

>  <r_epik_Ionization_Penalty_Neutral>  (22) 
0.0023319

>  <r_epik_State_Penalty>  (22) 
1.7583

>  <r_epik_Charging_Adjusted_Penalty>  (22) 
3.41413

>  <i_epik_Tot_Q>  (22) 
-1

>  <i_epik_Tot_abs_Q>  (22) 
1

>  <s_lp_Force_Field>  (22) 
OPLS3e

>  <r_lp_Energy>  (22) 
31.4348

>  <b_lp_Chiralities_Consistent>  (22) 
1

>  <s_lp_Variant>  (22) 
5:0-4

>  <s_i_glide_gridfile>  (22) 
pfpi4k_grid

>  <i_i_glide_lignum>  (22) 
9

>  <i_i_glide_rotatable_bonds>  (22) 
4

>  <r_i_docking_score>  (22) 
-4.72819

>  <r_i_glide_ligand_efficiency>  (22) 
-0.248852

>  <r_i_glide_ligand_efficiency_sa>  (22) 
-0.664037

>  <r_i_glide_ligand_efficiency_ln>  (22) 
-1.1987

>  <r_i_glide_gscore>  (22) 
-4.72819

>  <r_i_glide_lipo>  (22) 
-2.24916

>  <r_i_glide_hbond>  (22) 
0

>  <r_i_glide_metal>  (22) 
-0

>  <r_i_glide_rewards>  (22) 
-1.93487

>  <r_i_glide_evdw>  (22) 
-25.7261

>  <r_i_glide_ecoul>  (22) 
-0.528769

>  <r_i_glide_erotb>  (22) 
0.821465

>  <r_i_glide_esite>  (22) 
0

>  <r_i_glide_emodel>  (22) 
-33.6161

>  <r_i_glide_energy>  (22) 
-26.2549

>  <r_i_glide_einternal>  (22) 
11.9529

>  <r_i_glide_intrahb_reward>  (22) 
-0

>  <i_i_glide_confnum>  (22) 
4

>  <i_i_glide_posenum>  (22) 
11

>  <r_i_glide_eff_state_penalty>  (22) 
0

>  <ligand_id>  (22) 
5

>  <original_smiles>  (22) 
Cc1ccc(C(=O)C=Cc2ccccc2O)c(O)c1

>  <smiles>  (22) 
[H]Oc1c([H])c([H])c([H])c([H])c1C([H])=C([H])C(=O)c1c([H])c([H])c(C([H])([H])[H])c([H])c1[O-]

$$$$
5:3:1
     RDKit          3D

 32 33  0  0  1  0  0  0  0  0999 V2000
    1.5762   -8.1274    4.7962 C   0  0  0  0  0  0  0  0  0  0  0  0
    1.9443   -7.3023    3.5764 C   0  0  0  0  0  0  0  0  0  0  0  0
    3.2183   -6.7075    3.4750 C   0  0  0  0  0  0  0  0  0  0  0  0
    3.5445   -5.9471    2.3318 C   0  0  0  0  0  0  0  0  0  0  0  0
    2.6016   -5.7443    1.2856 C   0  0  0  0  0  0  0  0  0  0  0  0
    3.0129   -4.9054    0.1067 C   0  0  0  0  0  0  0  0  0  0  0  0
    2.2184   -4.1842   -0.4990 O   0  0  0  0  0  0  0  0  0  0  0  0
    4.4376   -5.0285   -0.3072 C   0  0  0  0  0  0  0  0  0  0  0  0
    5.0873   -4.2178   -1.1667 C   0  0  0  0  0  0  0  0  0  0  0  0
    4.5802   -3.0465   -1.8831 C   0  0  0  0  0  0  0  0  0  0  0  0
    4.6281   -1.8073   -1.2376 C   0  0  0  0  0  0  0  0  0  0  0  0
    4.2333   -0.6624   -1.9393 C   0  0  0  0  0  0  0  0  0  0  0  0
    3.7945   -0.6981   -3.2726 C   0  0  0  0  0  0  0  0  0  0  0  0
    3.7807   -1.9288   -3.9314 C   0  0  0  0  0  0  0  0  0  0  0  0
    4.2070   -3.0905   -3.2503 C   0  0  0  0  0  0  0  0  0  0  0  0
    4.2567   -4.2575   -3.9375 O   0  0  0  0  0  0  0  0  0  0  0  0
    1.3150   -6.3626    1.4057 C   0  0  0  0  0  0  0  0  0  0  0  0
    0.3194   -6.2608    0.4691 O   0  0  0  0  0  0  0  0  0  0  0  0
    1.0104   -7.1366    2.5390 C   0  0  0  0  0  0  0  0  0  0  0  0
    2.2237   -7.8862    5.6422 H   0  0  0  0  0  0  0  0  0  0  0  0
    1.6799   -9.1923    4.5771 H   0  0  0  0  0  0  0  0  0  0  0  0
    0.5404   -7.9351    5.0872 H   0  0  0  0  0  0  0  0  0  0  0  0
    3.9424   -6.8238    4.2734 H   0  0  0  0  0  0  0  0  0  0  0  0
    4.5235   -5.4823    2.3025 H   0  0  0  0  0  0  0  0  0  0  0  0
    5.0076   -5.8481    0.1061 H   0  0  0  0  0  0  0  0  0  0  0  0
    6.1279   -4.4078   -1.3570 H   0  0  0  0  0  0  0  0  0  0  0  0
    4.9685   -1.7094   -0.2099 H   0  0  0  0  0  0  0  0  0  0  0  0
    4.2248    0.2501   -1.4138 H   0  0  0  0  0  0  0  0  0  0  0  0
    3.4610    0.2068   -3.7648 H   0  0  0  0  0  0  0  0  0  0  0  0
    3.4317   -1.9778   -4.9485 H   0  0  0  0  0  0  0  0  0  0  0  0
    4.0108   -4.9693   -3.3596 H   0  0  0  0  0  0  0  0  0  0  0  0
    0.0434   -7.6171    2.6066 H   0  0  0  0  0  0  0  0  0  0  0  0
  1  2  1  0
  1 20  1  0
  1 21  1  0
  1 22  1  0
  2 19  2  0
  2  3  1  0
  3  4  2  0
  3 23  1  0
  4  5  1  0
  4 24  1  0
  5  6  1  0
  5 17  2  0
  6  7  2  0
  6  8  1  0
  8  9  2  3
  8 25  1  0
  9 10  1  0
  9 26  1  0
 10 15  1  0
 10 11  2  0
 11 12  1  0
 11 27  1  0
 12 13  2  0
 12 28  1  0
 13 14  1  0
 13 29  1  0
 14 15  2  0
 14 30  1  0
 15 16  1  0
 16 31  1  0
 17 18  1  0
 17 19  1  0
 19 32  1  0
M  CHG  1  18  -1
M  END
>  <i_m_ct_stereo_status>  (23) 
1

>  <s_m_source_file>  (23) 
/var/tmp/pbs.5076255.sched01/tmpt68d_85j/0g9mu2vg5.sdf

>  <i_m_source_file_index>  (23) 
9

>  <i_lp_mmshare_version>  (23) 
48012

>  <i_f3d_flags>  (23) 
0

>  <s_epik_input>  (23) 
W0NIM11jMVtjSF1bY0hdYyhjKFtPSF0pW2NIXTEpQyg9TykvW0NIXT1bQ0hdL2MyW2NIXVtjSF1bY0hdW2NIXWMyW09IXQ==

>  <s_epik_cmdline>  (23) 
J2VwaWtfcHl0aG9uJywgJy1waHQnLCAnMi4wJywgJy1waCcsICc3LjAnLCAnLXRuJywgJzgnLCAnLW1hJywgJzIwMCcsICctaW1hZScsICc8aW5maWxlLm1hZT4nLCAnLW9tYWUnLCAnPG91dGZpbGUubWFlPic=

>  <r_epik_Ionization_Penalty>  (23) 
1.65816

>  <r_epik_Ionization_Penalty_Charging>  (23) 
1.65583

>  <r_epik_Ionization_Penalty_Neutral>  (23) 
0.0023319

>  <r_epik_State_Penalty>  (23) 
1.7583

>  <r_epik_Charging_Adjusted_Penalty>  (23) 
3.41413

>  <i_epik_Tot_Q>  (23) 
-1

>  <i_epik_Tot_abs_Q>  (23) 
1

>  <s_lp_Force_Field>  (23) 
OPLS3e

>  <r_lp_Energy>  (23) 
31.4348

>  <b_lp_Chiralities_Consistent>  (23) 
1

>  <s_lp_Variant>  (23) 
5:0-4

>  <s_i_glide_gridfile>  (23) 
pfpi4k_grid

>  <i_i_glide_lignum>  (23) 
9

>  <i_i_glide_rotatable_bonds>  (23) 
4

>  <r_i_docking_score>  (23) 
-3.79169

>  <r_i_glide_ligand_efficiency>  (23) 
-0.199563

>  <r_i_glide_ligand_efficiency_sa>  (23) 
-0.532514

>  <r_i_glide_ligand_efficiency_ln>  (23) 
-0.961275

>  <r_i_glide_gscore>  (23) 
-3.79169

>  <r_i_glide_lipo>  (23) 
-0.353668

>  <r_i_glide_hbond>  (23) 
-0.560366

>  <r_i_glide_metal>  (23) 
-0

>  <r_i_glide_rewards>  (23) 
-1.68223

>  <r_i_glide_evdw>  (23) 
-18.0914

>  <r_i_glide_ecoul>  (23) 
-7.17552

>  <r_i_glide_erotb>  (23) 
0.821465

>  <r_i_glide_esite>  (23) 
-0.0359947

>  <r_i_glide_emodel>  (23) 
-31.5713

>  <r_i_glide_energy>  (23) 
-25.2669

>  <r_i_glide_einternal>  (23) 
8.26367

>  <r_i_glide_intrahb_reward>  (23) 
-0

>  <i_i_glide_confnum>  (23) 
5

>  <i_i_glide_posenum>  (23) 
39

>  <r_i_glide_eff_state_penalty>  (23) 
0

>  <ligand_id>  (23) 
5

>  <original_smiles>  (23) 
Cc1ccc(C(=O)C=Cc2ccccc2O)c(O)c1

>  <smiles>  (23) 
[H]Oc1c([H])c([H])c([H])c([H])c1C([H])=C([H])C(=O)c1c([H])c([H])c(C([H])([H])[H])c([H])c1[O-]

$$$$
5:3:2
     RDKit          3D

 32 33  0  0  1  0  0  0  0  0999 V2000
   -1.4918   -8.6478    3.8457 C   0  0  0  0  0  0  0  0  0  0  0  0
   -0.3838   -7.7625    3.3077 C   0  0  0  0  0  0  0  0  0  0  0  0
    0.6623   -7.3295    4.1442 C   0  0  0  0  0  0  0  0  0  0  0  0
    1.6828   -6.5159    3.6193 C   0  0  0  0  0  0  0  0  0  0  0  0
    1.6846   -6.1366    2.2538 C   0  0  0  0  0  0  0  0  0  0  0  0
    2.8151   -5.2806    1.7783 C   0  0  0  0  0  0  0  0  0  0  0  0
    3.2008   -4.3160    2.4430 O   0  0  0  0  0  0  0  0  0  0  0  0
    3.4847   -5.7092    0.5264 C   0  0  0  0  0  0  0  0  0  0  0  0
    4.3588   -4.9981   -0.2238 C   0  0  0  0  0  0  0  0  0  0  0  0
    4.8352   -3.6106   -0.0538 C   0  0  0  0  0  0  0  0  0  0  0  0
    6.2287   -3.3962    0.0507 C   0  0  0  0  0  0  0  0  0  0  0  0
    6.7443   -2.0956    0.1955 C   0  0  0  0  0  0  0  0  0  0  0  0
    5.8691   -0.9932    0.2228 C   0  0  0  0  0  0  0  0  0  0  0  0
    4.4785   -1.1904    0.0898 C   0  0  0  0  0  0  0  0  0  0  0  0
    3.9604   -2.4895   -0.0517 C   0  0  0  0  0  0  0  0  0  0  0  0
    2.6071   -2.6597   -0.2134 O   0  0  0  0  0  0  0  0  0  0  0  0
    0.6357   -6.6066    1.4105 C   0  0  0  0  0  0  0  0  0  0  0  0
    0.5463   -6.2560    0.0970 O   0  0  0  0  0  0  0  0  0  0  0  0
   -0.3899   -7.4054    1.9452 C   0  0  0  0  0  0  0  0  0  0  0  0
   -1.5492   -8.6074    4.9381 H   0  0  0  0  0  0  0  0  0  0  0  0
   -1.2975   -9.6855    3.5639 H   0  0  0  0  0  0  0  0  0  0  0  0
   -2.4633   -8.3643    3.4339 H   0  0  0  0  0  0  0  0  0  0  0  0
    0.6893   -7.6417    5.1885 H   0  0  0  0  0  0  0  0  0  0  0  0
    2.4827   -6.1830    4.2698 H   0  0  0  0  0  0  0  0  0  0  0  0
    3.2400   -6.7021    0.1909 H   0  0  0  0  0  0  0  0  0  0  0  0
    4.7557   -5.5025   -1.0977 H   0  0  0  0  0  0  0  0  0  0  0  0
    6.8997   -4.2447    0.0290 H   0  0  0  0  0  0  0  0  0  0  0  0
    7.8107   -1.9506    0.3005 H   0  0  0  0  0  0  0  0  0  0  0  0
    6.2564    0.0058    0.3450 H   0  0  0  0  0  0  0  0  0  0  0  0
    3.8164   -0.3360    0.0951 H   0  0  0  0  0  0  0  0  0  0  0  0
    2.0569   -1.8836   -0.3342 H   0  0  0  0  0  0  0  0  0  0  0  0
   -1.1788   -7.7723    1.3080 H   0  0  0  0  0  0  0  0  0  0  0  0
  1  2  1  0
  1 20  1  0
  1 21  1  0
  1 22  1  0
  2 19  2  0
  2  3  1  0
  3  4  2  0
  3 23  1  0
  4  5  1  0
  4 24  1  0
  5  6  1  0
  5 17  2  0
  6  7  2  0
  6  8  1  0
  8  9  2  3
  8 25  1  0
  9 10  1  0
  9 26  1  0
 10 15  1  0
 10 11  2  0
 11 12  1  0
 11 27  1  0
 12 13  2  0
 12 28  1  0
 13 14  1  0
 13 29  1  0
 14 15  2  0
 14 30  1  0
 15 16  1  0
 16 31  1  0
 17 18  1  0
 17 19  1  0
 19 32  1  0
M  CHG  1  18  -1
M  END
>  <i_m_ct_stereo_status>  (24) 
1

>  <s_m_source_file>  (24) 
/var/tmp/pbs.5076255.sched01/tmpt68d_85j/0g9mu2vg5.sdf

>  <i_m_source_file_index>  (24) 
9

>  <i_lp_mmshare_version>  (24) 
48012

>  <i_f3d_flags>  (24) 
0

>  <s_epik_input>  (24) 
W0NIM11jMVtjSF1bY0hdYyhjKFtPSF0pW2NIXTEpQyg9TykvW0NIXT1bQ0hdL2MyW2NIXVtjSF1bY0hdW2NIXWMyW09IXQ==

>  <s_epik_cmdline>  (24) 
J2VwaWtfcHl0aG9uJywgJy1waHQnLCAnMi4wJywgJy1waCcsICc3LjAnLCAnLXRuJywgJzgnLCAnLW1hJywgJzIwMCcsICctaW1hZScsICc8aW5maWxlLm1hZT4nLCAnLW9tYWUnLCAnPG91dGZpbGUubWFlPic=

>  <r_epik_Ionization_Penalty>  (24) 
1.65816

>  <r_epik_Ionization_Penalty_Charging>  (24) 
1.65583

>  <r_epik_Ionization_Penalty_Neutral>  (24) 
0.0023319

>  <r_epik_State_Penalty>  (24) 
1.7583

>  <r_epik_Charging_Adjusted_Penalty>  (24) 
3.41413

>  <i_epik_Tot_Q>  (24) 
-1

>  <i_epik_Tot_abs_Q>  (24) 
1

>  <s_lp_Force_Field>  (24) 
OPLS3e

>  <r_lp_Energy>  (24) 
31.4348

>  <b_lp_Chiralities_Consistent>  (24) 
1

>  <s_lp_Variant>  (24) 
5:0-4

>  <s_i_glide_gridfile>  (24) 
pfpi4k_grid

>  <i_i_glide_lignum>  (24) 
9

>  <i_i_glide_rotatable_bonds>  (24) 
4

>  <r_i_docking_score>  (24) 
-3.45349

>  <r_i_glide_ligand_efficiency>  (24) 
-0.181763

>  <r_i_glide_ligand_efficiency_sa>  (24) 
-0.485016

>  <r_i_glide_ligand_efficiency_ln>  (24) 
-0.875534

>  <r_i_glide_gscore>  (24) 
-3.45349

>  <r_i_glide_lipo>  (24) 
-0.197856

>  <r_i_glide_hbond>  (24) 
-0.310016

>  <r_i_glide_metal>  (24) 
-0

>  <r_i_glide_rewards>  (24) 
-1.68223

>  <r_i_glide_evdw>  (24) 
-19.2378

>  <r_i_glide_ecoul>  (24) 
-7.42666

>  <r_i_glide_erotb>  (24) 
0.821465

>  <r_i_glide_esite>  (24) 
-0.00895959

>  <r_i_glide_emodel>  (24) 
-32.4633

>  <r_i_glide_energy>  (24) 
-26.6645

>  <r_i_glide_einternal>  (24) 
8.21467

>  <r_i_glide_intrahb_reward>  (24) 
-0

>  <i_i_glide_confnum>  (24) 
6

>  <i_i_glide_posenum>  (24) 
30

>  <r_i_glide_eff_state_penalty>  (24) 
0

>  <ligand_id>  (24) 
5

>  <original_smiles>  (24) 
Cc1ccc(C(=O)C=Cc2ccccc2O)c(O)c1

>  <smiles>  (24) 
[H]Oc1c([H])c([H])c([H])c([H])c1C([H])=C([H])C(=O)c1c([H])c([H])c(C([H])([H])[H])c([H])c1[O-]

$$$$
6:0:0
     RDKit          3D

 20 21  0  0  1  0  0  0  0  0999 V2000
    2.3684   -3.0852   -1.9539 C   0  0  0  0  0  0  0  0  0  0  0  0
    1.8179   -3.9722   -0.9882 O   0  0  0  0  0  0  0  0  0  0  0  0
    2.6886   -4.6523   -0.1579 C   0  0  0  0  0  0  0  0  0  0  0  0
    3.9353   -4.2807   -0.0366 N   0  0  0  0  0  0  0  0  0  0  0  0
    4.7516   -5.0260    0.7924 C   0  0  0  0  0  0  0  0  0  0  0  0
    6.1952   -4.5874    0.9436 C   0  0  0  0  0  0  0  0  0  0  0  0
    4.3409   -6.0948    1.4759 N   0  0  0  0  0  0  0  0  0  0  0  0
    3.0572   -6.4585    1.3364 C   0  0  0  0  0  0  0  0  0  0  0  0
    2.2882   -7.4646    1.8573 C   0  0  0  0  0  0  0  0  0  0  0  0
    1.0048   -7.2889    1.2879 C   0  0  0  0  0  0  0  0  0  0  0  0
    0.9182   -6.2572    0.4829 N   0  0  0  0  0  0  0  0  0  0  0  0
    2.1940   -5.7300    0.5042 N   0  0  0  0  0  0  0  0  0  0  0  0
    1.5501   -2.6487   -2.5198 H   0  0  0  0  0  0  0  0  0  0  0  0
    3.0012   -3.6061   -2.6724 H   0  0  0  0  0  0  0  0  0  0  0  0
    2.9325   -2.2657   -1.5048 H   0  0  0  0  0  0  0  0  0  0  0  0
    6.7433   -5.2376    1.6274 H   0  0  0  0  0  0  0  0  0  0  0  0
    6.2422   -3.5693    1.3324 H   0  0  0  0  0  0  0  0  0  0  0  0
    6.6969   -4.6106   -0.0239 H   0  0  0  0  0  0  0  0  0  0  0  0
    2.6042   -8.2318    2.5407 H   0  0  0  0  0  0  0  0  0  0  0  0
    0.1293   -7.9030    1.4480 H   0  0  0  0  0  0  0  0  0  0  0  0
  1  2  1  0
  1 13  1  0
  1 14  1  0
  1 15  1  0
  2  3  1  0
  3 12  1  0
  3  4  2  0
  4  5  1  0
  5  6  1  0
  5  7  2  0
  6 16  1  0
  6 17  1  0
  6 18  1  0
  7  8  1  0
  8 12  1  0
  8  9  2  0
  9 10  1  0
  9 19  1  0
 10 11  2  0
 10 20  1  0
 11 12  1  0
M  END
>  <i_m_ct_stereo_status>  (25) 
1

>  <s_m_source_file>  (25) 
/var/tmp/pbs.5076255.sched01/tmpt68d_85j/0g9mu2vg5.sdf

>  <i_m_source_file_index>  (25) 
10

>  <i_lp_mmshare_version>  (25) 
48012

>  <i_f3d_flags>  (25) 
0

>  <s_epik_input>  (25) 
W0NIM11jKG4xKW5jKE9bQ0gzXSluKGMxMiluW2NIXVtjSF0y

>  <s_epik_cmdline>  (25) 
J2VwaWtfcHl0aG9uJywgJy1waHQnLCAnMi4wJywgJy1waCcsICc3LjAnLCAnLXRuJywgJzgnLCAnLW1hJywgJzIwMCcsICctaW1hZScsICc8aW5maWxlLm1hZT4nLCAnLW9tYWUnLCAnPG91dGZpbGUubWFlPic=

>  <r_lp_tautomer_probability>  (25) 
1

>  <r_epik_Ionization_Penalty>  (25) 
1.95331e-06

>  <r_epik_Ionization_Penalty_Charging>  (25) 
0

>  <r_epik_Ionization_Penalty_Neutral>  (25) 
1.95331e-06

>  <r_epik_State_Penalty>  (25) 
-0

>  <r_epik_Charging_Adjusted_Penalty>  (25) 
0

>  <i_epik_Tot_Q>  (25) 
0

>  <i_epik_Tot_abs_Q>  (25) 
0

>  <s_lp_Force_Field>  (25) 
OPLS3e

>  <r_lp_Energy>  (25) 
8.30796

>  <b_lp_Chiralities_Consistent>  (25) 
1

>  <s_lp_Variant>  (25) 
6:0-1

>  <s_i_glide_gridfile>  (25) 
pfpi4k_grid

>  <i_i_glide_lignum>  (25) 
10

>  <i_i_glide_rotatable_bonds>  (25) 
1

>  <r_i_docking_score>  (25) 
-4.36369

>  <r_i_glide_ligand_efficiency>  (25) 
-0.363641

>  <r_i_glide_ligand_efficiency_sa>  (25) 
-0.83253

>  <r_i_glide_ligand_efficiency_ln>  (25) 
-1.25217

>  <r_i_glide_gscore>  (25) 
-4.36369

>  <r_i_glide_lipo>  (25) 
-0.143611

>  <r_i_glide_hbond>  (25) 
-0.217295

>  <r_i_glide_metal>  (25) 
-0

>  <r_i_glide_rewards>  (25) 
-2.38348

>  <r_i_glide_evdw>  (25) 
-13.3341

>  <r_i_glide_ecoul>  (25) 
-5.66875

>  <r_i_glide_erotb>  (25) 
0

>  <r_i_glide_esite>  (25) 
-0.102292

>  <r_i_glide_emodel>  (25) 
-25.5093

>  <r_i_glide_energy>  (25) 
-19.0028

>  <r_i_glide_einternal>  (25) 
0.273635

>  <r_i_glide_intrahb_reward>  (25) 
-0

>  <i_i_glide_confnum>  (25) 
1

>  <i_i_glide_posenum>  (25) 
5

>  <r_i_glide_eff_state_penalty>  (25) 
0

>  <ligand_id>  (25) 
6

>  <original_smiles>  (25) 
COc1nc(C)nc2ccnn12

>  <smiles>  (25) 
[H]c1nn2c(OC([H])([H])[H])nc(C([H])([H])[H])nc2c1[H]

$$$$
6:0:1
     RDKit          3D

 20 21  0  0  1  0  0  0  0  0999 V2000
    2.8601   -5.1857    0.4516 C   0  0  0  0  0  0  0  0  0  0  0  0
    1.6636   -5.8260    0.8866 O   0  0  0  0  0  0  0  0  0  0  0  0
    1.7685   -7.0634    1.4885 C   0  0  0  0  0  0  0  0  0  0  0  0
    2.8983   -7.7123    1.5087 N   0  0  0  0  0  0  0  0  0  0  0  0
    2.9134   -8.9653    2.0940 C   0  0  0  0  0  0  0  0  0  0  0  0
    4.2247   -9.7210    2.0909 C   0  0  0  0  0  0  0  0  0  0  0  0
    1.8504   -9.5307    2.6672 N   0  0  0  0  0  0  0  0  0  0  0  0
    0.7000   -8.8398    2.6529 C   0  0  0  0  0  0  0  0  0  0  0  0
   -0.5612   -9.0652    3.1342 C   0  0  0  0  0  0  0  0  0  0  0  0
   -1.3055   -7.9178    2.7727 C   0  0  0  0  0  0  0  0  0  0  0  0
   -0.6034   -7.0071    2.1323 N   0  0  0  0  0  0  0  0  0  0  0  0
    0.6449   -7.5735    2.0519 N   0  0  0  0  0  0  0  0  0  0  0  0
    2.6072   -4.2195    0.0189 H   0  0  0  0  0  0  0  0  0  0  0  0
    3.3793   -5.7573   -0.3172 H   0  0  0  0  0  0  0  0  0  0  0  0
    3.5441   -4.9991    1.2794 H   0  0  0  0  0  0  0  0  0  0  0  0
    4.1300  -10.6910    2.5828 H   0  0  0  0  0  0  0  0  0  0  0  0
    4.9939   -9.1480    2.6089 H   0  0  0  0  0  0  0  0  0  0  0  0
    4.5606   -9.8847    1.0666 H   0  0  0  0  0  0  0  0  0  0  0  0
   -0.9133   -9.9324    3.6751 H   0  0  0  0  0  0  0  0  0  0  0  0
   -2.3523   -7.7389    2.9823 H   0  0  0  0  0  0  0  0  0  0  0  0
  1  2  1  0
  1 13  1  0
  1 14  1  0
  1 15  1  0
  2  3  1  0
  3 12  1  0
  3  4  2  0
  4  5  1  0
  5  6  1  0
  5  7  2  0
  6 16  1  0
  6 17  1  0
  6 18  1  0
  7  8  1  0
  8 12  1  0
  8  9  2  0
  9 10  1  0
  9 19  1  0
 10 11  2  0
 10 20  1  0
 11 12  1  0
M  END
>  <i_m_ct_stereo_status>  (26) 
1

>  <s_m_source_file>  (26) 
/var/tmp/pbs.5076255.sched01/tmpt68d_85j/0g9mu2vg5.sdf

>  <i_m_source_file_index>  (26) 
10

>  <i_lp_mmshare_version>  (26) 
48012

>  <i_f3d_flags>  (26) 
0

>  <s_epik_input>  (26) 
W0NIM11jKG4xKW5jKE9bQ0gzXSluKGMxMiluW2NIXVtjSF0y

>  <s_epik_cmdline>  (26) 
J2VwaWtfcHl0aG9uJywgJy1waHQnLCAnMi4wJywgJy1waCcsICc3LjAnLCAnLXRuJywgJzgnLCAnLW1hJywgJzIwMCcsICctaW1hZScsICc8aW5maWxlLm1hZT4nLCAnLW9tYWUnLCAnPG91dGZpbGUubWFlPic=

>  <r_lp_tautomer_probability>  (26) 
1

>  <r_epik_Ionization_Penalty>  (26) 
1.95331e-06

>  <r_epik_Ionization_Penalty_Charging>  (26) 
0

>  <r_epik_Ionization_Penalty_Neutral>  (26) 
1.95331e-06

>  <r_epik_State_Penalty>  (26) 
-0

>  <r_epik_Charging_Adjusted_Penalty>  (26) 
0

>  <i_epik_Tot_Q>  (26) 
0

>  <i_epik_Tot_abs_Q>  (26) 
0

>  <s_lp_Force_Field>  (26) 
OPLS3e

>  <r_lp_Energy>  (26) 
8.30796

>  <b_lp_Chiralities_Consistent>  (26) 
1

>  <s_lp_Variant>  (26) 
6:0-1

>  <s_i_glide_gridfile>  (26) 
pfpi4k_grid

>  <i_i_glide_lignum>  (26) 
10

>  <i_i_glide_rotatable_bonds>  (26) 
1

>  <r_i_docking_score>  (26) 
-4.165

>  <r_i_glide_ligand_efficiency>  (26) 
-0.347083

>  <r_i_glide_ligand_efficiency_sa>  (26) 
-0.794623

>  <r_i_glide_ligand_efficiency_ln>  (26) 
-1.19515

>  <r_i_glide_gscore>  (26) 
-4.165

>  <r_i_glide_lipo>  (26) 
0

>  <r_i_glide_hbond>  (26) 
-0.275385

>  <r_i_glide_metal>  (26) 
-0

>  <r_i_glide_rewards>  (26) 
-2.25

>  <r_i_glide_evdw>  (26) 
-16.9335

>  <r_i_glide_ecoul>  (26) 
-4.47129

>  <r_i_glide_erotb>  (26) 
0

>  <r_i_glide_esite>  (26) 
-0.12225

>  <r_i_glide_emodel>  (26) 
-27.7222

>  <r_i_glide_energy>  (26) 
-21.4048

>  <r_i_glide_einternal>  (26) 
0.0764843

>  <r_i_glide_intrahb_reward>  (26) 
-0

>  <i_i_glide_confnum>  (26) 
1

>  <i_i_glide_posenum>  (26) 
24

>  <r_i_glide_eff_state_penalty>  (26) 
0

>  <ligand_id>  (26) 
6

>  <original_smiles>  (26) 
COc1nc(C)nc2ccnn12

>  <smiles>  (26) 
[H]c1nn2c(OC([H])([H])[H])nc(C([H])([H])[H])nc2c1[H]

$$$$
6:0:2
     RDKit          3D

 20 21  0  0  1  0  0  0  0  0999 V2000
    2.2768   -4.6964    5.6375 C   0  0  0  0  0  0  0  0  0  0  0  0
    1.2496   -5.6031    5.2494 O   0  0  0  0  0  0  0  0  0  0  0  0
    1.1689   -5.9720    3.9215 C   0  0  0  0  0  0  0  0  0  0  0  0
    1.9679   -5.4594    3.0270 N   0  0  0  0  0  0  0  0  0  0  0  0
    1.8153   -5.8564    1.7123 C   0  0  0  0  0  0  0  0  0  0  0  0
    2.7458   -5.2503    0.6811 C   0  0  0  0  0  0  0  0  0  0  0  0
    0.8695   -6.7015    1.2967 N   0  0  0  0  0  0  0  0  0  0  0  0
    0.0767   -7.2478    2.2340 C   0  0  0  0  0  0  0  0  0  0  0  0
   -0.9596   -8.1400    2.2083 C   0  0  0  0  0  0  0  0  0  0  0  0
   -1.3843   -8.2553    3.5577 C   0  0  0  0  0  0  0  0  0  0  0  0
   -0.7264   -7.4707    4.3828 N   0  0  0  0  0  0  0  0  0  0  0  0
    0.2045   -6.8640    3.5766 N   0  0  0  0  0  0  0  0  0  0  0  0
    2.2113   -4.5280    6.7108 H   0  0  0  0  0  0  0  0  0  0  0  0
    2.1697   -3.7271    5.1506 H   0  0  0  0  0  0  0  0  0  0  0  0
    3.2719   -5.0918    5.4326 H   0  0  0  0  0  0  0  0  0  0  0  0
    2.5381   -5.6334   -0.3198 H   0  0  0  0  0  0  0  0  0  0  0  0
    3.7839   -5.4812    0.9227 H   0  0  0  0  0  0  0  0  0  0  0  0
    2.6321   -4.1661    0.6591 H   0  0  0  0  0  0  0  0  0  0  0  0
   -1.3392   -8.6691    1.3478 H   0  0  0  0  0  0  0  0  0  0  0  0
   -2.1741   -8.8890    3.9441 H   0  0  0  0  0  0  0  0  0  0  0  0
  1  2  1  0
  1 13  1  0
  1 14  1  0
  1 15  1  0
  2  3  1  0
  3 12  1  0
  3  4  2  0
  4  5  1  0
  5  6  1  0
  5  7  2  0
  6 16  1  0
  6 17  1  0
  6 18  1  0
  7  8  1  0
  8 12  1  0
  8  9  2  0
  9 10  1  0
  9 19  1  0
 10 11  2  0
 10 20  1  0
 11 12  1  0
M  END
>  <i_m_ct_stereo_status>  (27) 
1

>  <s_m_source_file>  (27) 
/var/tmp/pbs.5076255.sched01/tmpt68d_85j/0g9mu2vg5.sdf

>  <i_m_source_file_index>  (27) 
10

>  <i_lp_mmshare_version>  (27) 
48012

>  <i_f3d_flags>  (27) 
0

>  <s_epik_input>  (27) 
W0NIM11jKG4xKW5jKE9bQ0gzXSluKGMxMiluW2NIXVtjSF0y

>  <s_epik_cmdline>  (27) 
J2VwaWtfcHl0aG9uJywgJy1waHQnLCAnMi4wJywgJy1waCcsICc3LjAnLCAnLXRuJywgJzgnLCAnLW1hJywgJzIwMCcsICctaW1hZScsICc8aW5maWxlLm1hZT4nLCAnLW9tYWUnLCAnPG91dGZpbGUubWFlPic=

>  <r_lp_tautomer_probability>  (27) 
1

>  <r_epik_Ionization_Penalty>  (27) 
1.95331e-06

>  <r_epik_Ionization_Penalty_Charging>  (27) 
0

>  <r_epik_Ionization_Penalty_Neutral>  (27) 
1.95331e-06

>  <r_epik_State_Penalty>  (27) 
-0

>  <r_epik_Charging_Adjusted_Penalty>  (27) 
0

>  <i_epik_Tot_Q>  (27) 
0

>  <i_epik_Tot_abs_Q>  (27) 
0

>  <s_lp_Force_Field>  (27) 
OPLS3e

>  <r_lp_Energy>  (27) 
8.30796

>  <b_lp_Chiralities_Consistent>  (27) 
1

>  <s_lp_Variant>  (27) 
6:0-1

>  <s_i_glide_gridfile>  (27) 
pfpi4k_grid

>  <i_i_glide_lignum>  (27) 
10

>  <i_i_glide_rotatable_bonds>  (27) 
1

>  <r_i_docking_score>  (27) 
-3.57717

>  <r_i_glide_ligand_efficiency>  (27) 
-0.298097

>  <r_i_glide_ligand_efficiency_sa>  (27) 
-0.682472

>  <r_i_glide_ligand_efficiency_ln>  (27) 
-1.02647

>  <r_i_glide_gscore>  (27) 
-3.57717

>  <r_i_glide_lipo>  (27) 
0

>  <r_i_glide_hbond>  (27) 
-0.0410606

>  <r_i_glide_metal>  (27) 
-0

>  <r_i_glide_rewards>  (27) 
-2.25

>  <r_i_glide_evdw>  (27) 
-15.217

>  <r_i_glide_ecoul>  (27) 
-2.3055

>  <r_i_glide_erotb>  (27) 
0

>  <r_i_glide_esite>  (27) 
-0.179433

>  <r_i_glide_emodel>  (27) 
-22.9816

>  <r_i_glide_energy>  (27) 
-17.5225

>  <r_i_glide_einternal>  (27) 
0.00365485

>  <r_i_glide_intrahb_reward>  (27) 
-0

>  <i_i_glide_confnum>  (27) 
1

>  <i_i_glide_posenum>  (27) 
8

>  <r_i_glide_eff_state_penalty>  (27) 
0

>  <ligand_id>  (27) 
6

>  <original_smiles>  (27) 
COc1nc(C)nc2ccnn12

>  <smiles>  (27) 
[H]c1nn2c(OC([H])([H])[H])nc(C([H])([H])[H])nc2c1[H]

$$$$
7:0:0
     RDKit          3D

 74 79  0  0  1  0  0  0  0  0999 V2000
    3.6182   -5.9166    7.7592 C   0  0  0  0  0  0  0  0  0  0  0  0
    4.7188   -5.7946    6.6838 C   0  0  2  0  0  0  0  0  0  0  0  0
    4.7571   -4.5051    6.0800 O   0  0  0  0  0  0  0  0  0  0  0  0
    3.7612   -4.4529    5.0723 C   0  0  1  0  0  0  0  0  0  0  0  0
    3.9278   -3.2341    4.1254 C   0  0  0  0  0  0  0  0  0  0  0  0
    4.8210   -3.3382    2.8569 C   0  0  2  0  0  0  0  0  0  0  0  0
    4.8504   -1.8351    2.0589 C   0  0  2  0  0  0  0  0  0  0  0  0
    5.5787   -0.8214    2.9728 C   0  0  0  0  0  0  0  0  0  0  0  0
    3.5373   -1.0823    1.6920 C   0  0  0  0  0  0  0  0  0  0  0  0
    3.6318   -0.6603    0.1848 C   0  0  0  0  0  0  0  0  0  0  0  0
    4.7332   -1.4567   -0.5717 C   0  0  1  0  0  0  0  0  0  0  0  0
    5.6065   -1.7050    0.6850 C   0  0  2  0  0  0  0  0  0  0  0  0
    5.9987   -3.0134    0.3433 C   0  0  1  0  0  0  0  0  0  0  0  0
    7.0768   -3.4221    1.1394 O   0  0  0  0  0  0  0  0  0  0  0  0
    4.6059   -3.7440   -0.0321 C   0  0  2  0  0  0  0  0  0  0  0  0
    3.0943   -3.6321    0.4026 C   0  0  0  0  0  0  0  0  0  0  0  0
    4.9068   -5.1246    0.6074 C   0  0  2  0  0  0  0  0  0  0  0  0
    4.0582   -6.1918    0.1856 O   0  0  0  0  0  0  0  0  0  0  0  0
    4.3332   -7.4083    0.8687 C   0  0  0  0  0  0  0  0  0  0  0  0
    3.8333   -7.3581    2.3223 C   0  0  0  0  0  0  0  0  0  0  0  0
    3.7231   -5.9098    2.9012 C   0  0  1  0  0  0  0  0  0  0  0  0
    2.2194   -5.5895    2.5871 C   0  0  0  0  0  0  0  0  0  0  0  0
    3.7380   -5.8688    4.4805 C   0  0  1  0  0  0  0  0  0  0  0  0
    4.5376   -6.7587    5.4964 C   0  0  1  0  0  0  0  0  0  0  0  0
    5.8956   -7.4501    5.2211 C   0  0  0  0  0  0  0  0  0  0  0  0
    4.8485   -4.9216    2.2387 C   0  0  2  0  0  0  0  0  0  0  0  0
    6.1782   -5.5734    2.7590 C   0  0  0  0  0  0  0  0  0  0  0  0
    4.4940   -2.8848   -1.3576 C   0  0  0  0  0  0  0  0  0  0  0  0
    3.1996   -2.8390   -2.2434 C   0  0  0  0  0  0  0  0  0  0  0  0
    5.5714   -3.2496   -2.4357 C   0  0  0  0  0  0  0  0  0  0  0  0
    3.6782   -6.8865    8.2574 H   0  0  0  0  0  0  0  0  0  0  0  0
    2.6115   -5.8311    7.3493 H   0  0  0  0  0  0  0  0  0  0  0  0
    3.7344   -5.1523    8.5281 H   0  0  0  0  0  0  0  0  0  0  0  0
    5.6793   -5.9400    7.1825 H   0  0  0  0  0  0  0  0  0  0  0  0
    2.8183   -4.2944    5.5993 H   0  0  0  0  0  0  0  0  0  0  0  0
    2.9401   -2.8771    3.8355 H   0  0  0  0  0  0  0  0  0  0  0  0
    4.3214   -2.4532    4.7689 H   0  0  0  0  0  0  0  0  0  0  0  0
    5.7947   -3.2778    3.3325 H   0  0  0  0  0  0  0  0  0  0  0  0
    5.6596    0.1564    2.5007 H   0  0  0  0  0  0  0  0  0  0  0  0
    6.5988   -1.1242    3.1660 H   0  0  0  0  0  0  0  0  0  0  0  0
    5.0623   -0.6527    3.9153 H   0  0  0  0  0  0  0  0  0  0  0  0
    2.6245   -1.6178    1.9471 H   0  0  0  0  0  0  0  0  0  0  0  0
    3.4262   -0.1634    2.2637 H   0  0  0  0  0  0  0  0  0  0  0  0
    2.6650   -0.6781   -0.3085 H   0  0  0  0  0  0  0  0  0  0  0  0
    3.9556    0.3799    0.1561 H   0  0  0  0  0  0  0  0  0  0  0  0
    5.2154   -0.7733   -1.2692 H   0  0  0  0  0  0  0  0  0  0  0  0
    6.4553   -1.0158    0.7104 H   0  0  0  0  0  0  0  0  0  0  0  0
    6.7032   -2.9118   -0.4769 H   0  0  0  0  0  0  0  0  0  0  0  0
    6.7457   -3.5578    2.0157 H   0  0  0  0  0  0  0  0  0  0  0  0
    2.5238   -4.4352   -0.0576 H   0  0  0  0  0  0  0  0  0  0  0  0
    2.5020   -2.7924    0.1065 H   0  0  0  0  0  0  0  0  0  0  0  0
    2.9033   -3.6305    1.4455 H   0  0  0  0  0  0  0  0  0  0  0  0
    5.8918   -5.4543    0.2724 H   0  0  0  0  0  0  0  0  0  0  0  0
    3.8153   -8.2262    0.3716 H   0  0  0  0  0  0  0  0  0  0  0  0
    5.3977   -7.6289    0.8060 H   0  0  0  0  0  0  0  0  0  0  0  0
    2.8641   -7.8594    2.3551 H   0  0  0  0  0  0  0  0  0  0  0  0
    4.4480   -8.0172    2.9232 H   0  0  0  0  0  0  0  0  0  0  0  0
    1.8899   -4.6204    2.9491 H   0  0  0  0  0  0  0  0  0  0  0  0
    1.5376   -6.2908    3.0688 H   0  0  0  0  0  0  0  0  0  0  0  0
    1.9714   -5.6964    1.5402 H   0  0  0  0  0  0  0  0  0  0  0  0
    2.7506   -6.2271    4.7632 H   0  0  0  0  0  0  0  0  0  0  0  0
    3.8831   -7.5764    5.8050 H   0  0  0  0  0  0  0  0  0  0  0  0
    6.7293   -6.7574    5.1156 H   0  0  0  0  0  0  0  0  0  0  0  0
    5.8927   -8.1443    4.3865 H   0  0  0  0  0  0  0  0  0  0  0  0
    6.1492   -8.0610    6.0870 H   0  0  0  0  0  0  0  0  0  0  0  0
    6.1494   -6.6507    2.7839 H   0  0  0  0  0  0  0  0  0  0  0  0
    6.4244   -5.2229    3.7552 H   0  0  0  0  0  0  0  0  0  0  0  0
    7.0654   -5.4474    2.1551 H   0  0  0  0  0  0  0  0  0  0  0  0
    2.8650   -3.8502   -2.5032 H   0  0  0  0  0  0  0  0  0  0  0  0
    3.3831   -2.3131   -3.1804 H   0  0  0  0  0  0  0  0  0  0  0  0
    2.3450   -2.3040   -1.8428 H   0  0  0  0  0  0  0  0  0  0  0  0
    6.1386   -4.1317   -2.1465 H   0  0  0  0  0  0  0  0  0  0  0  0
    6.2789   -2.4371   -2.5974 H   0  0  0  0  0  0  0  0  0  0  0  0
    5.1695   -3.5061   -3.4155 H   0  0  0  0  0  0  0  0  0  0  0  0
  1  2  1  0
  1 31  1  0
  1 32  1  0
  1 33  1  0
  2 24  1  0
  2  3  1  0
  2 34  1  1
  3  4  1  0
  4 23  1  0
  4  5  1  0
  4 35  1  1
  5  6  1  0
  5 36  1  0
  5 37  1  0
  6 26  1  0
  6  7  1  0
  6 38  1  1
  7 12  1  0
  7  8  1  1
  7  9  1  0
  8 39  1  0
  8 40  1  0
  8 41  1  0
  9 10  1  0
  9 42  1  0
  9 43  1  0
 10 11  1  0
 10 44  1  0
 10 45  1  0
 11 28  1  0
 11 12  1  0
 11 46  1  6
 12 13  1  0
 12 47  1  1
 13 14  1  0
 13 15  1  0
 13 48  1  6
 14 49  1  0
 15 16  1  1
 15 17  1  0
 15 28  1  0
 16 50  1  0
 16 51  1  0
 16 52  1  0
 17 26  1  0
 17 18  1  0
 17 53  1  1
 18 19  1  0
 19 20  1  0
 19 54  1  0
 19 55  1  0
 20 21  1  0
 20 56  1  0
 20 57  1  0
 21 22  1  6
 21 23  1  0
 21 26  1  0
 22 58  1  0
 22 59  1  0
 22 60  1  0
 23 24  1  0
 23 61  1  1
 24 25  1  0
 24 62  1  1
 25 63  1  0
 25 64  1  0
 25 65  1  0
 26 27  1  1
 27 66  1  0
 27 67  1  0
 27 68  1  0
 28 29  1  0
 28 30  1  0
 29 69  1  0
 29 70  1  0
 29 71  1  0
 30 72  1  0
 30 73  1  0
 30 74  1  0
M  END
>  <i_m_ct_stereo_status>  (28) 
1

>  <s_m_source_file>  (28) 
/var/tmp/pbs.5076255.sched01/tmpt68d_85j/0g9mu2vg5.sdf

>  <i_m_source_file_index>  (28) 
11

>  <i_lp_mmshare_version>  (28) 
48012

>  <i_f3d_flags>  (28) 
0

>  <s_epik_input>  (28) 
W0NIM11bQ0BIXTFbQ0BIXShbQ0gzXSlPW0NAQEhdKFtDSDJdMilbQ0BIXTFbQ0BdMyhbQ0gzXSlbQ0gyXVtDSDJdT1tDQEhdKFtDQEBdMyhbQ0gzXSlbQ0BIXTJbQ0BdNDVbQ0gzXSlbQ0BAXTYoW0NIM10pW0NASF0oW09IXSlbQ0BIXTVbQ0BIXShbQ0gyXVtDSDJdNClDNihbQ0gzXSlbQ0gzXQ==

>  <s_epik_cmdline>  (28) 
J2VwaWtfcHl0aG9uJywgJy1waHQnLCAnMi4wJywgJy1waCcsICc3LjAnLCAnLXRuJywgJzgnLCAnLW1hJywgJzIwMCcsICctaW1hZScsICc8aW5maWxlLm1hZT4nLCAnLW9tYWUnLCAnPG91dGZpbGUubWFlPic=

>  <r_lp_tautomer_probability>  (28) 
1

>  <r_epik_Ionization_Penalty>  (28) 
1.24722e-06

>  <r_epik_Ionization_Penalty_Charging>  (28) 
0

>  <r_epik_Ionization_Penalty_Neutral>  (28) 
1.24722e-06

>  <r_epik_State_Penalty>  (28) 
-0

>  <r_epik_Charging_Adjusted_Penalty>  (28) 
0

>  <i_epik_Tot_Q>  (28) 
0

>  <i_epik_Tot_abs_Q>  (28) 
0

>  <s_lp_Force_Field>  (28) 
OPLS3e

>  <r_lp_Energy>  (28) 
277.909

>  <b_lp_Chiralities_Consistent>  (28) 
1

>  <s_lp_Variant>  (28) 
7:0-1

>  <s_i_glide_gridfile>  (28) 
pfpi4k_grid

>  <i_i_glide_lignum>  (28) 
11

>  <i_i_glide_rotatable_bonds>  (28) 
1

>  <r_i_docking_score>  (28) 
-2.50394

>  <r_i_glide_ligand_efficiency>  (28) 
-0.0834645

>  <r_i_glide_ligand_efficiency_sa>  (28) 
-0.259344

>  <r_i_glide_ligand_efficiency_ln>  (28) 
-0.568922

>  <r_i_glide_gscore>  (28) 
-2.50394

>  <r_i_glide_lipo>  (28) 
-0.82099

>  <r_i_glide_hbond>  (28) 
0

>  <r_i_glide_metal>  (28) 
-0

>  <r_i_glide_rewards>  (28) 
-0.568388

>  <r_i_glide_evdw>  (28) 
-23.0345

>  <r_i_glide_ecoul>  (28) 
0.247788

>  <r_i_glide_erotb>  (28) 
0

>  <r_i_glide_esite>  (28) 
0

>  <r_i_glide_emodel>  (28) 
-26.4064

>  <r_i_glide_energy>  (28) 
-22.7867

>  <r_i_glide_einternal>  (28) 
0.0107023

>  <r_i_glide_intrahb_reward>  (28) 
-0

>  <i_i_glide_confnum>  (28) 
1

>  <i_i_glide_posenum>  (28) 
9

>  <r_i_glide_eff_state_penalty>  (28) 
0

>  <ligand_id>  (28) 
7

>  <original_smiles>  (28) 
CC1OC2CC3C4(C)CCC5C4C(O)C(C)(C4OCCC(C)(C2C1C)C34C)C5(C)C

>  <smiles>  (28) 
[H]OC1([H])C2([H])C3([H])C([H])([H])C([H])([H])C2(C([H])([H])[H])C2([H])C([H])([H])C4([H])OC([H])(C([H])([H])[H])C([H])(C([H])([H])[H])C4([H])C4(C([H])([H])[H])C([H])([H])C([H])([H])OC([H])(C1(C([H])([H])[H])C3(C([H])([H])[H])C([H])([H])[H])C24C([H])([H])[H]

$$$$
7:0:1
     RDKit          3D

 74 79  0  0  1  0  0  0  0  0999 V2000
    4.5286   -1.6784   -1.5337 C   0  0  0  0  0  0  0  0  0  0  0  0
    5.0382   -2.0123   -0.1164 C   0  0  2  0  0  0  0  0  0  0  0  0
    5.7278   -3.2568   -0.0654 O   0  0  0  0  0  0  0  0  0  0  0  0
    4.7719   -4.3005    0.0386 C   0  0  1  0  0  0  0  0  0  0  0  0
    5.4031   -5.6575    0.4500 C   0  0  0  0  0  0  0  0  0  0  0  0
    5.5551   -6.0408    1.9464 C   0  0  2  0  0  0  0  0  0  0  0  0
    6.3395   -7.5502    2.0735 C   0  0  2  0  0  0  0  0  0  0  0  0
    7.7920   -7.3276    1.5653 C   0  0  0  0  0  0  0  0  0  0  0  0
    5.8284   -8.8159    1.2974 C   0  0  0  0  0  0  0  0  0  0  0  0
    5.6636  -10.0147    2.3062 C   0  0  0  0  0  0  0  0  0  0  0  0
    5.6927   -9.5001    3.7791 C   0  0  1  0  0  0  0  0  0  0  0  0
    6.5237   -8.2181    3.4856 C   0  0  2  0  0  0  0  0  0  0  0  0
    5.8463   -7.3706    4.3849 C   0  0  1  0  0  0  0  0  0  0  0  0
    6.5838   -6.1865    4.5765 O   0  0  0  0  0  0  0  0  0  0  0  0
    4.2891   -7.6319    4.0251 C   0  0  2  0  0  0  0  0  0  0  0  0
    3.4522   -8.0189    2.7402 C   0  0  0  0  0  0  0  0  0  0  0  0
    3.7709   -6.1817    4.1819 C   0  0  2  0  0  0  0  0  0  0  0  0
    2.3544   -6.0562    4.3007 O   0  0  0  0  0  0  0  0  0  0  0  0
    1.9371   -4.6988    4.3606 C   0  0  0  0  0  0  0  0  0  0  0  0
    2.0758   -4.0088    2.9881 C   0  0  0  0  0  0  0  0  0  0  0  0
    3.1299   -4.6717    2.0432 C   0  0  1  0  0  0  0  0  0  0  0  0
    2.2227   -5.6668    1.2358 C   0  0  0  0  0  0  0  0  0  0  0  0
    3.6454   -3.7093    0.8964 C   0  0  1  0  0  0  0  0  0  0  0  0
    3.9188   -2.1601    0.9335 C   0  0  1  0  0  0  0  0  0  0  0  0
    4.3144   -1.3429    2.1861 C   0  0  0  0  0  0  0  0  0  0  0  0
    4.3512   -5.3290    2.9048 C   0  0  2  0  0  0  0  0  0  0  0  0
    5.0011   -4.0551    3.5557 C   0  0  0  0  0  0  0  0  0  0  0  0
    4.3595   -9.0831    4.6508 C   0  0  0  0  0  0  0  0  0  0  0  0
    3.1991  -10.1293    4.4866 C   0  0  0  0  0  0  0  0  0  0  0  0
    4.5396   -9.0910    6.2119 C   0  0  0  0  0  0  0  0  0  0  0  0
    4.0818   -0.6820   -1.5554 H   0  0  0  0  0  0  0  0  0  0  0  0
    3.7657   -2.3761   -1.8825 H   0  0  0  0  0  0  0  0  0  0  0  0
    5.3438   -1.6840   -2.2582 H   0  0  0  0  0  0  0  0  0  0  0  0
    5.7538   -1.2375    0.1630 H   0  0  0  0  0  0  0  0  0  0  0  0
    4.3836   -4.4491   -0.9709 H   0  0  0  0  0  0  0  0  0  0  0  0
    4.8831   -6.4597   -0.0718 H   0  0  0  0  0  0  0  0  0  0  0  0
    6.3917   -5.6327    0.0026 H   0  0  0  0  0  0  0  0  0  0  0  0
    6.4010   -5.4065    2.1846 H   0  0  0  0  0  0  0  0  0  0  0  0
    8.3963   -8.2251    1.6948 H   0  0  0  0  0  0  0  0  0  0  0  0
    8.3025   -6.5300    2.1028 H   0  0  0  0  0  0  0  0  0  0  0  0
    7.8354   -7.0977    0.5031 H   0  0  0  0  0  0  0  0  0  0  0  0
    4.9337   -8.6384    0.7044 H   0  0  0  0  0  0  0  0  0  0  0  0
    6.5499   -9.1337    0.5441 H   0  0  0  0  0  0  0  0  0  0  0  0
    4.8156  -10.6603    2.0809 H   0  0  0  0  0  0  0  0  0  0  0  0
    6.5317  -10.6652    2.1794 H   0  0  0  0  0  0  0  0  0  0  0  0
    6.2672  -10.2111    4.3761 H   0  0  0  0  0  0  0  0  0  0  0  0
    7.5679   -8.3622    3.7737 H   0  0  0  0  0  0  0  0  0  0  0  0
    6.1436   -7.6810    5.3802 H   0  0  0  0  0  0  0  0  0  0  0  0
    6.5940   -5.7168    3.7570 H   0  0  0  0  0  0  0  0  0  0  0  0
    2.3904   -7.9778    2.9650 H   0  0  0  0  0  0  0  0  0  0  0  0
    3.5019   -9.0042    2.3257 H   0  0  0  0  0  0  0  0  0  0  0  0
    3.6405   -7.4548    1.8614 H   0  0  0  0  0  0  0  0  0  0  0  0
    4.1359   -5.7931    5.1334 H   0  0  0  0  0  0  0  0  0  0  0  0
    0.8902   -4.6633    4.6602 H   0  0  0  0  0  0  0  0  0  0  0  0
    2.4999   -4.1782    5.1374 H   0  0  0  0  0  0  0  0  0  0  0  0
    1.0929   -4.0059    2.5200 H   0  0  0  0  0  0  0  0  0  0  0  0
    2.2542   -2.9523    3.1464 H   0  0  0  0  0  0  0  0  0  0  0  0
    2.7508   -6.2315    0.4734 H   0  0  0  0  0  0  0  0  0  0  0  0
    1.4434   -5.1560    0.6728 H   0  0  0  0  0  0  0  0  0  0  0  0
    1.6603   -6.3425    1.8690 H   0  0  0  0  0  0  0  0  0  0  0  0
    2.8147   -3.6638    0.1945 H   0  0  0  0  0  0  0  0  0  0  0  0
    3.0217   -1.6577    0.5603 H   0  0  0  0  0  0  0  0  0  0  0  0
    5.3121   -1.5658    2.5601 H   0  0  0  0  0  0  0  0  0  0  0  0
    3.6012   -1.3912    3.0033 H   0  0  0  0  0  0  0  0  0  0  0  0
    4.3488   -0.2885    1.9116 H   0  0  0  0  0  0  0  0  0  0  0  0
    4.2811   -3.3104    3.8586 H   0  0  0  0  0  0  0  0  0  0  0  0
    5.7053   -3.5792    2.8813 H   0  0  0  0  0  0  0  0  0  0  0  0
    5.5132   -4.1881    4.4988 H   0  0  0  0  0  0  0  0  0  0  0  0
    2.2404   -9.7046    4.7919 H   0  0  0  0  0  0  0  0  0  0  0  0
    3.3742  -11.0072    5.1113 H   0  0  0  0  0  0  0  0  0  0  0  0
    3.0710  -10.5718    3.5026 H   0  0  0  0  0  0  0  0  0  0  0  0
    4.4384   -8.0926    6.6402 H   0  0  0  0  0  0  0  0  0  0  0  0
    5.5135   -9.4872    6.5016 H   0  0  0  0  0  0  0  0  0  0  0  0
    3.8027   -9.6896    6.7502 H   0  0  0  0  0  0  0  0  0  0  0  0
  1  2  1  0
  1 31  1  0
  1 32  1  0
  1 33  1  0
  2 24  1  0
  2  3  1  0
  2 34  1  1
  3  4  1  0
  4 23  1  0
  4  5  1  0
  4 35  1  6
  5  6  1  0
  5 36  1  0
  5 37  1  0
  6 26  1  0
  6  7  1  0
  6 38  1  1
  7 12  1  0
  7  8  1  6
  7  9  1  0
  8 39  1  0
  8 40  1  0
  8 41  1  0
  9 10  1  0
  9 42  1  0
  9 43  1  0
 10 11  1  0
 10 44  1  0
 10 45  1  0
 11 28  1  0
 11 12  1  0
 11 46  1  1
 12 13  1  0
 12 47  1  1
 13 14  1  0
 13 15  1  0
 13 48  1  1
 14 49  1  0
 15 16  1  6
 15 17  1  0
 15 28  1  0
 16 50  1  0
 16 51  1  0
 16 52  1  0
 17 26  1  0
 17 18  1  0
 17 53  1  1
 18 19  1  0
 19 20  1  0
 19 54  1  0
 19 55  1  0
 20 21  1  0
 20 56  1  0
 20 57  1  0
 21 22  1  6
 21 23  1  0
 21 26  1  0
 22 58  1  0
 22 59  1  0
 22 60  1  0
 23 24  1  0
 23 61  1  6
 24 25  1  0
 24 62  1  6
 25 63  1  0
 25 64  1  0
 25 65  1  0
 26 27  1  1
 27 66  1  0
 27 67  1  0
 27 68  1  0
 28 29  1  0
 28 30  1  0
 29 69  1  0
 29 70  1  0
 29 71  1  0
 30 72  1  0
 30 73  1  0
 30 74  1  0
M  END
>  <i_m_ct_stereo_status>  (29) 
1

>  <s_m_source_file>  (29) 
/var/tmp/pbs.5076255.sched01/tmpt68d_85j/0g9mu2vg5.sdf

>  <i_m_source_file_index>  (29) 
11

>  <i_lp_mmshare_version>  (29) 
48012

>  <i_f3d_flags>  (29) 
0

>  <s_epik_input>  (29) 
W0NIM11bQ0BIXTFbQ0BIXShbQ0gzXSlPW0NAQEhdKFtDSDJdMilbQ0BIXTFbQ0BdMyhbQ0gzXSlbQ0gyXVtDSDJdT1tDQEhdKFtDQEBdMyhbQ0gzXSlbQ0BIXTJbQ0BdNDVbQ0gzXSlbQ0BAXTYoW0NIM10pW0NASF0oW09IXSlbQ0BIXTVbQ0BIXShbQ0gyXVtDSDJdNClDNihbQ0gzXSlbQ0gzXQ==

>  <s_epik_cmdline>  (29) 
J2VwaWtfcHl0aG9uJywgJy1waHQnLCAnMi4wJywgJy1waCcsICc3LjAnLCAnLXRuJywgJzgnLCAnLW1hJywgJzIwMCcsICctaW1hZScsICc8aW5maWxlLm1hZT4nLCAnLW9tYWUnLCAnPG91dGZpbGUubWFlPic=

>  <r_lp_tautomer_probability>  (29) 
1

>  <r_epik_Ionization_Penalty>  (29) 
1.24722e-06

>  <r_epik_Ionization_Penalty_Charging>  (29) 
0

>  <r_epik_Ionization_Penalty_Neutral>  (29) 
1.24722e-06

>  <r_epik_State_Penalty>  (29) 
-0

>  <r_epik_Charging_Adjusted_Penalty>  (29) 
0

>  <i_epik_Tot_Q>  (29) 
0

>  <i_epik_Tot_abs_Q>  (29) 
0

>  <s_lp_Force_Field>  (29) 
OPLS3e

>  <r_lp_Energy>  (29) 
277.909

>  <b_lp_Chiralities_Consistent>  (29) 
1

>  <s_lp_Variant>  (29) 
7:0-1

>  <s_i_glide_gridfile>  (29) 
pfpi4k_grid

>  <i_i_glide_lignum>  (29) 
11

>  <i_i_glide_rotatable_bonds>  (29) 
1

>  <r_i_docking_score>  (29) 
-2.36921

>  <r_i_glide_ligand_efficiency>  (29) 
-0.0789735

>  <r_i_glide_ligand_efficiency_sa>  (29) 
-0.245389

>  <r_i_glide_ligand_efficiency_ln>  (29) 
-0.538309

>  <r_i_glide_gscore>  (29) 
-2.36921

>  <r_i_glide_lipo>  (29) 
-0.350821

>  <r_i_glide_hbond>  (29) 
0

>  <r_i_glide_metal>  (29) 
-0

>  <r_i_glide_rewards>  (29) 
-0.568388

>  <r_i_glide_evdw>  (29) 
-25.9744

>  <r_i_glide_ecoul>  (29) 
-1.00851

>  <r_i_glide_erotb>  (29) 
0

>  <r_i_glide_esite>  (29) 
0

>  <r_i_glide_emodel>  (29) 
-30.5777

>  <r_i_glide_energy>  (29) 
-26.9829

>  <r_i_glide_einternal>  (29) 
0.0111249

>  <r_i_glide_intrahb_reward>  (29) 
-0

>  <i_i_glide_confnum>  (29) 
1

>  <i_i_glide_posenum>  (29) 
8

>  <r_i_glide_eff_state_penalty>  (29) 
0

>  <ligand_id>  (29) 
7

>  <original_smiles>  (29) 
CC1OC2CC3C4(C)CCC5C4C(O)C(C)(C4OCCC(C)(C2C1C)C34C)C5(C)C

>  <smiles>  (29) 
[H]OC1([H])C2([H])C3([H])C([H])([H])C([H])([H])C2(C([H])([H])[H])C2([H])C([H])([H])C4([H])OC([H])(C([H])([H])[H])C([H])(C([H])([H])[H])C4([H])C4(C([H])([H])[H])C([H])([H])C([H])([H])OC([H])(C1(C([H])([H])[H])C3(C([H])([H])[H])C([H])([H])[H])C24C([H])([H])[H]

$$$$
7:0:2
     RDKit          3D

 74 79  0  0  1  0  0  0  0  0999 V2000
    4.5190   -1.7184   -1.5078 C   0  0  0  0  0  0  0  0  0  0  0  0
    5.0217   -2.0562   -0.0890 C   0  0  2  0  0  0  0  0  0  0  0  0
    5.7168   -3.2976   -0.0409 O   0  0  0  0  0  0  0  0  0  0  0  0
    4.7658   -4.3462    0.0624 C   0  0  1  0  0  0  0  0  0  0  0  0
    5.4039   -5.6966    0.4744 C   0  0  0  0  0  0  0  0  0  0  0  0
    5.5440   -6.0884    1.9690 C   0  0  2  0  0  0  0  0  0  0  0  0
    6.3355   -7.5924    2.0976 C   0  0  2  0  0  0  0  0  0  0  0  0
    7.7897   -7.3533    1.6007 C   0  0  0  0  0  0  0  0  0  0  0  0
    5.8384   -8.8599    1.3148 C   0  0  0  0  0  0  0  0  0  0  0  0
    5.6713  -10.0613    2.3215 C   0  0  0  0  0  0  0  0  0  0  0  0
    5.6872   -9.5518    3.7952 C   0  0  1  0  0  0  0  0  0  0  0  0
    6.5137   -8.2644    3.5094 C   0  0  2  0  0  0  0  0  0  0  0  0
    5.8274   -7.4202    4.4046 C   0  0  1  0  0  0  0  0  0  0  0  0
    6.5559   -6.2299    4.6071 O   0  0  0  0  0  0  0  0  0  0  0  0
    4.2736   -7.6875    4.0352 C   0  0  2  0  0  0  0  0  0  0  0  0
    3.4493   -8.0780    2.7441 C   0  0  0  0  0  0  0  0  0  0  0  0
    3.7466   -6.2406    4.1924 C   0  0  2  0  0  0  0  0  0  0  0  0
    2.3288   -6.1208    4.3047 O   0  0  0  0  0  0  0  0  0  0  0  0
    1.9025   -4.7675    4.3596 C   0  0  0  0  0  0  0  0  0  0  0  0
    2.0463   -4.0725    2.9900 C   0  0  0  0  0  0  0  0  0  0  0  0
    3.1100   -4.7296    2.0518 C   0  0  1  0  0  0  0  0  0  0  0  0
    2.2141   -5.7278    1.2373 C   0  0  0  0  0  0  0  0  0  0  0  0
    3.6290   -3.7595    0.9119 C   0  0  1  0  0  0  0  0  0  0  0  0
    3.8978   -2.2116    0.9537 C   0  0  1  0  0  0  0  0  0  0  0  0
    4.2794   -1.3959    2.2138 C   0  0  0  0  0  0  0  0  0  0  0  0
    4.3286   -5.3822    2.9206 C   0  0  2  0  0  0  0  0  0  0  0  0
    4.9649   -4.1048    3.5776 C   0  0  0  0  0  0  0  0  0  0  0  0
    4.3476   -9.1401    4.6587 C   0  0  0  0  0  0  0  0  0  0  0  0
    3.1928  -10.1918    4.4836 C   0  0  0  0  0  0  0  0  0  0  0  0
    4.5152   -9.1503    6.2219 C   0  0  0  0  0  0  0  0  0  0  0  0
    4.0699   -0.7240   -1.5291 H   0  0  0  0  0  0  0  0  0  0  0  0
    3.7627   -2.4193   -1.8620 H   0  0  0  0  0  0  0  0  0  0  0  0
    5.3406   -1.7198   -2.2254 H   0  0  0  0  0  0  0  0  0  0  0  0
    5.7324   -1.2802    0.1997 H   0  0  0  0  0  0  0  0  0  0  0  0
    4.3850   -4.4986   -0.9504 H   0  0  0  0  0  0  0  0  0  0  0  0
    4.8991   -6.5025   -0.0543 H   0  0  0  0  0  0  0  0  0  0  0  0
    6.3991   -5.6639    0.0421 H   0  0  0  0  0  0  0  0  0  0  0  0
    6.3851   -5.4570    2.2349 H   0  0  0  0  0  0  0  0  0  0  0  0
    8.4063   -8.2454    1.7379 H   0  0  0  0  0  0  0  0  0  0  0  0
    8.2913   -6.5571    2.1469 H   0  0  0  0  0  0  0  0  0  0  0  0
    7.8434   -7.1276    0.5394 H   0  0  0  0  0  0  0  0  0  0  0  0
    4.9474   -8.6842    0.7163 H   0  0  0  0  0  0  0  0  0  0  0  0
    6.5691   -9.1691    0.5665 H   0  0  0  0  0  0  0  0  0  0  0  0
    4.8284  -10.7100    2.0866 H   0  0  0  0  0  0  0  0  0  0  0  0
    6.5441  -10.7068    2.1996 H   0  0  0  0  0  0  0  0  0  0  0  0
    6.2606  -10.2604    4.3976 H   0  0  0  0  0  0  0  0  0  0  0  0
    7.5569   -8.4099    3.8013 H   0  0  0  0  0  0  0  0  0  0  0  0
    6.1184   -7.7282    5.4000 H   0  0  0  0  0  0  0  0  0  0  0  0
    7.4417   -6.4509    4.8413 H   0  0  0  0  0  0  0  0  0  0  0  0
    2.3852   -8.0416    2.9618 H   0  0  0  0  0  0  0  0  0  0  0  0
    3.5063   -9.0626    2.3277 H   0  0  0  0  0  0  0  0  0  0  0  0
    3.6400   -7.5093    1.8687 H   0  0  0  0  0  0  0  0  0  0  0  0
    4.1063   -5.8522    5.1443 H   0  0  0  0  0  0  0  0  0  0  0  0
    0.8549   -4.7387    4.6546 H   0  0  0  0  0  0  0  0  0  0  0  0
    2.4558   -4.2475    5.1414 H   0  0  0  0  0  0  0  0  0  0  0  0
    1.0620   -4.0719    2.5191 H   0  0  0  0  0  0  0  0  0  0  0  0
    2.2234   -3.0172    3.1539 H   0  0  0  0  0  0  0  0  0  0  0  0
    2.7521   -6.2868    0.4786 H   0  0  0  0  0  0  0  0  0  0  0  0
    1.4369   -5.2222    0.6707 H   0  0  0  0  0  0  0  0  0  0  0  0
    1.6509   -6.4083    1.8640 H   0  0  0  0  0  0  0  0  0  0  0  0
    2.8034   -3.7199    0.2056 H   0  0  0  0  0  0  0  0  0  0  0  0
    3.0016   -1.7145    0.5774 H   0  0  0  0  0  0  0  0  0  0  0  0
    5.2761   -1.6140    2.5943 H   0  0  0  0  0  0  0  0  0  0  0  0
    3.5603   -1.4500    3.0267 H   0  0  0  0  0  0  0  0  0  0  0  0
    4.3077   -0.3406    1.9428 H   0  0  0  0  0  0  0  0  0  0  0  0
    4.2401   -3.3661    3.8842 H   0  0  0  0  0  0  0  0  0  0  0  0
    5.6721   -3.6267    2.9080 H   0  0  0  0  0  0  0  0  0  0  0  0
    5.4761   -4.2416    4.5193 H   0  0  0  0  0  0  0  0  0  0  0  0
    2.2282   -9.7742    4.7834 H   0  0  0  0  0  0  0  0  0  0  0  0
    3.3670  -11.0713    5.1094 H   0  0  0  0  0  0  0  0  0  0  0  0
    3.0748  -10.6340    3.4974 H   0  0  0  0  0  0  0  0  0  0  0  0
    4.4009   -8.1525    6.6505 H   0  0  0  0  0  0  0  0  0  0  0  0
    5.4899   -9.5412    6.5207 H   0  0  0  0  0  0  0  0  0  0  0  0
    3.7757   -9.7572    6.7513 H   0  0  0  0  0  0  0  0  0  0  0  0
  1  2  1  0
  1 31  1  0
  1 32  1  0
  1 33  1  0
  2 24  1  0
  2  3  1  0
  2 34  1  1
  3  4  1  0
  4 23  1  0
  4  5  1  0
  4 35  1  6
  5  6  1  0
  5 36  1  0
  5 37  1  0
  6 26  1  0
  6  7  1  0
  6 38  1  1
  7 12  1  0
  7  8  1  6
  7  9  1  0
  8 39  1  0
  8 40  1  0
  8 41  1  0
  9 10  1  0
  9 42  1  0
  9 43  1  0
 10 11  1  0
 10 44  1  0
 10 45  1  0
 11 28  1  0
 11 12  1  0
 11 46  1  1
 12 13  1  0
 12 47  1  1
 13 14  1  0
 13 15  1  0
 13 48  1  1
 14 49  1  0
 15 16  1  6
 15 17  1  0
 15 28  1  0
 16 50  1  0
 16 51  1  0
 16 52  1  0
 17 26  1  0
 17 18  1  0
 17 53  1  1
 18 19  1  0
 19 20  1  0
 19 54  1  0
 19 55  1  0
 20 21  1  0
 20 56  1  0
 20 57  1  0
 21 22  1  6
 21 23  1  0
 21 26  1  0
 22 58  1  0
 22 59  1  0
 22 60  1  0
 23 24  1  0
 23 61  1  6
 24 25  1  0
 24 62  1  6
 25 63  1  0
 25 64  1  0
 25 65  1  0
 26 27  1  1
 27 66  1  0
 27 67  1  0
 27 68  1  0
 28 29  1  0
 28 30  1  0
 29 69  1  0
 29 70  1  0
 29 71  1  0
 30 72  1  0
 30 73  1  0
 30 74  1  0
M  END
>  <i_m_ct_stereo_status>  (30) 
1

>  <s_m_source_file>  (30) 
/var/tmp/pbs.5076255.sched01/tmpt68d_85j/0g9mu2vg5.sdf

>  <i_m_source_file_index>  (30) 
11

>  <i_lp_mmshare_version>  (30) 
48012

>  <i_f3d_flags>  (30) 
0

>  <s_epik_input>  (30) 
W0NIM11bQ0BIXTFbQ0BIXShbQ0gzXSlPW0NAQEhdKFtDSDJdMilbQ0BIXTFbQ0BdMyhbQ0gzXSlbQ0gyXVtDSDJdT1tDQEhdKFtDQEBdMyhbQ0gzXSlbQ0BIXTJbQ0BdNDVbQ0gzXSlbQ0BAXTYoW0NIM10pW0NASF0oW09IXSlbQ0BIXTVbQ0BIXShbQ0gyXVtDSDJdNClDNihbQ0gzXSlbQ0gzXQ==

>  <s_epik_cmdline>  (30) 
J2VwaWtfcHl0aG9uJywgJy1waHQnLCAnMi4wJywgJy1waCcsICc3LjAnLCAnLXRuJywgJzgnLCAnLW1hJywgJzIwMCcsICctaW1hZScsICc8aW5maWxlLm1hZT4nLCAnLW9tYWUnLCAnPG91dGZpbGUubWFlPic=

>  <r_lp_tautomer_probability>  (30) 
1

>  <r_epik_Ionization_Penalty>  (30) 
1.24722e-06

>  <r_epik_Ionization_Penalty_Charging>  (30) 
0

>  <r_epik_Ionization_Penalty_Neutral>  (30) 
1.24722e-06

>  <r_epik_State_Penalty>  (30) 
-0

>  <r_epik_Charging_Adjusted_Penalty>  (30) 
0

>  <i_epik_Tot_Q>  (30) 
0

>  <i_epik_Tot_abs_Q>  (30) 
0

>  <s_lp_Force_Field>  (30) 
OPLS3e

>  <r_lp_Energy>  (30) 
277.909

>  <b_lp_Chiralities_Consistent>  (30) 
1

>  <s_lp_Variant>  (30) 
7:0-1

>  <s_i_glide_gridfile>  (30) 
pfpi4k_grid

>  <i_i_glide_lignum>  (30) 
11

>  <i_i_glide_rotatable_bonds>  (30) 
1

>  <r_i_docking_score>  (30) 
-2.36803

>  <r_i_glide_ligand_efficiency>  (30) 
-0.0789345

>  <r_i_glide_ligand_efficiency_sa>  (30) 
-0.245268

>  <r_i_glide_ligand_efficiency_ln>  (30) 
-0.538043

>  <r_i_glide_gscore>  (30) 
-2.36803

>  <r_i_glide_lipo>  (30) 
-0.340459

>  <r_i_glide_hbond>  (30) 
0

>  <r_i_glide_metal>  (30) 
-0

>  <r_i_glide_rewards>  (30) 
-0.568388

>  <r_i_glide_evdw>  (30) 
-26

>  <r_i_glide_ecoul>  (30) 
-1.06127

>  <r_i_glide_erotb>  (30) 
0

>  <r_i_glide_esite>  (30) 
0

>  <r_i_glide_emodel>  (30) 
-30.4799

>  <r_i_glide_energy>  (30) 
-27.0612

>  <r_i_glide_einternal>  (30) 
0.346309

>  <r_i_glide_intrahb_reward>  (30) 
-0

>  <i_i_glide_confnum>  (30) 
2

>  <i_i_glide_posenum>  (30) 
32

>  <r_i_glide_eff_state_penalty>  (30) 
0

>  <ligand_id>  (30) 
7

>  <original_smiles>  (30) 
CC1OC2CC3C4(C)CCC5C4C(O)C(C)(C4OCCC(C)(C2C1C)C34C)C5(C)C

>  <smiles>  (30) 
[H]OC1([H])C2([H])C3([H])C([H])([H])C([H])([H])C2(C([H])([H])[H])C2([H])C([H])([H])C4([H])OC([H])(C([H])([H])[H])C([H])(C([H])([H])[H])C4([H])C4(C([H])([H])[H])C([H])([H])C([H])([H])OC([H])(C1(C([H])([H])[H])C3(C([H])([H])[H])C([H])([H])[H])C24C([H])([H])[H]

$$$$
8:0:0
     RDKit          3D

 17 19  0  0  1  0  0  0  0  0999 V2000
   -1.8833    0.2348    5.6530 O   0  0  0  0  0  0  0  0  0  0  0  0
   -1.6590    1.0308    6.7202 C   0  0  0  0  0  0  0  0  0  0  0  0
   -2.0804    2.3425    6.8714 C   0  0  0  0  0  0  0  0  0  0  0  0
   -1.5913    2.6195    8.1263 N   0  0  0  0  0  0  0  0  0  0  0  0
   -0.9248    1.5505    8.6879 C   0  0  0  0  0  0  0  0  0  0  0  0
   -0.9598    0.5468    7.8513 N   0  0  0  0  0  0  0  0  0  0  0  0
   -0.3262    1.9927   10.3219 S   0  0  0  0  0  0  0  0  0  0  0  0
   -1.0272    3.6053   10.0959 C   0  0  0  0  0  0  0  0  0  0  0  0
   -0.9367    4.6045   11.0760 C   0  0  0  0  0  0  0  0  0  0  0  0
   -1.5551    5.8076   10.6947 C   0  0  0  0  0  0  0  0  0  0  0  0
   -2.1861    5.8904    9.4235 C   0  0  0  0  0  0  0  0  0  0  0  0
   -2.2599    4.8955    8.4852 N   0  0  0  0  0  0  0  0  0  0  0  0
   -1.6760    3.7381    8.8246 C   0  0  0  0  0  0  0  0  0  0  0  0
   -2.6312    3.0428    6.2565 H   0  0  0  0  0  0  0  0  0  0  0  0
   -0.4361    4.4643   12.0311 H   0  0  0  0  0  0  0  0  0  0  0  0
   -1.5534    6.6509   11.3678 H   0  0  0  0  0  0  0  0  0  0  0  0
   -2.6572    6.8234    9.1489 H   0  0  0  0  0  0  0  0  0  0  0  0
  1  2  1  0
  2  6  1  0
  2  3  2  0
  3  4  1  0
  3 14  1  0
  4 13  1  0
  4  5  1  0
  5  6  2  0
  5  7  1  0
  7  8  1  0
  8 13  2  0
  8  9  1  0
  9 10  2  0
  9 15  1  0
 10 11  1  0
 10 16  1  0
 11 12  2  0
 11 17  1  0
 12 13  1  0
M  CHG  1   1  -1
M  END
>  <i_m_ct_stereo_status>  (31) 
1

>  <s_m_source_file>  (31) 
/var/tmp/pbs.5076255.sched01/tmpt68d_85j/0g9mu2vg5.sdf

>  <i_m_source_file_index>  (31) 
12

>  <i_lp_mmshare_version>  (31) 
48012

>  <i_f3d_flags>  (31) 
0

>  <s_epik_input>  (31) 
W09IXWMoW2NIXTEpbmMobjEyKXNjM2MybltjSF1bY0hdW2NIXTM=

>  <s_epik_cmdline>  (31) 
J2VwaWtfcHl0aG9uJywgJy1waHQnLCAnMi4wJywgJy1waCcsICc3LjAnLCAnLXRuJywgJzgnLCAnLW1hJywgJzIwMCcsICctaW1hZScsICc8aW5maWxlLm1hZT4nLCAnLW9tYWUnLCAnPG91dGZpbGUubWFlPic=

>  <r_epik_Ionization_Penalty>  (31) 
0.121394

>  <r_epik_Ionization_Penalty_Charging>  (31) 
2.79331e-06

>  <r_epik_Ionization_Penalty_Neutral>  (31) 
0.121392

>  <r_epik_State_Penalty>  (31) 
0.110918

>  <r_epik_Charging_Adjusted_Penalty>  (31) 
0.110921

>  <i_epik_Tot_Q>  (31) 
-1

>  <i_epik_Tot_abs_Q>  (31) 
1

>  <s_lp_Force_Field>  (31) 
OPLS3e

>  <r_lp_Energy>  (31) 
11.7938

>  <b_lp_Chiralities_Consistent>  (31) 
1

>  <s_lp_Variant>  (31) 
8:0-1

>  <s_i_glide_gridfile>  (31) 
pfpi4k_grid

>  <i_i_glide_lignum>  (31) 
12

>  <i_i_glide_rotatable_bonds>  (31) 
0

>  <r_i_docking_score>  (31) 
-3.60005

>  <r_i_glide_ligand_efficiency>  (31) 
-0.276927

>  <r_i_glide_ligand_efficiency_sa>  (31) 
-0.651147

>  <r_i_glide_ligand_efficiency_ln>  (31) 
-1.00984

>  <r_i_glide_gscore>  (31) 
-3.60005

>  <r_i_glide_lipo>  (31) 
-0.0316144

>  <r_i_glide_hbond>  (31) 
-0.0861126

>  <r_i_glide_metal>  (31) 
-0

>  <r_i_glide_rewards>  (31) 
-2.11225

>  <r_i_glide_evdw>  (31) 
-9.31362

>  <r_i_glide_ecoul>  (31) 
-5.68208

>  <r_i_glide_erotb>  (31) 
0

>  <r_i_glide_esite>  (31) 
-0.0520721

>  <r_i_glide_emodel>  (31) 
-22.2109

>  <r_i_glide_energy>  (31) 
-14.9957

>  <r_i_glide_einternal>  (31) 
0

>  <r_i_glide_intrahb_reward>  (31) 
-0

>  <i_i_glide_confnum>  (31) 
1

>  <i_i_glide_posenum>  (31) 
3

>  <r_i_glide_eff_state_penalty>  (31) 
0

>  <ligand_id>  (31) 
8

>  <original_smiles>  (31) 
Oc1cn2c(n1)sc1cccnc12

>  <smiles>  (31) 
[H]c1nc2c(sc3nc([O-])c([H])n32)c([H])c1[H]

$$$$
8:0:1
     RDKit          3D

 17 19  0  0  1  0  0  0  0  0999 V2000
   -2.1810    0.2358    6.0777 O   0  0  0  0  0  0  0  0  0  0  0  0
   -1.3244   -0.6488    5.5372 C   0  0  0  0  0  0  0  0  0  0  0  0
   -0.5045   -0.4134    4.4607 C   0  0  0  0  0  0  0  0  0  0  0  0
    0.1661   -1.6137    4.3763 N   0  0  0  0  0  0  0  0  0  0  0  0
   -0.2519   -2.4951    5.3395 C   0  0  0  0  0  0  0  0  0  0  0  0
   -1.1898   -1.9466    6.0744 N   0  0  0  0  0  0  0  0  0  0  0  0
    0.6516   -4.0285    5.1755 S   0  0  0  0  0  0  0  0  0  0  0  0
    1.5170   -3.3336    3.7898 C   0  0  0  0  0  0  0  0  0  0  0  0
    2.4867   -4.0248    3.0578 C   0  0  0  0  0  0  0  0  0  0  0  0
    3.0322   -3.2733    2.0005 C   0  0  0  0  0  0  0  0  0  0  0  0
    2.5757   -1.9452    1.7798 C   0  0  0  0  0  0  0  0  0  0  0  0
    1.6290   -1.2961    2.5153 N   0  0  0  0  0  0  0  0  0  0  0  0
    1.0955   -1.9933    3.5260 C   0  0  0  0  0  0  0  0  0  0  0  0
   -0.3390    0.4310    3.8035 H   0  0  0  0  0  0  0  0  0  0  0  0
    2.7815   -5.0383    3.2900 H   0  0  0  0  0  0  0  0  0  0  0  0
    3.7907   -3.7112    1.3740 H   0  0  0  0  0  0  0  0  0  0  0  0
    3.0062   -1.3869    0.9655 H   0  0  0  0  0  0  0  0  0  0  0  0
  1  2  1  0
  2  6  1  0
  2  3  2  0
  3  4  1  0
  3 14  1  0
  4 13  1  0
  4  5  1  0
  5  6  2  0
  5  7  1  0
  7  8  1  0
  8 13  2  0
  8  9  1  0
  9 10  2  0
  9 15  1  0
 10 11  1  0
 10 16  1  0
 11 12  2  0
 11 17  1  0
 12 13  1  0
M  CHG  1   1  -1
M  END
>  <i_m_ct_stereo_status>  (32) 
1

>  <s_m_source_file>  (32) 
/var/tmp/pbs.5076255.sched01/tmpt68d_85j/0g9mu2vg5.sdf

>  <i_m_source_file_index>  (32) 
12

>  <i_lp_mmshare_version>  (32) 
48012

>  <i_f3d_flags>  (32) 
0

>  <s_epik_input>  (32) 
W09IXWMoW2NIXTEpbmMobjEyKXNjM2MybltjSF1bY0hdW2NIXTM=

>  <s_epik_cmdline>  (32) 
J2VwaWtfcHl0aG9uJywgJy1waHQnLCAnMi4wJywgJy1waCcsICc3LjAnLCAnLXRuJywgJzgnLCAnLW1hJywgJzIwMCcsICctaW1hZScsICc8aW5maWxlLm1hZT4nLCAnLW9tYWUnLCAnPG91dGZpbGUubWFlPic=

>  <r_epik_Ionization_Penalty>  (32) 
0.121394

>  <r_epik_Ionization_Penalty_Charging>  (32) 
2.79331e-06

>  <r_epik_Ionization_Penalty_Neutral>  (32) 
0.121392

>  <r_epik_State_Penalty>  (32) 
0.110918

>  <r_epik_Charging_Adjusted_Penalty>  (32) 
0.110921

>  <i_epik_Tot_Q>  (32) 
-1

>  <i_epik_Tot_abs_Q>  (32) 
1

>  <s_lp_Force_Field>  (32) 
OPLS3e

>  <r_lp_Energy>  (32) 
11.7938

>  <b_lp_Chiralities_Consistent>  (32) 
1

>  <s_lp_Variant>  (32) 
8:0-1

>  <s_i_glide_gridfile>  (32) 
pfpi4k_grid

>  <i_i_glide_lignum>  (32) 
12

>  <i_i_glide_rotatable_bonds>  (32) 
0

>  <r_i_docking_score>  (32) 
-3.36951

>  <r_i_glide_ligand_efficiency>  (32) 
-0.259193

>  <r_i_glide_ligand_efficiency_sa>  (32) 
-0.609449

>  <r_i_glide_ligand_efficiency_ln>  (32) 
-0.945177

>  <r_i_glide_gscore>  (32) 
-3.36951

>  <r_i_glide_lipo>  (32) 
-0.0271543

>  <r_i_glide_hbond>  (32) 
-0.2

>  <r_i_glide_metal>  (32) 
-0

>  <r_i_glide_rewards>  (32) 
-2.15446

>  <r_i_glide_evdw>  (32) 
-11.9351

>  <r_i_glide_ecoul>  (32) 
-2.49925

>  <r_i_glide_erotb>  (32) 
0

>  <r_i_glide_esite>  (32) 
-0.0162538

>  <r_i_glide_emodel>  (32) 
-21.1991

>  <r_i_glide_energy>  (32) 
-14.4344

>  <r_i_glide_einternal>  (32) 
0

>  <r_i_glide_intrahb_reward>  (32) 
-0

>  <i_i_glide_confnum>  (32) 
1

>  <i_i_glide_posenum>  (32) 
1

>  <r_i_glide_eff_state_penalty>  (32) 
0

>  <ligand_id>  (32) 
8

>  <original_smiles>  (32) 
Oc1cn2c(n1)sc1cccnc12

>  <smiles>  (32) 
[H]c1nc2c(sc3nc([O-])c([H])n32)c([H])c1[H]

$$$$
8:0:2
     RDKit          3D

 17 19  0  0  1  0  0  0  0  0999 V2000
    2.1365   -5.6158    2.0776 O   0  0  0  0  0  0  0  0  0  0  0  0
    2.6244   -4.6512    1.2773 C   0  0  0  0  0  0  0  0  0  0  0  0
    2.3869   -4.5345   -0.0701 C   0  0  0  0  0  0  0  0  0  0  0  0
    3.0805   -3.3835   -0.3655 N   0  0  0  0  0  0  0  0  0  0  0  0
    3.6980   -2.8714    0.7444 C   0  0  0  0  0  0  0  0  0  0  0  0
    3.4432   -3.6221    1.7859 N   0  0  0  0  0  0  0  0  0  0  0  0
    4.5936   -1.3902    0.2940 S   0  0  0  0  0  0  0  0  0  0  0  0
    4.0436   -1.5994   -1.3810 C   0  0  0  0  0  0  0  0  0  0  0  0
    4.3743   -0.7296   -2.4221 C   0  0  0  0  0  0  0  0  0  0  0  0
    3.8208   -1.0875   -3.6662 C   0  0  0  0  0  0  0  0  0  0  0  0
    3.0072   -2.2449   -3.7453 C   0  0  0  0  0  0  0  0  0  0  0  0
    2.6893   -3.0692   -2.7082 N   0  0  0  0  0  0  0  0  0  0  0  0
    3.2123   -2.7545   -1.5159 C   0  0  0  0  0  0  0  0  0  0  0  0
    1.8283   -5.1075   -0.7947 H   0  0  0  0  0  0  0  0  0  0  0  0
    5.0038    0.1377   -2.2879 H   0  0  0  0  0  0  0  0  0  0  0  0
    4.0144   -0.4801   -4.5366 H   0  0  0  0  0  0  0  0  0  0  0  0
    2.6069   -2.5257   -4.7028 H   0  0  0  0  0  0  0  0  0  0  0  0
  1  2  1  0
  2  6  1  0
  2  3  2  0
  3  4  1  0
  3 14  1  0
  4 13  1  0
  4  5  1  0
  5  6  2  0
  5  7  1  0
  7  8  1  0
  8 13  2  0
  8  9  1  0
  9 10  2  0
  9 15  1  0
 10 11  1  0
 10 16  1  0
 11 12  2  0
 11 17  1  0
 12 13  1  0
M  CHG  1   1  -1
M  END
>  <i_m_ct_stereo_status>  (33) 
1

>  <s_m_source_file>  (33) 
/var/tmp/pbs.5076255.sched01/tmpt68d_85j/0g9mu2vg5.sdf

>  <i_m_source_file_index>  (33) 
12

>  <i_lp_mmshare_version>  (33) 
48012

>  <i_f3d_flags>  (33) 
0

>  <s_epik_input>  (33) 
W09IXWMoW2NIXTEpbmMobjEyKXNjM2MybltjSF1bY0hdW2NIXTM=

>  <s_epik_cmdline>  (33) 
J2VwaWtfcHl0aG9uJywgJy1waHQnLCAnMi4wJywgJy1waCcsICc3LjAnLCAnLXRuJywgJzgnLCAnLW1hJywgJzIwMCcsICctaW1hZScsICc8aW5maWxlLm1hZT4nLCAnLW9tYWUnLCAnPG91dGZpbGUubWFlPic=

>  <r_epik_Ionization_Penalty>  (33) 
0.121394

>  <r_epik_Ionization_Penalty_Charging>  (33) 
2.79331e-06

>  <r_epik_Ionization_Penalty_Neutral>  (33) 
0.121392

>  <r_epik_State_Penalty>  (33) 
0.110918

>  <r_epik_Charging_Adjusted_Penalty>  (33) 
0.110921

>  <i_epik_Tot_Q>  (33) 
-1

>  <i_epik_Tot_abs_Q>  (33) 
1

>  <s_lp_Force_Field>  (33) 
OPLS3e

>  <r_lp_Energy>  (33) 
11.7938

>  <b_lp_Chiralities_Consistent>  (33) 
1

>  <s_lp_Variant>  (33) 
8:0-1

>  <s_i_glide_gridfile>  (33) 
pfpi4k_grid

>  <i_i_glide_lignum>  (33) 
12

>  <i_i_glide_rotatable_bonds>  (33) 
0

>  <r_i_docking_score>  (33) 
-3.05869

>  <r_i_glide_ligand_efficiency>  (33) 
-0.235284

>  <r_i_glide_ligand_efficiency_sa>  (33) 
-0.55323

>  <r_i_glide_ligand_efficiency_ln>  (33) 
-0.857989

>  <r_i_glide_gscore>  (33) 
-3.05869

>  <r_i_glide_lipo>  (33) 
-0.42525

>  <r_i_glide_hbond>  (33) 
0

>  <r_i_glide_metal>  (33) 
-0

>  <r_i_glide_rewards>  (33) 
-2.16396

>  <r_i_glide_evdw>  (33) 
-18.9315

>  <r_i_glide_ecoul>  (33) 
3.41457

>  <r_i_glide_erotb>  (33) 
0

>  <r_i_glide_esite>  (33) 
-0.035081

>  <r_i_glide_emodel>  (33) 
-21.655

>  <r_i_glide_energy>  (33) 
-15.517

>  <r_i_glide_einternal>  (33) 
0

>  <r_i_glide_intrahb_reward>  (33) 
-0

>  <i_i_glide_confnum>  (33) 
2

>  <i_i_glide_posenum>  (33) 
19

>  <r_i_glide_eff_state_penalty>  (33) 
0

>  <ligand_id>  (33) 
8

>  <original_smiles>  (33) 
Oc1cn2c(n1)sc1cccnc12

>  <smiles>  (33) 
[H]c1nc2c(sc3nc([O-])c([H])n32)c([H])c1[H]

$$$$
8:1:0
     RDKit          3D

 18 20  0  0  1  0  0  0  0  0999 V2000
   -2.1827    4.2466    4.0648 O   0  0  0  0  0  0  0  0  0  0  0  0
   -1.4979    3.0784    3.8958 C   0  0  0  0  0  0  0  0  0  0  0  0
   -1.5836    1.8899    4.6181 C   0  0  0  0  0  0  0  0  0  0  0  0
   -0.6826    1.0800    4.0097 N   0  0  0  0  0  0  0  0  0  0  0  0
   -0.0812    1.7057    2.9866 C   0  0  0  0  0  0  0  0  0  0  0  0
   -0.5450    2.9458    2.8804 N   0  0  0  0  0  0  0  0  0  0  0  0
    1.1080    0.6820    2.1528 S   0  0  0  0  0  0  0  0  0  0  0  0
    0.6812   -0.5879    3.3608 C   0  0  0  0  0  0  0  0  0  0  0  0
    1.2348   -1.8876    3.4403 C   0  0  0  0  0  0  0  0  0  0  0  0
    0.7657   -2.7514    4.4609 C   0  0  0  0  0  0  0  0  0  0  0  0
   -0.2242   -2.2876    5.3492 C   0  0  0  0  0  0  0  0  0  0  0  0
   -0.7373   -1.0509    5.2399 N   0  0  0  0  0  0  0  0  0  0  0  0
   -0.3243   -0.1701    4.2835 C   0  0  0  0  0  0  0  0  0  0  0  0
   -2.1659    1.5700    5.4633 H   0  0  0  0  0  0  0  0  0  0  0  0
    1.9901   -2.2248    2.7415 H   0  0  0  0  0  0  0  0  0  0  0  0
    1.1498   -3.7579    4.5680 H   0  0  0  0  0  0  0  0  0  0  0  0
   -0.6249   -2.8957    6.1467 H   0  0  0  0  0  0  0  0  0  0  0  0
   -0.2937    3.6207    2.1510 H   0  0  0  0  0  0  0  0  0  0  0  0
  1  2  1  0
  2  6  1  0
  2  3  2  0
  3  4  1  0
  3 14  1  0
  4 13  1  0
  4  5  1  0
  5  6  2  0
  5  7  1  0
  6 18  1  0
  7  8  1  0
  8 13  2  0
  8  9  1  0
  9 10  2  0
  9 15  1  0
 10 11  1  0
 10 16  1  0
 11 12  2  0
 11 17  1  0
 12 13  1  0
M  CHG  2   1  -1   6   1
M  END
>  <i_m_ct_stereo_status>  (34) 
1

>  <s_m_source_file>  (34) 
/var/tmp/pbs.5076255.sched01/tmpt68d_85j/0g9mu2vg5.sdf

>  <i_m_source_file_index>  (34) 
13

>  <i_lp_mmshare_version>  (34) 
48012

>  <i_f3d_flags>  (34) 
0

>  <s_epik_input>  (34) 
W09IXWMoW2NIXTEpbmMobjEyKXNjM2MybltjSF1bY0hdW2NIXTM=

>  <s_epik_cmdline>  (34) 
J2VwaWtfcHl0aG9uJywgJy1waHQnLCAnMi4wJywgJy1waCcsICc3LjAnLCAnLXRuJywgJzgnLCAnLW1hJywgJzIwMCcsICctaW1hZScsICc8aW5maWxlLm1hZT4nLCAnLW9tYWUnLCAnPG91dGZpbGUubWFlPic=

>  <r_epik_Ionization_Penalty>  (34) 
0.998934

>  <r_epik_Ionization_Penalty_Charging>  (34) 
0.998933

>  <r_epik_Ionization_Penalty_Neutral>  (34) 
8.80834e-07

>  <r_epik_State_Penalty>  (34) 
1.04732

>  <r_epik_Charging_Adjusted_Penalty>  (34) 
2.04626

>  <i_epik_Tot_Q>  (34) 
0

>  <i_epik_Tot_abs_Q>  (34) 
2

>  <s_lp_Force_Field>  (34) 
OPLS3e

>  <r_lp_Energy>  (34) 
6.29199

>  <b_lp_Chiralities_Consistent>  (34) 
1

>  <s_lp_Variant>  (34) 
8:0-2

>  <s_i_glide_gridfile>  (34) 
pfpi4k_grid

>  <i_i_glide_lignum>  (34) 
13

>  <i_i_glide_rotatable_bonds>  (34) 
0

>  <r_i_docking_score>  (34) 
-4.64098

>  <r_i_glide_ligand_efficiency>  (34) 
-0.356998

>  <r_i_glide_ligand_efficiency_sa>  (34) 
-0.839423

>  <r_i_glide_ligand_efficiency_ln>  (34) 
-1.30184

>  <r_i_glide_gscore>  (34) 
-4.64098

>  <r_i_glide_lipo>  (34) 
-0.0468064

>  <r_i_glide_hbond>  (34) 
-0.336211

>  <r_i_glide_metal>  (34) 
-0

>  <r_i_glide_rewards>  (34) 
-2.40538

>  <r_i_glide_evdw>  (34) 
-13.973

>  <r_i_glide_ecoul>  (34) 
-6.44117

>  <r_i_glide_erotb>  (34) 
0

>  <r_i_glide_esite>  (34) 
-0.187756

>  <r_i_glide_emodel>  (34) 
-29.6551

>  <r_i_glide_energy>  (34) 
-20.4142

>  <r_i_glide_einternal>  (34) 
0

>  <r_i_glide_intrahb_reward>  (34) 
-0

>  <i_i_glide_confnum>  (34) 
2

>  <i_i_glide_posenum>  (34) 
7

>  <r_i_glide_eff_state_penalty>  (34) 
0

>  <ligand_id>  (34) 
8

>  <original_smiles>  (34) 
Oc1cn2c(n1)sc1cccnc12

>  <smiles>  (34) 
[H]c1nc2c(sc3n2c([H])c([O-])[n+]3[H])c([H])c1[H]

$$$$
8:1:1
     RDKit          3D

 18 20  0  0  1  0  0  0  0  0999 V2000
    3.9459   -0.0410    1.1485 O   0  0  0  0  0  0  0  0  0  0  0  0
    2.8620    0.5087    1.7783 C   0  0  0  0  0  0  0  0  0  0  0  0
    2.8303    1.2977    2.9226 C   0  0  0  0  0  0  0  0  0  0  0  0
    1.5039    1.5721    3.0821 N   0  0  0  0  0  0  0  0  0  0  0  0
    0.7743    1.0051    2.1087 C   0  0  0  0  0  0  0  0  0  0  0  0
    1.5776    0.3322    1.2818 N   0  0  0  0  0  0  0  0  0  0  0  0
   -0.9634    1.3458    2.2904 S   0  0  0  0  0  0  0  0  0  0  0  0
   -0.5248    2.2738    3.7626 C   0  0  0  0  0  0  0  0  0  0  0  0
   -1.4170    2.9550    4.6274 C   0  0  0  0  0  0  0  0  0  0  0  0
   -0.8801    3.6410    5.7446 C   0  0  0  0  0  0  0  0  0  0  0  0
    0.5174    3.6143    5.9489 C   0  0  0  0  0  0  0  0  0  0  0  0
    1.3355    2.9522    5.1130 N   0  0  0  0  0  0  0  0  0  0  0  0
    0.8777    2.2853    4.0237 C   0  0  0  0  0  0  0  0  0  0  0  0
    3.5736    1.6811    3.5988 H   0  0  0  0  0  0  0  0  0  0  0  0
   -2.4835    2.9541    4.4443 H   0  0  0  0  0  0  0  0  0  0  0  0
   -1.5093    4.1731    6.4402 H   0  0  0  0  0  0  0  0  0  0  0  0
    0.9957    4.1135    6.7811 H   0  0  0  0  0  0  0  0  0  0  0  0
    1.3039   -0.1514    0.3988 H   0  0  0  0  0  0  0  0  0  0  0  0
  1  2  1  0
  2  6  1  0
  2  3  2  0
  3  4  1  0
  3 14  1  0
  4 13  1  0
  4  5  1  0
  5  6  2  0
  5  7  1  0
  6 18  1  0
  7  8  1  0
  8 13  2  0
  8  9  1  0
  9 10  2  0
  9 15  1  0
 10 11  1  0
 10 16  1  0
 11 12  2  0
 11 17  1  0
 12 13  1  0
M  CHG  2   1  -1   6   1
M  END
>  <i_m_ct_stereo_status>  (35) 
1

>  <s_m_source_file>  (35) 
/var/tmp/pbs.5076255.sched01/tmpt68d_85j/0g9mu2vg5.sdf

>  <i_m_source_file_index>  (35) 
13

>  <i_lp_mmshare_version>  (35) 
48012

>  <i_f3d_flags>  (35) 
0

>  <s_epik_input>  (35) 
W09IXWMoW2NIXTEpbmMobjEyKXNjM2MybltjSF1bY0hdW2NIXTM=

>  <s_epik_cmdline>  (35) 
J2VwaWtfcHl0aG9uJywgJy1waHQnLCAnMi4wJywgJy1waCcsICc3LjAnLCAnLXRuJywgJzgnLCAnLW1hJywgJzIwMCcsICctaW1hZScsICc8aW5maWxlLm1hZT4nLCAnLW9tYWUnLCAnPG91dGZpbGUubWFlPic=

>  <r_epik_Ionization_Penalty>  (35) 
0.998934

>  <r_epik_Ionization_Penalty_Charging>  (35) 
0.998933

>  <r_epik_Ionization_Penalty_Neutral>  (35) 
8.80834e-07

>  <r_epik_State_Penalty>  (35) 
1.04732

>  <r_epik_Charging_Adjusted_Penalty>  (35) 
2.04626

>  <i_epik_Tot_Q>  (35) 
0

>  <i_epik_Tot_abs_Q>  (35) 
2

>  <s_lp_Force_Field>  (35) 
OPLS3e

>  <r_lp_Energy>  (35) 
6.29199

>  <b_lp_Chiralities_Consistent>  (35) 
1

>  <s_lp_Variant>  (35) 
8:0-2

>  <s_i_glide_gridfile>  (35) 
pfpi4k_grid

>  <i_i_glide_lignum>  (35) 
13

>  <i_i_glide_rotatable_bonds>  (35) 
0

>  <r_i_docking_score>  (35) 
-3.7771

>  <r_i_glide_ligand_efficiency>  (35) 
-0.290546

>  <r_i_glide_ligand_efficiency_sa>  (35) 
-0.683171

>  <r_i_glide_ligand_efficiency_ln>  (35) 
-1.05951

>  <r_i_glide_gscore>  (35) 
-3.7771

>  <r_i_glide_lipo>  (35) 
-0.0628278

>  <r_i_glide_hbond>  (35) 
-0.2

>  <r_i_glide_metal>  (35) 
-0

>  <r_i_glide_rewards>  (35) 
-2.10538

>  <r_i_glide_evdw>  (35) 
-12.9761

>  <r_i_glide_ecoul>  (35) 
-3.81143

>  <r_i_glide_erotb>  (35) 
0

>  <r_i_glide_esite>  (35) 
-0.188373

>  <r_i_glide_emodel>  (35) 
-24.2705

>  <r_i_glide_energy>  (35) 
-16.7875

>  <r_i_glide_einternal>  (35) 
0

>  <r_i_glide_intrahb_reward>  (35) 
-0

>  <i_i_glide_confnum>  (35) 
1

>  <i_i_glide_posenum>  (35) 
4

>  <r_i_glide_eff_state_penalty>  (35) 
0

>  <ligand_id>  (35) 
8

>  <original_smiles>  (35) 
Oc1cn2c(n1)sc1cccnc12

>  <smiles>  (35) 
[H]c1nc2c(sc3n2c([H])c([O-])[n+]3[H])c([H])c1[H]

$$$$
8:1:2
     RDKit          3D

 18 20  0  0  1  0  0  0  0  0999 V2000
    1.8118   -5.9105    1.7517 O   0  0  0  0  0  0  0  0  0  0  0  0
    2.3940   -4.9134    1.0349 C   0  0  0  0  0  0  0  0  0  0  0  0
    2.2344   -4.6061   -0.3149 C   0  0  0  0  0  0  0  0  0  0  0  0
    2.9796   -3.4855   -0.4706 N   0  0  0  0  0  0  0  0  0  0  0  0
    3.5636   -3.1204    0.6747 C   0  0  0  0  0  0  0  0  0  0  0  0
    3.2336   -3.9814    1.6461 N   0  0  0  0  0  0  0  0  0  0  0  0
    4.5520   -1.6527    0.4884 S   0  0  0  0  0  0  0  0  0  0  0  0
    4.0576   -1.6691   -1.2413 C   0  0  0  0  0  0  0  0  0  0  0  0
    4.4358   -0.7325   -2.2363 C   0  0  0  0  0  0  0  0  0  0  0  0
    3.9312   -0.9053   -3.5451 C   0  0  0  0  0  0  0  0  0  0  0  0
    3.0715   -1.9971   -3.7785 C   0  0  0  0  0  0  0  0  0  0  0  0
    2.7430   -2.8728   -2.8230 N   0  0  0  0  0  0  0  0  0  0  0  0
    3.1918   -2.7482   -1.5568 C   0  0  0  0  0  0  0  0  0  0  0  0
    1.6866   -5.0444   -1.1319 H   0  0  0  0  0  0  0  0  0  0  0  0
    5.0801    0.1021   -2.0152 H   0  0  0  0  0  0  0  0  0  0  0  0
    4.1766   -0.2176   -4.3412 H   0  0  0  0  0  0  0  0  0  0  0  0
    2.6295   -2.1916   -4.7271 H   0  0  0  0  0  0  0  0  0  0  0  0
    3.5203   -3.9632    2.6184 H   0  0  0  0  0  0  0  0  0  0  0  0
  1  2  1  0
  2  6  1  0
  2  3  2  0
  3  4  1  0
  3 14  1  0
  4 13  1  0
  4  5  1  0
  5  6  2  0
  5  7  1  0
  6 18  1  0
  7  8  1  0
  8 13  2  0
  8  9  1  0
  9 10  2  0
  9 15  1  0
 10 11  1  0
 10 16  1  0
 11 12  2  0
 11 17  1  0
 12 13  1  0
M  CHG  2   1  -1   6   1
M  END
>  <i_m_ct_stereo_status>  (36) 
1

>  <s_m_source_file>  (36) 
/var/tmp/pbs.5076255.sched01/tmpt68d_85j/0g9mu2vg5.sdf

>  <i_m_source_file_index>  (36) 
13

>  <i_lp_mmshare_version>  (36) 
48012

>  <i_f3d_flags>  (36) 
0

>  <s_epik_input>  (36) 
W09IXWMoW2NIXTEpbmMobjEyKXNjM2MybltjSF1bY0hdW2NIXTM=

>  <s_epik_cmdline>  (36) 
J2VwaWtfcHl0aG9uJywgJy1waHQnLCAnMi4wJywgJy1waCcsICc3LjAnLCAnLXRuJywgJzgnLCAnLW1hJywgJzIwMCcsICctaW1hZScsICc8aW5maWxlLm1hZT4nLCAnLW9tYWUnLCAnPG91dGZpbGUubWFlPic=

>  <r_epik_Ionization_Penalty>  (36) 
0.998934

>  <r_epik_Ionization_Penalty_Charging>  (36) 
0.998933

>  <r_epik_Ionization_Penalty_Neutral>  (36) 
8.80834e-07

>  <r_epik_State_Penalty>  (36) 
1.04732

>  <r_epik_Charging_Adjusted_Penalty>  (36) 
2.04626

>  <i_epik_Tot_Q>  (36) 
0

>  <i_epik_Tot_abs_Q>  (36) 
2

>  <s_lp_Force_Field>  (36) 
OPLS3e

>  <r_lp_Energy>  (36) 
6.29199

>  <b_lp_Chiralities_Consistent>  (36) 
1

>  <s_lp_Variant>  (36) 
8:0-2

>  <s_i_glide_gridfile>  (36) 
pfpi4k_grid

>  <i_i_glide_lignum>  (36) 
13

>  <i_i_glide_rotatable_bonds>  (36) 
0

>  <r_i_docking_score>  (36) 
-3.38955

>  <r_i_glide_ligand_efficiency>  (36) 
-0.260735

>  <r_i_glide_ligand_efficiency_sa>  (36) 
-0.613074

>  <r_i_glide_ligand_efficiency_ln>  (36) 
-0.950799

>  <r_i_glide_gscore>  (36) 
-3.38955

>  <r_i_glide_lipo>  (36) 
-0.401913

>  <r_i_glide_hbond>  (36) 
0

>  <r_i_glide_metal>  (36) 
-0

>  <r_i_glide_rewards>  (36) 
-2.10708

>  <r_i_glide_evdw>  (36) 
-16.3743

>  <r_i_glide_ecoul>  (36) 
-0.189705

>  <r_i_glide_erotb>  (36) 
0

>  <r_i_glide_esite>  (36) 
-0.0333863

>  <r_i_glide_emodel>  (36) 
-23.2927

>  <r_i_glide_energy>  (36) 
-16.564

>  <r_i_glide_einternal>  (36) 
0

>  <r_i_glide_intrahb_reward>  (36) 
-0

>  <i_i_glide_confnum>  (36) 
2

>  <i_i_glide_posenum>  (36) 
36

>  <r_i_glide_eff_state_penalty>  (36) 
0

>  <ligand_id>  (36) 
8

>  <original_smiles>  (36) 
Oc1cn2c(n1)sc1cccnc12

>  <smiles>  (36) 
[H]c1nc2c(sc3n2c([H])c([O-])[n+]3[H])c([H])c1[H]

$$$$
9:0:0
     RDKit          3D

 65 72  0  0  1  0  0  0  0  0999 V2000
    3.5136  -10.2346    4.1753 C   0  0  0  0  0  0  0  0  0  0  0  0
    4.3038   -8.9591    4.3680 C   0  0  0  0  0  0  0  0  0  0  0  0
    4.4399   -8.2631    5.5020 C   0  0  0  0  0  0  0  0  0  0  0  0
    5.2840   -7.0272    5.3135 C   0  0  2  0  0  0  0  0  0  0  0  0
    4.5523   -5.7805    5.7581 C   0  0  0  0  0  0  0  0  0  0  0  0
    4.0357   -5.1599    4.7051 C   0  0  0  0  0  0  0  0  0  0  0  0
    3.4829   -3.7693    4.4649 C   0  0  0  0  0  0  0  0  0  0  0  0
    3.4243   -3.6987    2.9090 C   0  0  1  0  0  0  0  0  0  0  0  0
    1.9337   -3.9551    2.5078 C   0  0  0  0  0  0  0  0  0  0  0  0
    1.2970   -5.0550    3.1339 O   0  0  0  0  0  0  0  0  0  0  0  0
    3.8285   -2.4071    2.4852 O   0  0  0  0  0  0  0  0  0  0  0  0
    3.8922   -1.9347    1.1069 C   0  0  1  0  0  0  0  0  0  0  0  0
    4.9525   -0.8255    1.3043 C   0  0  1  0  0  0  0  0  0  0  0  0
    4.5651    0.1054    2.2993 O   0  0  0  0  0  0  0  0  0  0  0  0
    6.3027   -1.4549    1.6056 C   0  0  2  0  0  0  0  0  0  0  0  0
    7.1049   -1.7280    0.4546 O   0  0  0  0  0  0  0  0  0  0  0  0
    6.6068   -2.8733    1.1474 C   0  0  2  0  0  0  0  0  0  0  0  0
    5.5816   -3.7019    0.3706 C   0  0  1  0  0  0  0  0  0  0  0  0
    4.9773   -4.9455    1.0866 C   0  0  2  0  0  0  0  0  0  0  0  0
    3.7756   -5.3332    0.2364 C   0  0  0  0  0  0  0  0  0  0  0  0
    3.3507   -4.0197   -0.4372 C   0  0  0  0  0  0  0  0  0  0  0  0
    4.3514   -2.8839   -0.0862 C   0  0  1  0  0  0  0  0  0  0  0  0
    4.6584   -2.0464   -1.3958 C   0  0  2  0  0  0  0  0  0  0  0  0
    3.4305   -1.4326   -2.0797 C   0  0  0  0  0  0  0  0  0  0  0  0
    3.0576   -2.3923   -3.1957 C   0  0  0  0  0  0  0  0  0  0  0  0
    4.3871   -3.1027   -3.4218 C   0  0  0  0  0  0  0  0  0  0  0  0
    4.6088   -3.8827   -4.3318 O   0  0  0  0  0  0  0  0  0  0  0  0
    5.2324   -2.8035   -2.4446 O   0  0  0  0  0  0  0  0  0  0  0  0
    4.5901   -4.6735    2.5439 C   0  0  2  0  0  0  0  0  0  0  0  0
    4.2987   -5.8699    3.4240 C   0  0  1  0  0  0  0  0  0  0  0  0
    5.3913   -6.9089    3.7614 C   0  0  2  0  0  0  0  0  0  0  0  0
    5.0270   -8.3116    3.2125 C   0  0  1  0  0  0  0  0  0  0  0  0
    6.1913   -9.0388    2.8840 O   0  0  0  0  0  0  0  0  0  0  0  0
    2.7514  -10.0751    3.4127 H   0  0  0  0  0  0  0  0  0  0  0  0
    3.0157  -10.5341    5.1000 H   0  0  0  0  0  0  0  0  0  0  0  0
    4.1648  -11.0459    3.8475 H   0  0  0  0  0  0  0  0  0  0  0  0
    4.0073   -8.5408    6.4531 H   0  0  0  0  0  0  0  0  0  0  0  0
    6.2556   -7.1278    5.7977 H   0  0  0  0  0  0  0  0  0  0  0  0
    4.5903   -5.3814    6.7595 H   0  0  0  0  0  0  0  0  0  0  0  0
    2.5263   -3.6107    4.9617 H   0  0  0  0  0  0  0  0  0  0  0  0
    4.1871   -3.0411    4.8649 H   0  0  0  0  0  0  0  0  0  0  0  0
    1.3462   -3.0712    2.7524 H   0  0  0  0  0  0  0  0  0  0  0  0
    1.8041   -4.1310    1.4615 H   0  0  0  0  0  0  0  0  0  0  0  0
    1.5041   -5.0428    4.0585 H   0  0  0  0  0  0  0  0  0  0  0  0
    2.9263   -1.4951    0.8710 H   0  0  0  0  0  0  0  0  0  0  0  0
    5.0654   -0.1990    0.4226 H   0  0  0  0  0  0  0  0  0  0  0  0
    3.7931    0.5733    1.9884 H   0  0  0  0  0  0  0  0  0  0  0  0
    6.8478   -1.0504    2.4580 H   0  0  0  0  0  0  0  0  0  0  0  0
    7.3687   -3.4393    1.6759 H   0  0  0  0  0  0  0  0  0  0  0  0
    6.1123   -4.0914   -0.5041 H   0  0  0  0  0  0  0  0  0  0  0  0
    5.7164   -5.7557    1.0724 H   0  0  0  0  0  0  0  0  0  0  0  0
    4.1244   -6.0235   -0.5362 H   0  0  0  0  0  0  0  0  0  0  0  0
    2.9788   -5.8566    0.7697 H   0  0  0  0  0  0  0  0  0  0  0  0
    3.4615   -4.3007   -1.4695 H   0  0  0  0  0  0  0  0  0  0  0  0
    2.3043   -3.7271   -0.3830 H   0  0  0  0  0  0  0  0  0  0  0  0
    5.4091   -1.2769   -1.2223 H   0  0  0  0  0  0  0  0  0  0  0  0
    2.6263   -1.2921   -1.3776 H   0  0  0  0  0  0  0  0  0  0  0  0
    3.6757   -0.4551   -2.4901 H   0  0  0  0  0  0  0  0  0  0  0  0
    2.3344   -3.1273   -2.8494 H   0  0  0  0  0  0  0  0  0  0  0  0
    2.6410   -1.8988   -4.0782 H   0  0  0  0  0  0  0  0  0  0  0  0
    5.4950   -4.2273    2.9698 H   0  0  0  0  0  0  0  0  0  0  0  0
    3.3947   -6.3888    3.1105 H   0  0  0  0  0  0  0  0  0  0  0  0
    6.3781   -6.5652    3.4400 H   0  0  0  0  0  0  0  0  0  0  0  0
    4.3848   -8.2633    2.3318 H   0  0  0  0  0  0  0  0  0  0  0  0
    5.9253   -9.8754    2.5286 H   0  0  0  0  0  0  0  0  0  0  0  0
  1  2  1  0
  1 34  1  0
  1 35  1  0
  1 36  1  0
  2 32  1  0
  2  3  2  0
  3  4  1  0
  3 37  1  0
  4 31  1  0
  4  5  1  0
  4 38  1  1
  5  6  2  0
  5 39  1  0
  6 30  1  0
  6  7  1  0
  7  8  1  0
  7 40  1  0
  7 41  1  0
  8 29  1  0
  8  9  1  6
  8 11  1  0
  9 10  1  0
  9 42  1  0
  9 43  1  0
 10 44  1  0
 11 12  1  0
 12 22  1  0
 12 13  1  0
 12 45  1  6
 13 14  1  0
 13 15  1  0
 13 46  1  6
 14 47  1  0
 15 17  1  0
 15 16  1  0
 15 48  1  1
 16 17  1  0
 17 18  1  0
 17 49  1  1
 18 22  1  0
 18 19  1  0
 18 50  1  6
 19 20  1  0
 19 29  1  0
 19 51  1  1
 20 21  1  0
 20 52  1  0
 20 53  1  0
 22 21  1  6
 21 54  1  0
 21 55  1  0
 22 23  1  0
 23 28  1  0
 23 24  1  0
 23 56  1  1
 24 25  1  0
 24 57  1  0
 24 58  1  0
 25 26  1  0
 25 59  1  0
 25 60  1  0
 26 27  2  0
 26 28  1  0
 29 30  1  0
 29 61  1  1
 30 31  1  0
 30 62  1  6
 31 32  1  0
 31 63  1  1
 32 33  1  0
 32 64  1  6
 33 65  1  0
M  END
>  <i_m_ct_stereo_status>  (37) 
1

>  <s_m_source_file>  (37) 
/var/tmp/pbs.5076255.sched01/tmpt68d_85j/0g9mu2vg5.sdf

>  <i_m_source_file_index>  (37) 
14

>  <i_lp_mmshare_version>  (37) 
48012

>  <i_f3d_flags>  (37) 
0

>  <s_epik_input>  (37) 
W0NIM11DKD1bQ0hdMSlbQ0BIXShbT0hdKVtDQEBIXTJbQ0BIXTFbQ0hdPUMoW0NIMl0zKVtDQEhdMltDQEhdKFtDQEBdMzRbQ0gyXVtPSF0pW0NIXTVbQ0BASF02W0NAQEhdN1tDQEBIXShPNylbQ0BIXShbT0hdKVtDQEhdKE80KVtDQEBdNihbQ0gyXVtDSDJdNSlbQ0BASF04W0NIMl1bQ0gyXUMoPU8pTzg=

>  <s_epik_cmdline>  (37) 
J2VwaWtfcHl0aG9uJywgJy1waHQnLCAnMi4wJywgJy1waCcsICc3LjAnLCAnLXRuJywgJzgnLCAnLW1hJywgJzIwMCcsICctaW1hZScsICc8aW5maWxlLm1hZT4nLCAnLW9tYWUnLCAnPG91dGZpbGUubWFlPic=

>  <r_lp_tautomer_probability>  (37) 
1

>  <r_epik_Ionization_Penalty>  (37) 
2.45027e-07

>  <r_epik_Ionization_Penalty_Charging>  (37) 
0

>  <r_epik_Ionization_Penalty_Neutral>  (37) 
2.45027e-07

>  <r_epik_State_Penalty>  (37) 
-0

>  <r_epik_Charging_Adjusted_Penalty>  (37) 
0

>  <i_epik_Tot_Q>  (37) 
0

>  <i_epik_Tot_abs_Q>  (37) 
0

>  <s_epik_Chemistry_Notes>  (37) 
This compound has an ester and may undergo hydrolysis at high or low pH.

>  <s_lp_Force_Field>  (37) 
OPLS3e

>  <r_lp_Energy>  (37) 
54.7878

>  <b_lp_Chiralities_Consistent>  (37) 
1

>  <s_lp_Variant>  (37) 
9:0-1

>  <s_i_glide_gridfile>  (37) 
pfpi4k_grid

>  <i_i_glide_lignum>  (37) 
14

>  <i_i_glide_rotatable_bonds>  (37) 
5

>  <r_i_docking_score>  (37) 
-2.94971

>  <r_i_glide_ligand_efficiency>  (37) 
-0.0893853

>  <r_i_glide_ligand_efficiency_sa>  (37) 
-0.286706

>  <r_i_glide_ligand_efficiency_ln>  (37) 
-0.656001

>  <r_i_glide_gscore>  (37) 
-2.94971

>  <r_i_glide_lipo>  (37) 
-0.55416

>  <r_i_glide_hbond>  (37) 
-0.0219349

>  <r_i_glide_metal>  (37) 
-0

>  <r_i_glide_rewards>  (37) 
-0.53226

>  <r_i_glide_evdw>  (37) 
-23.8614

>  <r_i_glide_ecoul>  (37) 
-5.60765

>  <r_i_glide_erotb>  (37) 
0.19286

>  <r_i_glide_esite>  (37) 
0

>  <r_i_glide_emodel>  (37) 
-33.5848

>  <r_i_glide_energy>  (37) 
-29.4691

>  <r_i_glide_einternal>  (37) 
1.08812

>  <r_i_glide_intrahb_reward>  (37) 
-0

>  <i_i_glide_confnum>  (37) 
2

>  <i_i_glide_posenum>  (37) 
7

>  <r_i_glide_eff_state_penalty>  (37) 
0

>  <ligand_id>  (37) 
9

>  <original_smiles>  (37) 
CC1=CC2C=C3CC4(CO)OC5C(O)C6OC6C6C(CCC56C5CCC(=O)O5)C4C3C2C1O

>  <smiles>  (37) 
[H]OC([H])([H])C12OC3([H])C([H])(O[H])C4([H])OC4([H])C4([H])C([H])(C([H])([H])C([H])([H])C34C3([H])OC(=O)C([H])([H])C3([H])[H])C1([H])C1([H])C(=C([H])C3([H])C([H])=C(C([H])([H])[H])C([H])(O[H])C31[H])C2([H])[H]

$$$$
9:0:1
     RDKit          3D

 65 72  0  0  1  0  0  0  0  0999 V2000
    3.5487  -10.2615    4.1493 C   0  0  0  0  0  0  0  0  0  0  0  0
    4.3439   -8.9896    4.3417 C   0  0  0  0  0  0  0  0  0  0  0  0
    4.4770   -8.3055    5.4825 C   0  0  0  0  0  0  0  0  0  0  0  0
    5.2940   -7.0511    5.3127 C   0  0  2  0  0  0  0  0  0  0  0  0
    4.5716   -5.7983    5.7432 C   0  0  0  0  0  0  0  0  0  0  0  0
    4.0420   -5.2011    4.6842 C   0  0  0  0  0  0  0  0  0  0  0  0
    3.4930   -3.8043    4.4679 C   0  0  0  0  0  0  0  0  0  0  0  0
    3.4364   -3.7138    2.9133 C   0  0  1  0  0  0  0  0  0  0  0  0
    1.9471   -3.9902    2.5061 C   0  0  0  0  0  0  0  0  0  0  0  0
    1.3156   -5.1229    3.0764 O   0  0  0  0  0  0  0  0  0  0  0  0
    3.8426   -2.4210    2.4946 O   0  0  0  0  0  0  0  0  0  0  0  0
    3.8926   -1.9500    1.1187 C   0  0  1  0  0  0  0  0  0  0  0  0
    4.9485   -0.8296    1.3225 C   0  0  1  0  0  0  0  0  0  0  0  0
    4.5463    0.0903    2.3173 O   0  0  0  0  0  0  0  0  0  0  0  0
    6.2910   -1.4598    1.6173 C   0  0  2  0  0  0  0  0  0  0  0  0
    7.0976   -1.7294    0.4540 O   0  0  0  0  0  0  0  0  0  0  0  0
    6.5992   -2.8750    1.1529 C   0  0  2  0  0  0  0  0  0  0  0  0
    5.5918   -3.7118    0.3759 C   0  0  1  0  0  0  0  0  0  0  0  0
    4.9938   -4.9577    1.0823 C   0  0  2  0  0  0  0  0  0  0  0  0
    3.7943   -5.3491    0.2410 C   0  0  0  0  0  0  0  0  0  0  0  0
    3.3610   -4.0359   -0.4160 C   0  0  0  0  0  0  0  0  0  0  0  0
    4.3648   -2.9001   -0.0729 C   0  0  1  0  0  0  0  0  0  0  0  0
    4.6682   -2.0524   -1.3879 C   0  0  2  0  0  0  0  0  0  0  0  0
    3.4317   -1.4351   -2.0713 C   0  0  0  0  0  0  0  0  0  0  0  0
    3.0730   -2.3909   -3.2143 C   0  0  0  0  0  0  0  0  0  0  0  0
    4.4012   -3.0817   -3.4381 C   0  0  0  0  0  0  0  0  0  0  0  0
    4.6127   -3.8913   -4.3322 O   0  0  0  0  0  0  0  0  0  0  0  0
    5.2406   -2.7940   -2.4594 O   0  0  0  0  0  0  0  0  0  0  0  0
    4.6045   -4.6901    2.5342 C   0  0  2  0  0  0  0  0  0  0  0  0
    4.3412   -5.8945    3.4087 C   0  0  1  0  0  0  0  0  0  0  0  0
    5.4294   -6.9333    3.7529 C   0  0  2  0  0  0  0  0  0  0  0  0
    5.0488   -8.3320    3.1855 C   0  0  1  0  0  0  0  0  0  0  0  0
    6.2157   -9.0545    2.8586 O   0  0  0  0  0  0  0  0  0  0  0  0
    2.7859  -10.1037    3.3881 H   0  0  0  0  0  0  0  0  0  0  0  0
    3.0525  -10.5667    5.0712 H   0  0  0  0  0  0  0  0  0  0  0  0
    4.1986  -11.0694    3.8162 H   0  0  0  0  0  0  0  0  0  0  0  0
    4.0372   -8.5857    6.4285 H   0  0  0  0  0  0  0  0  0  0  0  0
    6.2654   -7.1515    5.7884 H   0  0  0  0  0  0  0  0  0  0  0  0
    4.6040   -5.4076    6.7521 H   0  0  0  0  0  0  0  0  0  0  0  0
    2.5302   -3.6590    4.9566 H   0  0  0  0  0  0  0  0  0  0  0  0
    4.1951   -3.0756    4.8731 H   0  0  0  0  0  0  0  0  0  0  0  0
    1.3487   -3.1085    2.7720 H   0  0  0  0  0  0  0  0  0  0  0  0
    1.7954   -4.1263    1.4664 H   0  0  0  0  0  0  0  0  0  0  0  0
    1.9276   -5.8418    3.0613 H   0  0  0  0  0  0  0  0  0  0  0  0
    2.9264   -1.5107    0.8824 H   0  0  0  0  0  0  0  0  0  0  0  0
    5.0635   -0.1981    0.4432 H   0  0  0  0  0  0  0  0  0  0  0  0
    3.8034    0.5751    1.9921 H   0  0  0  0  0  0  0  0  0  0  0  0
    6.8500   -1.0361    2.4471 H   0  0  0  0  0  0  0  0  0  0  0  0
    7.3736   -3.4327    1.6784 H   0  0  0  0  0  0  0  0  0  0  0  0
    6.1246   -4.0935   -0.4993 H   0  0  0  0  0  0  0  0  0  0  0  0
    5.7310   -5.7644    1.0661 H   0  0  0  0  0  0  0  0  0  0  0  0
    4.1439   -6.0249   -0.5413 H   0  0  0  0  0  0  0  0  0  0  0  0
    3.0006   -5.8818    0.7593 H   0  0  0  0  0  0  0  0  0  0  0  0
    3.4750   -4.3254   -1.4341 H   0  0  0  0  0  0  0  0  0  0  0  0
    2.3141   -3.7397   -0.3804 H   0  0  0  0  0  0  0  0  0  0  0  0
    5.4210   -1.2805   -1.2416 H   0  0  0  0  0  0  0  0  0  0  0  0
    2.6267   -1.3022   -1.3845 H   0  0  0  0  0  0  0  0  0  0  0  0
    3.6820   -0.4483   -2.4892 H   0  0  0  0  0  0  0  0  0  0  0  0
    2.3440   -3.1199   -2.8712 H   0  0  0  0  0  0  0  0  0  0  0  0
    2.6509   -1.8935   -4.0871 H   0  0  0  0  0  0  0  0  0  0  0  0
    5.5022   -4.2430    2.9696 H   0  0  0  0  0  0  0  0  0  0  0  0
    3.4484   -6.4333    3.0996 H   0  0  0  0  0  0  0  0  0  0  0  0
    6.4086   -6.5839    3.4269 H   0  0  0  0  0  0  0  0  0  0  0  0
    4.4030   -8.2851    2.3048 H   0  0  0  0  0  0  0  0  0  0  0  0
    5.9547   -9.8883    2.5020 H   0  0  0  0  0  0  0  0  0  0  0  0
  1  2  1  0
  1 34  1  0
  1 35  1  0
  1 36  1  0
  2 32  1  0
  2  3  2  0
  3  4  1  0
  3 37  1  0
  4 31  1  0
  4  5  1  0
  4 38  1  1
  5  6  2  0
  5 39  1  0
  6 30  1  0
  6  7  1  0
  7  8  1  0
  7 40  1  0
  7 41  1  0
  8 29  1  0
  8  9  1  6
  8 11  1  0
  9 10  1  0
  9 42  1  0
  9 43  1  0
 10 44  1  0
 11 12  1  0
 12 22  1  0
 12 13  1  0
 12 45  1  6
 13 14  1  0
 13 15  1  0
 13 46  1  6
 14 47  1  0
 15 17  1  0
 15 16  1  0
 15 48  1  1
 16 17  1  0
 17 18  1  0
 17 49  1  1
 18 22  1  0
 18 19  1  0
 18 50  1  6
 19 20  1  0
 19 29  1  0
 19 51  1  1
 20 21  1  0
 20 52  1  0
 20 53  1  0
 22 21  1  6
 21 54  1  0
 21 55  1  0
 22 23  1  0
 23 28  1  0
 23 24  1  0
 23 56  1  1
 24 25  1  0
 24 57  1  0
 24 58  1  0
 25 26  1  0
 25 59  1  0
 25 60  1  0
 26 27  2  0
 26 28  1  0
 29 30  1  0
 29 61  1  1
 30 31  1  0
 30 62  1  6
 31 32  1  0
 31 63  1  1
 32 33  1  0
 32 64  1  6
 33 65  1  0
M  END
>  <i_m_ct_stereo_status>  (38) 
1

>  <s_m_source_file>  (38) 
/var/tmp/pbs.5076255.sched01/tmpt68d_85j/0g9mu2vg5.sdf

>  <i_m_source_file_index>  (38) 
14

>  <i_lp_mmshare_version>  (38) 
48012

>  <i_f3d_flags>  (38) 
0

>  <s_epik_input>  (38) 
W0NIM11DKD1bQ0hdMSlbQ0BIXShbT0hdKVtDQEBIXTJbQ0BIXTFbQ0hdPUMoW0NIMl0zKVtDQEhdMltDQEhdKFtDQEBdMzRbQ0gyXVtPSF0pW0NIXTVbQ0BASF02W0NAQEhdN1tDQEBIXShPNylbQ0BIXShbT0hdKVtDQEhdKE80KVtDQEBdNihbQ0gyXVtDSDJdNSlbQ0BASF04W0NIMl1bQ0gyXUMoPU8pTzg=

>  <s_epik_cmdline>  (38) 
J2VwaWtfcHl0aG9uJywgJy1waHQnLCAnMi4wJywgJy1waCcsICc3LjAnLCAnLXRuJywgJzgnLCAnLW1hJywgJzIwMCcsICctaW1hZScsICc8aW5maWxlLm1hZT4nLCAnLW9tYWUnLCAnPG91dGZpbGUubWFlPic=

>  <r_lp_tautomer_probability>  (38) 
1

>  <r_epik_Ionization_Penalty>  (38) 
2.45027e-07

>  <r_epik_Ionization_Penalty_Charging>  (38) 
0

>  <r_epik_Ionization_Penalty_Neutral>  (38) 
2.45027e-07

>  <r_epik_State_Penalty>  (38) 
-0

>  <r_epik_Charging_Adjusted_Penalty>  (38) 
0

>  <i_epik_Tot_Q>  (38) 
0

>  <i_epik_Tot_abs_Q>  (38) 
0

>  <s_epik_Chemistry_Notes>  (38) 
This compound has an ester and may undergo hydrolysis at high or low pH.

>  <s_lp_Force_Field>  (38) 
OPLS3e

>  <r_lp_Energy>  (38) 
54.7878

>  <b_lp_Chiralities_Consistent>  (38) 
1

>  <s_lp_Variant>  (38) 
9:0-1

>  <s_i_glide_gridfile>  (38) 
pfpi4k_grid

>  <i_i_glide_lignum>  (38) 
14

>  <i_i_glide_rotatable_bonds>  (38) 
5

>  <r_i_docking_score>  (38) 
-2.91078

>  <r_i_glide_ligand_efficiency>  (38) 
-0.0882054

>  <r_i_glide_ligand_efficiency_sa>  (38) 
-0.282922

>  <r_i_glide_ligand_efficiency_ln>  (38) 
-0.647342

>  <r_i_glide_gscore>  (38) 
-2.91078

>  <r_i_glide_lipo>  (38) 
-0.565914

>  <r_i_glide_hbond>  (38) 
-0.0204551

>  <r_i_glide_metal>  (38) 
-0

>  <r_i_glide_rewards>  (38) 
-0.535749

>  <r_i_glide_evdw>  (38) 
-23.9419

>  <r_i_glide_ecoul>  (38) 
-5.2295

>  <r_i_glide_erotb>  (38) 
0.19286

>  <r_i_glide_esite>  (38) 
0

>  <r_i_glide_emodel>  (38) 
-33.1195

>  <r_i_glide_energy>  (38) 
-29.1714

>  <r_i_glide_einternal>  (38) 
1.14497

>  <r_i_glide_intrahb_reward>  (38) 
-0

>  <i_i_glide_confnum>  (38) 
2

>  <i_i_glide_posenum>  (38) 
24

>  <r_i_glide_eff_state_penalty>  (38) 
0

>  <ligand_id>  (38) 
9

>  <original_smiles>  (38) 
CC1=CC2C=C3CC4(CO)OC5C(O)C6OC6C6C(CCC56C5CCC(=O)O5)C4C3C2C1O

>  <smiles>  (38) 
[H]OC([H])([H])C12OC3([H])C([H])(O[H])C4([H])OC4([H])C4([H])C([H])(C([H])([H])C([H])([H])C34C3([H])OC(=O)C([H])([H])C3([H])[H])C1([H])C1([H])C(=C([H])C3([H])C([H])=C(C([H])([H])[H])C([H])(O[H])C31[H])C2([H])[H]

$$$$
9:0:2
     RDKit          3D

 65 72  0  0  1  0  0  0  0  0999 V2000
    0.3123   -9.4234    4.1499 C   0  0  0  0  0  0  0  0  0  0  0  0
    1.6980   -8.8170    4.1345 C   0  0  0  0  0  0  0  0  0  0  0  0
    2.4355   -8.4807    5.1991 C   0  0  0  0  0  0  0  0  0  0  0  0
    3.7662   -7.8879    4.8052 C   0  0  2  0  0  0  0  0  0  0  0  0
    3.9730   -6.5207    5.4215 C   0  0  0  0  0  0  0  0  0  0  0  0
    3.6901   -5.5794    4.5335 C   0  0  0  0  0  0  0  0  0  0  0  0
    3.9774   -4.0937    4.4467 C   0  0  0  0  0  0  0  0  0  0  0  0
    3.6402   -3.7763    2.9558 C   0  0  1  0  0  0  0  0  0  0  0  0
    2.2062   -3.1290    2.9567 C   0  0  0  0  0  0  0  0  0  0  0  0
    1.2175   -3.8181    3.7083 O   0  0  0  0  0  0  0  0  0  0  0  0
    4.6027   -2.8706    2.4400 O   0  0  0  0  0  0  0  0  0  0  0  0
    4.6143   -2.3243    1.0912 C   0  0  1  0  0  0  0  0  0  0  0  0
    6.1243   -1.9967    1.0046 C   0  0  1  0  0  0  0  0  0  0  0  0
    6.4726   -1.0889    2.0321 O   0  0  0  0  0  0  0  0  0  0  0  0
    6.9232   -3.2993    0.9855 C   0  0  2  0  0  0  0  0  0  0  0  0
    7.1838   -3.7946   -0.3393 O   0  0  0  0  0  0  0  0  0  0  0  0
    6.2763   -4.5771    0.4454 C   0  0  2  0  0  0  0  0  0  0  0  0
    4.8310   -4.5896   -0.0551 C   0  0  1  0  0  0  0  0  0  0  0  0
    3.8056   -5.3955    0.7946 C   0  0  2  0  0  0  0  0  0  0  0  0
    2.4409   -4.9450    0.2931 C   0  0  0  0  0  0  0  0  0  0  0  0
    2.6825   -3.5410   -0.2794 C   0  0  0  0  0  0  0  0  0  0  0  0
    4.1972   -3.1881   -0.1885 C   0  0  1  0  0  0  0  0  0  0  0  0
    4.6515   -2.4494   -1.5157 C   0  0  2  0  0  0  0  0  0  0  0  0
    3.8851   -1.1473   -1.8227 C   0  0  0  0  0  0  0  0  0  0  0  0
    2.8277   -1.5540   -2.8467 C   0  0  0  0  0  0  0  0  0  0  0  0
    3.4109   -2.8296   -3.4014 C   0  0  0  0  0  0  0  0  0  0  0  0
    2.9112   -3.4601   -4.3128 O   0  0  0  0  0  0  0  0  0  0  0  0
    4.4458   -3.2191   -2.6864 O   0  0  0  0  0  0  0  0  0  0  0  0
    3.9570   -5.1651    2.3048 C   0  0  2  0  0  0  0  0  0  0  0  0
    3.2360   -6.1229    3.2294 C   0  0  1  0  0  0  0  0  0  0  0  0
    3.5931   -7.6235    3.2734 C   0  0  2  0  0  0  0  0  0  0  0  0
    2.3971   -8.5047    2.8337 C   0  0  1  0  0  0  0  0  0  0  0  0
    2.8661   -9.6825    2.2144 O   0  0  0  0  0  0  0  0  0  0  0  0
   -0.3692   -8.7672    3.6070 H   0  0  0  0  0  0  0  0  0  0  0  0
   -0.0588   -9.5356    5.1720 H   0  0  0  0  0  0  0  0  0  0  0  0
    0.3100  -10.4036    3.6674 H   0  0  0  0  0  0  0  0  0  0  0  0
    2.1380   -8.6289    6.2272 H   0  0  0  0  0  0  0  0  0  0  0  0
    4.5936   -8.5643    5.0337 H   0  0  0  0  0  0  0  0  0  0  0  0
    4.4401   -6.3450    6.3746 H   0  0  0  0  0  0  0  0  0  0  0  0
    3.3924   -3.5207    5.1652 H   0  0  0  0  0  0  0  0  0  0  0  0
    5.0319   -3.9329    4.6625 H   0  0  0  0  0  0  0  0  0  0  0  0
    2.2878   -2.1164    3.3554 H   0  0  0  0  0  0  0  0  0  0  0  0
    1.7626   -2.9965    1.9922 H   0  0  0  0  0  0  0  0  0  0  0  0
    0.4015   -3.3486    3.6495 H   0  0  0  0  0  0  0  0  0  0  0  0
    4.0482   -1.3988    1.1230 H   0  0  0  0  0  0  0  0  0  0  0  0
    6.3856   -1.4315    0.1113 H   0  0  0  0  0  0  0  0  0  0  0  0
    6.3791   -1.5538    2.8483 H   0  0  0  0  0  0  0  0  0  0  0  0
    7.7518   -3.4309    1.6768 H   0  0  0  0  0  0  0  0  0  0  0  0
    6.6889   -5.5322    0.7690 H   0  0  0  0  0  0  0  0  0  0  0  0
    4.8578   -5.0708   -1.0358 H   0  0  0  0  0  0  0  0  0  0  0  0
    3.9381   -6.4646    0.5931 H   0  0  0  0  0  0  0  0  0  0  0  0
    2.1462   -5.5932   -0.5339 H   0  0  0  0  0  0  0  0  0  0  0  0
    1.6482   -5.0349    1.0392 H   0  0  0  0  0  0  0  0  0  0  0  0
    2.3571   -3.7053   -1.2981 H   0  0  0  0  0  0  0  0  0  0  0  0
    2.0480   -2.7312    0.0646 H   0  0  0  0  0  0  0  0  0  0  0  0
    5.7267   -2.2733   -1.5431 H   0  0  0  0  0  0  0  0  0  0  0  0
    3.4541   -0.6771   -0.9361 H   0  0  0  0  0  0  0  0  0  0  0  0
    4.5668   -0.4296   -2.2834 H   0  0  0  0  0  0  0  0  0  0  0  0
    1.8891   -1.8683   -2.3950 H   0  0  0  0  0  0  0  0  0  0  0  0
    2.6193   -0.7712   -3.5809 H   0  0  0  0  0  0  0  0  0  0  0  0
    5.0230   -5.3460    2.4875 H   0  0  0  0  0  0  0  0  0  0  0  0
    2.1533   -6.0259    3.1512 H   0  0  0  0  0  0  0  0  0  0  0  0
    4.5086   -7.8366    2.7149 H   0  0  0  0  0  0  0  0  0  0  0  0
    1.7212   -7.9939    2.1506 H   0  0  0  0  0  0  0  0  0  0  0  0
    2.1267  -10.2185    1.9747 H   0  0  0  0  0  0  0  0  0  0  0  0
  1  2  1  0
  1 34  1  0
  1 35  1  0
  1 36  1  0
  2 32  1  0
  2  3  2  0
  3  4  1  0
  3 37  1  0
  4 31  1  0
  4  5  1  0
  4 38  1  6
  5  6  2  0
  5 39  1  0
  6 30  1  0
  6  7  1  0
  7  8  1  0
  7 40  1  0
  7 41  1  0
  8 29  1  0
  8  9  1  1
  8 11  1  0
  9 10  1  0
  9 42  1  0
  9 43  1  0
 10 44  1  0
 11 12  1  0
 12 22  1  0
 12 13  1  0
 12 45  1  1
 13 14  1  0
 13 15  1  0
 13 46  1  6
 14 47  1  0
 15 17  1  0
 15 16  1  0
 15 48  1  1
 16 17  1  0
 17 18  1  0
 17 49  1  1
 18 22  1  0
 18 19  1  0
 18 50  1  6
 19 20  1  0
 19 29  1  0
 19 51  1  1
 20 21  1  0
 20 52  1  0
 20 53  1  0
 22 21  1  6
 21 54  1  0
 21 55  1  0
 22 23  1  0
 23 28  1  0
 23 24  1  0
 23 56  1  1
 24 25  1  0
 24 57  1  0
 24 58  1  0
 25 26  1  0
 25 59  1  0
 25 60  1  0
 26 27  2  0
 26 28  1  0
 29 30  1  0
 29 61  1  1
 30 31  1  0
 30 62  1  1
 31 32  1  0
 31 63  1  6
 32 33  1  0
 32 64  1  6
 33 65  1  0
M  END
>  <i_m_ct_stereo_status>  (39) 
1

>  <s_m_source_file>  (39) 
/var/tmp/pbs.5076255.sched01/tmpt68d_85j/0g9mu2vg5.sdf

>  <i_m_source_file_index>  (39) 
14

>  <i_lp_mmshare_version>  (39) 
48012

>  <i_f3d_flags>  (39) 
0

>  <s_epik_input>  (39) 
W0NIM11DKD1bQ0hdMSlbQ0BIXShbT0hdKVtDQEBIXTJbQ0BIXTFbQ0hdPUMoW0NIMl0zKVtDQEhdMltDQEhdKFtDQEBdMzRbQ0gyXVtPSF0pW0NIXTVbQ0BASF02W0NAQEhdN1tDQEBIXShPNylbQ0BIXShbT0hdKVtDQEhdKE80KVtDQEBdNihbQ0gyXVtDSDJdNSlbQ0BASF04W0NIMl1bQ0gyXUMoPU8pTzg=

>  <s_epik_cmdline>  (39) 
J2VwaWtfcHl0aG9uJywgJy1waHQnLCAnMi4wJywgJy1waCcsICc3LjAnLCAnLXRuJywgJzgnLCAnLW1hJywgJzIwMCcsICctaW1hZScsICc8aW5maWxlLm1hZT4nLCAnLW9tYWUnLCAnPG91dGZpbGUubWFlPic=

>  <r_lp_tautomer_probability>  (39) 
1

>  <r_epik_Ionization_Penalty>  (39) 
2.45027e-07

>  <r_epik_Ionization_Penalty_Charging>  (39) 
0

>  <r_epik_Ionization_Penalty_Neutral>  (39) 
2.45027e-07

>  <r_epik_State_Penalty>  (39) 
-0

>  <r_epik_Charging_Adjusted_Penalty>  (39) 
0

>  <i_epik_Tot_Q>  (39) 
0

>  <i_epik_Tot_abs_Q>  (39) 
0

>  <s_epik_Chemistry_Notes>  (39) 
This compound has an ester and may undergo hydrolysis at high or low pH.

>  <s_lp_Force_Field>  (39) 
OPLS3e

>  <r_lp_Energy>  (39) 
54.7878

>  <b_lp_Chiralities_Consistent>  (39) 
1

>  <s_lp_Variant>  (39) 
9:0-1

>  <s_i_glide_gridfile>  (39) 
pfpi4k_grid

>  <i_i_glide_lignum>  (39) 
14

>  <i_i_glide_rotatable_bonds>  (39) 
5

>  <r_i_docking_score>  (39) 
-2.30149

>  <r_i_glide_ligand_efficiency>  (39) 
-0.069742

>  <r_i_glide_ligand_efficiency_sa>  (39) 
-0.2237

>  <r_i_glide_ligand_efficiency_ln>  (39) 
-0.511838

>  <r_i_glide_gscore>  (39) 
-2.30149

>  <r_i_glide_lipo>  (39) 
-0.385743

>  <r_i_glide_hbond>  (39) 
0

>  <r_i_glide_metal>  (39) 
-0

>  <r_i_glide_rewards>  (39) 
-0.518146

>  <r_i_glide_evdw>  (39) 
-25.832

>  <r_i_glide_ecoul>  (39) 
-1.99237

>  <r_i_glide_erotb>  (39) 
0.19286

>  <r_i_glide_esite>  (39) 
0

>  <r_i_glide_emodel>  (39) 
-30.805

>  <r_i_glide_energy>  (39) 
-27.8244

>  <r_i_glide_einternal>  (39) 
0.99099

>  <r_i_glide_intrahb_reward>  (39) 
-0

>  <i_i_glide_confnum>  (39) 
2

>  <i_i_glide_posenum>  (39) 
13

>  <r_i_glide_eff_state_penalty>  (39) 
0

>  <ligand_id>  (39) 
9

>  <original_smiles>  (39) 
CC1=CC2C=C3CC4(CO)OC5C(O)C6OC6C6C(CCC56C5CCC(=O)O5)C4C3C2C1O

>  <smiles>  (39) 
[H]OC([H])([H])C12OC3([H])C([H])(O[H])C4([H])OC4([H])C4([H])C([H])(C([H])([H])C([H])([H])C34C3([H])OC(=O)C([H])([H])C3([H])[H])C1([H])C1([H])C(=C([H])C3([H])C([H])=C(C([H])([H])[H])C([H])(O[H])C31[H])C2([H])[H]

$$$$
10:0:0
     RDKit          3D

 49 52  0  0  1  0  0  0  0  0999 V2000
    6.2230   -1.8563   -1.0298 C   0  0  0  0  0  0  0  0  0  0  0  0
    5.1784   -2.8674   -0.6226 C   0  0  0  0  0  0  0  0  0  0  0  0
    3.8759   -2.6961   -0.9554 C   0  0  0  0  0  0  0  0  0  0  0  0
    2.7641   -3.6526   -0.5344 C   0  0  0  0  0  0  0  0  0  0  0  0
    3.3009   -4.5273    0.5796 C   0  0  2  0  0  0  0  0  0  0  0  0
    4.6185   -5.1385    0.1585 C   0  0  2  0  0  0  0  0  0  0  0  0
    4.6614   -6.3637    1.0492 C   0  0  0  0  0  0  0  0  0  0  0  0
    5.7061   -6.9651    1.3140 O   0  0  0  0  0  0  0  0  0  0  0  0
    3.4159   -6.6981    1.4266 N   0  0  0  0  0  0  0  0  0  0  0  0
    3.0918   -7.9598    2.1300 C   0  0  2  0  0  0  0  0  0  0  0  0
    1.8177   -8.7126    1.6886 C   0  0  0  0  0  0  0  0  0  0  0  0
    1.0706   -8.9555    3.0144 C   0  0  2  0  0  0  0  0  0  0  0  0
    0.4759   -7.6086    3.5052 C   0  0  0  0  0  0  0  0  0  0  0  0
    1.7294   -6.8475    4.0100 C   0  0  0  0  0  0  0  0  0  0  0  0
    2.8842   -7.8527    3.6836 C   0  0  2  0  0  0  0  0  0  0  0  0
    4.1771   -7.5609    4.4675 C   0  0  0  0  0  0  0  0  0  0  0  0
    2.2192   -9.2321    4.0148 C   0  0  0  0  0  0  0  0  0  0  0  0
    1.7433   -9.4158    5.4956 C   0  0  0  0  0  0  0  0  0  0  0  0
    3.0697  -10.5067    3.6899 C   0  0  0  0  0  0  0  0  0  0  0  0
    2.5418   -5.7602    1.0078 C   0  0  0  0  0  0  0  0  0  0  0  0
    1.3163   -5.8547    0.9705 O   0  0  0  0  0  0  0  0  0  0  0  0
    5.7006   -4.0636    0.1822 C   0  0  0  0  0  0  0  0  0  0  0  0
    6.7164   -1.4585   -0.1471 H   0  0  0  0  0  0  0  0  0  0  0  0
    5.7685   -1.0405   -1.5815 H   0  0  0  0  0  0  0  0  0  0  0  0
    6.9682   -2.3371   -1.6626 H   0  0  0  0  0  0  0  0  0  0  0  0
    3.5402   -1.8492   -1.5320 H   0  0  0  0  0  0  0  0  0  0  0  0
    1.9130   -3.0798   -0.1732 H   0  0  0  0  0  0  0  0  0  0  0  0
    2.4289   -4.2471   -1.3822 H   0  0  0  0  0  0  0  0  0  0  0  0
    4.5539   -5.5354   -0.8575 H   0  0  0  0  0  0  0  0  0  0  0  0
    3.9280   -8.6348    1.9403 H   0  0  0  0  0  0  0  0  0  0  0  0
    1.1852   -8.1885    0.9612 H   0  0  0  0  0  0  0  0  0  0  0  0
    2.0670   -9.6554    1.1869 H   0  0  0  0  0  0  0  0  0  0  0  0
    0.3220   -9.7477    2.9448 H   0  0  0  0  0  0  0  0  0  0  0  0
   -0.0669   -7.0923    2.7098 H   0  0  0  0  0  0  0  0  0  0  0  0
   -0.2520   -7.7681    4.3037 H   0  0  0  0  0  0  0  0  0  0  0  0
    1.8519   -5.8512    3.5805 H   0  0  0  0  0  0  0  0  0  0  0  0
    1.6514   -6.6616    5.0881 H   0  0  0  0  0  0  0  0  0  0  0  0
    4.0097   -7.6165    5.5449 H   0  0  0  0  0  0  0  0  0  0  0  0
    4.5642   -6.5663    4.2531 H   0  0  0  0  0  0  0  0  0  0  0  0
    4.9626   -8.2741    4.2262 H   0  0  0  0  0  0  0  0  0  0  0  0
    2.5977   -9.5159    6.1620 H   0  0  0  0  0  0  0  0  0  0  0  0
    1.1542  -10.3261    5.6125 H   0  0  0  0  0  0  0  0  0  0  0  0
    1.1367   -8.6148    5.9072 H   0  0  0  0  0  0  0  0  0  0  0  0
    3.9612  -10.5410    4.3154 H   0  0  0  0  0  0  0  0  0  0  0  0
    3.4220  -10.6054    2.6629 H   0  0  0  0  0  0  0  0  0  0  0  0
    2.5102  -11.4196    3.8984 H   0  0  0  0  0  0  0  0  0  0  0  0
    3.4474   -3.9209    1.4799 H   0  0  0  0  0  0  0  0  0  0  0  0
    6.6145   -4.4608   -0.2671 H   0  0  0  0  0  0  0  0  0  0  0  0
    5.9381   -3.7593    1.2058 H   0  0  0  0  0  0  0  0  0  0  0  0
  1  2  1  0
  1 23  1  0
  1 24  1  0
  1 25  1  0
  2 22  1  0
  2  3  2  0
  3  4  1  0
  3 26  1  0
  4 27  1  0
  4 28  1  0
  4  5  1  0
  5  6  1  0
  5 47  1  1
  5 20  1  0
  6  7  1  0
  6 22  1  0
  6 29  1  6
  7  8  2  0
  7  9  1  0
  9 20  1  0
  9 10  1  0
 10 15  1  0
 10 11  1  0
 10 30  1  1
 11 12  1  0
 11 31  1  0
 11 32  1  0
 12 17  1  0
 12 13  1  0
 12 33  1  6
 13 14  1  0
 13 34  1  0
 13 35  1  0
 14 15  1  0
 14 36  1  0
 14 37  1  0
 15 16  1  1
 15 17  1  0
 16 38  1  0
 16 39  1  0
 16 40  1  0
 17 18  1  0
 17 19  1  0
 18 41  1  0
 18 42  1  0
 18 43  1  0
 19 44  1  0
 19 45  1  0
 19 46  1  0
 20 21  2  0
 22 48  1  0
 22 49  1  0
M  END
>  <i_m_ct_stereo_status>  (40) 
1

>  <s_m_source_file>  (40) 
/var/tmp/pbs.5076255.sched01/tmpt68d_85j/0g9mu2vg5.sdf

>  <i_m_source_file_index>  (40) 
15

>  <i_lp_mmshare_version>  (40) 
48012

>  <i_f3d_flags>  (40) 
0

>  <s_epik_input>  (40) 
W0NIMl0xW0NIXT1DKFtDSDNdKVtDSDJdYyhjMTIpYyhbT0hdKW4oYzJbT0hdKVtDQEBIXShbQ0BAXTM0W0NIM10pW0NIMl1bQ0BIXShbQ0gyXVtDSDJdMylDNChbQ0gzXSlbQ0gzXQ==

>  <s_epik_cmdline>  (40) 
J2VwaWtfcHl0aG9uJywgJy1waHQnLCAnMi4wJywgJy1waCcsICc3LjAnLCAnLXRuJywgJzgnLCAnLW1hJywgJzIwMCcsICctaW1hZScsICc8aW5maWxlLm1hZT4nLCAnLW9tYWUnLCAnPG91dGZpbGUubWFlPic=

>  <r_lp_tautomer_probability>  (40) 
1

>  <r_epik_Ionization_Penalty>  (40) 
2.48185e-10

>  <r_epik_Ionization_Penalty_Charging>  (40) 
0

>  <r_epik_Ionization_Penalty_Neutral>  (40) 
2.48185e-10

>  <r_epik_State_Penalty>  (40) 
-0

>  <r_epik_Charging_Adjusted_Penalty>  (40) 
0

>  <i_epik_Tot_Q>  (40) 
0

>  <i_epik_Tot_abs_Q>  (40) 
0

>  <s_lp_Force_Field>  (40) 
OPLS3e

>  <r_lp_Energy>  (40) 
52.1644

>  <b_lp_Chiralities_Consistent>  (40) 
1

>  <s_lp_Variant>  (40) 
10:0-1

>  <s_i_glide_gridfile>  (40) 
pfpi4k_grid

>  <i_i_glide_lignum>  (40) 
15

>  <i_i_glide_rotatable_bonds>  (40) 
1

>  <r_i_docking_score>  (40) 
-3.54228

>  <r_i_glide_ligand_efficiency>  (40) 
-0.161013

>  <r_i_glide_ligand_efficiency_sa>  (40) 
-0.451164

>  <r_i_glide_ligand_efficiency_ln>  (40) 
-0.865862

>  <r_i_glide_gscore>  (40) 
-3.54228

>  <r_i_glide_lipo>  (40) 
-0.097815

>  <r_i_glide_hbond>  (40) 
-0.157945

>  <r_i_glide_metal>  (40) 
-0

>  <r_i_glide_rewards>  (40) 
-1.57672

>  <r_i_glide_evdw>  (40) 
-24.4315

>  <r_i_glide_ecoul>  (40) 
-4.43371

>  <r_i_glide_erotb>  (40) 
0.202482

>  <r_i_glide_esite>  (40) 
-0.0256476

>  <r_i_glide_emodel>  (40) 
-35.025

>  <r_i_glide_energy>  (40) 
-28.8653

>  <r_i_glide_einternal>  (40) 
0.00939132

>  <r_i_glide_intrahb_reward>  (40) 
-0

>  <i_i_glide_confnum>  (40) 
3

>  <i_i_glide_posenum>  (40) 
23

>  <r_i_glide_eff_state_penalty>  (40) 
0

>  <ligand_id>  (40) 
10

>  <original_smiles>  (40) 
CC1=CCc2c(c(O)n(C3CC4CCC3(C)C4(C)C)c2O)C1

>  <smiles>  (40) 
[H]C1=C(C([H])([H])[H])C([H])([H])C2([H])C(=O)N(C3([H])C([H])([H])C4([H])C([H])([H])C([H])([H])C3(C([H])([H])[H])C4(C([H])([H])[H])C([H])([H])[H])C(=O)C2([H])C1([H])[H]

$$$$
10:0:1
     RDKit          3D

 49 52  0  0  1  0  0  0  0  0999 V2000
    3.8830   -1.5347   -1.5533 C   0  0  0  0  0  0  0  0  0  0  0  0
    4.2426   -2.7527   -0.7304 C   0  0  0  0  0  0  0  0  0  0  0  0
    5.5118   -3.0022   -0.3273 C   0  0  0  0  0  0  0  0  0  0  0  0
    5.9327   -4.2394    0.4750 C   0  0  0  0  0  0  0  0  0  0  0  0
    4.8003   -5.2619    0.3642 C   0  0  2  0  0  0  0  0  0  0  0  0
    3.4962   -4.5973    0.7338 C   0  0  2  0  0  0  0  0  0  0  0  0
    2.6471   -5.7939    1.1116 C   0  0  0  0  0  0  0  0  0  0  0  0
    1.4238   -5.7850    1.0440 O   0  0  0  0  0  0  0  0  0  0  0  0
    3.4607   -6.7844    1.5450 N   0  0  0  0  0  0  0  0  0  0  0  0
    3.0720   -8.0399    2.2109 C   0  0  2  0  0  0  0  0  0  0  0  0
    1.8052   -8.7391    1.6805 C   0  0  0  0  0  0  0  0  0  0  0  0
    0.9815   -8.9781    2.9653 C   0  0  2  0  0  0  0  0  0  0  0  0
    0.4128   -7.6210    3.4504 C   0  0  0  0  0  0  0  0  0  0  0  0
    1.6610   -6.9188    4.0360 C   0  0  0  0  0  0  0  0  0  0  0  0
    2.7908   -7.9557    3.7548 C   0  0  2  0  0  0  0  0  0  0  0  0
    4.0519   -7.7279    4.6076 C   0  0  0  0  0  0  0  0  0  0  0  0
    2.0641   -9.3066    4.0188 C   0  0  0  0  0  0  0  0  0  0  0  0
    1.5083   -9.4964    5.4654 C   0  0  0  0  0  0  0  0  0  0  0  0
    2.8839  -10.6025    3.7135 C   0  0  0  0  0  0  0  0  0  0  0  0
    4.7432   -6.5035    1.2354 C   0  0  0  0  0  0  0  0  0  0  0  0
    5.7410   -7.1489    1.5391 O   0  0  0  0  0  0  0  0  0  0  0  0
    3.0631   -3.6617   -0.3884 C   0  0  0  0  0  0  0  0  0  0  0  0
    3.4282   -1.8321   -2.4973 H   0  0  0  0  0  0  0  0  0  0  0  0
    4.7616   -0.9312   -1.7619 H   0  0  0  0  0  0  0  0  0  0  0  0
    3.1628   -0.9236   -1.0112 H   0  0  0  0  0  0  0  0  0  0  0  0
    6.3041   -2.3195   -0.5658 H   0  0  0  0  0  0  0  0  0  0  0  0
    6.8495   -4.6598    0.0609 H   0  0  0  0  0  0  0  0  0  0  0  0
    6.1282   -3.9703    1.5139 H   0  0  0  0  0  0  0  0  0  0  0  0
    3.6269   -4.0125    1.6526 H   0  0  0  0  0  0  0  0  0  0  0  0
    3.8941   -8.7417    2.0581 H   0  0  0  0  0  0  0  0  0  0  0  0
    1.2420   -8.1758    0.9410 H   0  0  0  0  0  0  0  0  0  0  0  0
    2.0524   -9.6819    1.1887 H   0  0  0  0  0  0  0  0  0  0  0  0
    0.2115   -9.7447    2.8419 H   0  0  0  0  0  0  0  0  0  0  0  0
   -0.0637   -7.0700    2.6409 H   0  0  0  0  0  0  0  0  0  0  0  0
   -0.3574   -7.7664    4.2088 H   0  0  0  0  0  0  0  0  0  0  0  0
    1.8449   -5.9239    3.6277 H   0  0  0  0  0  0  0  0  0  0  0  0
    1.5374   -6.7498    5.1077 H   0  0  0  0  0  0  0  0  0  0  0  0
    3.8282   -7.7957    5.6721 H   0  0  0  0  0  0  0  0  0  0  0  0
    4.4866   -6.7444    4.4303 H   0  0  0  0  0  0  0  0  0  0  0  0
    4.8238   -8.4676    4.3914 H   0  0  0  0  0  0  0  0  0  0  0  0
    2.3216   -9.6407    6.1773 H   0  0  0  0  0  0  0  0  0  0  0  0
    0.8754  -10.3851    5.5385 H   0  0  0  0  0  0  0  0  0  0  0  0
    0.9104   -8.6758    5.8575 H   0  0  0  0  0  0  0  0  0  0  0  0
    3.7417  -10.6841    4.3835 H   0  0  0  0  0  0  0  0  0  0  0  0
    3.2849  -10.6943    2.7024 H   0  0  0  0  0  0  0  0  0  0  0  0
    2.2822  -11.5039    3.8732 H   0  0  0  0  0  0  0  0  0  0  0  0
    4.7595   -5.6349   -0.6656 H   0  0  0  0  0  0  0  0  0  0  0  0
    2.2116   -3.0729   -0.0470 H   0  0  0  0  0  0  0  0  0  0  0  0
    2.7448   -4.2367   -1.2594 H   0  0  0  0  0  0  0  0  0  0  0  0
  1  2  1  0
  1 23  1  0
  1 24  1  0
  1 25  1  0
  2 22  1  0
  2  3  2  0
  3  4  1  0
  3 26  1  0
  4 27  1  0
  4 28  1  0
  4  5  1  0
  5  6  1  0
  5 47  1  6
  5 20  1  0
  6  7  1  0
  6 22  1  0
  6 29  1  1
  7  8  2  0
  7  9  1  0
  9 20  1  0
  9 10  1  0
 10 15  1  0
 10 11  1  0
 10 30  1  1
 11 12  1  0
 11 31  1  0
 11 32  1  0
 12 17  1  0
 12 13  1  0
 12 33  1  6
 13 14  1  0
 13 34  1  0
 13 35  1  0
 14 15  1  0
 14 36  1  0
 14 37  1  0
 15 16  1  1
 15 17  1  0
 16 38  1  0
 16 39  1  0
 16 40  1  0
 17 18  1  0
 17 19  1  0
 18 41  1  0
 18 42  1  0
 18 43  1  0
 19 44  1  0
 19 45  1  0
 19 46  1  0
 20 21  2  0
 22 48  1  0
 22 49  1  0
M  END
>  <i_m_ct_stereo_status>  (41) 
1

>  <s_m_source_file>  (41) 
/var/tmp/pbs.5076255.sched01/tmpt68d_85j/0g9mu2vg5.sdf

>  <i_m_source_file_index>  (41) 
15

>  <i_lp_mmshare_version>  (41) 
48012

>  <i_f3d_flags>  (41) 
0

>  <s_epik_input>  (41) 
W0NIMl0xW0NIXT1DKFtDSDNdKVtDSDJdYyhjMTIpYyhbT0hdKW4oYzJbT0hdKVtDQEBIXShbQ0BAXTM0W0NIM10pW0NIMl1bQ0BIXShbQ0gyXVtDSDJdMylDNChbQ0gzXSlbQ0gzXQ==

>  <s_epik_cmdline>  (41) 
J2VwaWtfcHl0aG9uJywgJy1waHQnLCAnMi4wJywgJy1waCcsICc3LjAnLCAnLXRuJywgJzgnLCAnLW1hJywgJzIwMCcsICctaW1hZScsICc8aW5maWxlLm1hZT4nLCAnLW9tYWUnLCAnPG91dGZpbGUubWFlPic=

>  <r_lp_tautomer_probability>  (41) 
1

>  <r_epik_Ionization_Penalty>  (41) 
2.48185e-10

>  <r_epik_Ionization_Penalty_Charging>  (41) 
0

>  <r_epik_Ionization_Penalty_Neutral>  (41) 
2.48185e-10

>  <r_epik_State_Penalty>  (41) 
-0

>  <r_epik_Charging_Adjusted_Penalty>  (41) 
0

>  <i_epik_Tot_Q>  (41) 
0

>  <i_epik_Tot_abs_Q>  (41) 
0

>  <s_lp_Force_Field>  (41) 
OPLS3e

>  <r_lp_Energy>  (41) 
52.1644

>  <b_lp_Chiralities_Consistent>  (41) 
1

>  <s_lp_Variant>  (41) 
10:0-1

>  <s_i_glide_gridfile>  (41) 
pfpi4k_grid

>  <i_i_glide_lignum>  (41) 
15

>  <i_i_glide_rotatable_bonds>  (41) 
1

>  <r_i_docking_score>  (41) 
-3.48293

>  <r_i_glide_ligand_efficiency>  (41) 
-0.158315

>  <r_i_glide_ligand_efficiency_sa>  (41) 
-0.443604

>  <r_i_glide_ligand_efficiency_ln>  (41) 
-0.851354

>  <r_i_glide_gscore>  (41) 
-3.48293

>  <r_i_glide_lipo>  (41) 
-0.192262

>  <r_i_glide_hbond>  (41) 
-0.145074

>  <r_i_glide_metal>  (41) 
-0

>  <r_i_glide_rewards>  (41) 
-1.54992

>  <r_i_glide_evdw>  (41) 
-24.8868

>  <r_i_glide_ecoul>  (41) 
-3.56842

>  <r_i_glide_erotb>  (41) 
0.202482

>  <r_i_glide_esite>  (41) 
-0.0185438

>  <r_i_glide_emodel>  (41) 
-34.597

>  <r_i_glide_energy>  (41) 
-28.4553

>  <r_i_glide_einternal>  (41) 
0.0183368

>  <r_i_glide_intrahb_reward>  (41) 
-0

>  <i_i_glide_confnum>  (41) 
1

>  <i_i_glide_posenum>  (41) 
15

>  <r_i_glide_eff_state_penalty>  (41) 
0

>  <ligand_id>  (41) 
10

>  <original_smiles>  (41) 
CC1=CCc2c(c(O)n(C3CC4CCC3(C)C4(C)C)c2O)C1

>  <smiles>  (41) 
[H]C1=C(C([H])([H])[H])C([H])([H])C2([H])C(=O)N(C3([H])C([H])([H])C4([H])C([H])([H])C([H])([H])C3(C([H])([H])[H])C4(C([H])([H])[H])C([H])([H])[H])C(=O)C2([H])C1([H])[H]

$$$$
10:0:2
     RDKit          3D

 49 52  0  0  1  0  0  0  0  0999 V2000
    3.9366   -1.4209   -1.6909 C   0  0  0  0  0  0  0  0  0  0  0  0
    4.1479   -2.4771   -0.6322 C   0  0  0  0  0  0  0  0  0  0  0  0
    5.2234   -2.4612    0.1916 C   0  0  0  0  0  0  0  0  0  0  0  0
    5.5170   -3.5315    1.2438 C   0  0  0  0  0  0  0  0  0  0  0  0
    4.6472   -4.7493    0.9196 C   0  0  2  0  0  0  0  0  0  0  0  0
    3.2115   -4.3050    0.7507 C   0  0  2  0  0  0  0  0  0  0  0  0
    2.4795   -5.6094    1.0005 C   0  0  0  0  0  0  0  0  0  0  0  0
    1.3539   -5.8367    0.5570 O   0  0  0  0  0  0  0  0  0  0  0  0
    3.2259   -6.3954    1.7915 N   0  0  0  0  0  0  0  0  0  0  0  0
    2.8033   -7.6485    2.4576 C   0  0  2  0  0  0  0  0  0  0  0  0
    1.8147   -8.5623    1.6887 C   0  0  0  0  0  0  0  0  0  0  0  0
    0.7038   -8.8054    2.7353 C   0  0  2  0  0  0  0  0  0  0  0  0
   -0.1204   -7.5035    2.8927 C   0  0  0  0  0  0  0  0  0  0  0  0
    0.8324   -6.5934    3.7019 C   0  0  0  0  0  0  0  0  0  0  0  0
    2.1003   -7.4857    3.8534 C   0  0  2  0  0  0  0  0  0  0  0  0
    3.0364   -7.0199    4.9851 C   0  0  0  0  0  0  0  0  0  0  0  0
    1.4871   -8.8981    4.0618 C   0  0  0  0  0  0  0  0  0  0  0  0
    0.5804   -9.0550    5.3202 C   0  0  0  0  0  0  0  0  0  0  0  0
    2.5015  -10.0831    4.1223 C   0  0  0  0  0  0  0  0  0  0  0  0
    4.4760   -5.9088    1.8812 C   0  0  0  0  0  0  0  0  0  0  0  0
    5.3936   -6.3339    2.5830 O   0  0  0  0  0  0  0  0  0  0  0  0
    3.0602   -3.5538   -0.5680 C   0  0  0  0  0  0  0  0  0  0  0  0
    3.8733   -1.8707   -2.6814 H   0  0  0  0  0  0  0  0  0  0  0  0
    4.7424   -0.6895   -1.6884 H   0  0  0  0  0  0  0  0  0  0  0  0
    3.0056   -0.8915   -1.5024 H   0  0  0  0  0  0  0  0  0  0  0  0
    5.9466   -1.6677    0.1292 H   0  0  0  0  0  0  0  0  0  0  0  0
    6.5689   -3.8158    1.2031 H   0  0  0  0  0  0  0  0  0  0  0  0
    5.3102   -3.1506    2.2445 H   0  0  0  0  0  0  0  0  0  0  0  0
    2.9367   -3.6302    1.5721 H   0  0  0  0  0  0  0  0  0  0  0  0
    3.7122   -8.2305    2.6045 H   0  0  0  0  0  0  0  0  0  0  0  0
    1.3861   -8.1515    0.7844 H   0  0  0  0  0  0  0  0  0  0  0  0
    2.2936   -9.4939    1.3832 H   0  0  0  0  0  0  0  0  0  0  0  0
    0.0836   -9.6718    2.4981 H   0  0  0  0  0  0  0  0  0  0  0  0
   -0.4153   -7.0817    1.9324 H   0  0  0  0  0  0  0  0  0  0  0  0
   -1.0493   -7.6886    3.4347 H   0  0  0  0  0  0  0  0  0  0  0  0
    1.0114   -5.6226    3.2381 H   0  0  0  0  0  0  0  0  0  0  0  0
    0.3971   -6.3484    4.6725 H   0  0  0  0  0  0  0  0  0  0  0  0
    2.5357   -7.0424    5.9517 H   0  0  0  0  0  0  0  0  0  0  0  0
    3.3909   -6.0000    4.8288 H   0  0  0  0  0  0  0  0  0  0  0  0
    3.9157   -7.6602    5.0615 H   0  0  0  0  0  0  0  0  0  0  0  0
    1.1770   -9.0396    6.2344 H   0  0  0  0  0  0  0  0  0  0  0  0
    0.0600  -10.0170    5.3131 H   0  0  0  0  0  0  0  0  0  0  0  0
   -0.1926   -8.2972    5.4466 H   0  0  0  0  0  0  0  0  0  0  0  0
    3.1430  -10.0004    5.0001 H   0  0  0  0  0  0  0  0  0  0  0  0
    3.1707  -10.1815    3.2658 H   0  0  0  0  0  0  0  0  0  0  0  0
    1.9862  -11.0449    4.2126 H   0  0  0  0  0  0  0  0  0  0  0  0
    5.0075   -5.2031   -0.0110 H   0  0  0  0  0  0  0  0  0  0  0  0
    2.0684   -3.0993   -0.6103 H   0  0  0  0  0  0  0  0  0  0  0  0
    3.1502   -4.2394   -1.4107 H   0  0  0  0  0  0  0  0  0  0  0  0
  1  2  1  0
  1 23  1  0
  1 24  1  0
  1 25  1  0
  2 22  1  0
  2  3  2  0
  3  4  1  0
  3 26  1  0
  4 27  1  0
  4 28  1  0
  4  5  1  0
  5  6  1  0
  5 47  1  6
  5 20  1  0
  6  7  1  0
  6 22  1  0
  6 29  1  1
  7  8  2  0
  7  9  1  0
  9 20  1  0
  9 10  1  0
 10 15  1  0
 10 11  1  0
 10 30  1  1
 11 12  1  0
 11 31  1  0
 11 32  1  0
 12 17  1  0
 12 13  1  0
 12 33  1  6
 13 14  1  0
 13 34  1  0
 13 35  1  0
 14 15  1  0
 14 36  1  0
 14 37  1  0
 15 16  1  1
 15 17  1  0
 16 38  1  0
 16 39  1  0
 16 40  1  0
 17 18  1  0
 17 19  1  0
 18 41  1  0
 18 42  1  0
 18 43  1  0
 19 44  1  0
 19 45  1  0
 19 46  1  0
 20 21  2  0
 22 48  1  0
 22 49  1  0
M  END
>  <i_m_ct_stereo_status>  (42) 
1

>  <s_m_source_file>  (42) 
/var/tmp/pbs.5076255.sched01/tmpt68d_85j/0g9mu2vg5.sdf

>  <i_m_source_file_index>  (42) 
15

>  <i_lp_mmshare_version>  (42) 
48012

>  <i_f3d_flags>  (42) 
0

>  <s_epik_input>  (42) 
W0NIMl0xW0NIXT1DKFtDSDNdKVtDSDJdYyhjMTIpYyhbT0hdKW4oYzJbT0hdKVtDQEBIXShbQ0BAXTM0W0NIM10pW0NIMl1bQ0BIXShbQ0gyXVtDSDJdMylDNChbQ0gzXSlbQ0gzXQ==

>  <s_epik_cmdline>  (42) 
J2VwaWtfcHl0aG9uJywgJy1waHQnLCAnMi4wJywgJy1waCcsICc3LjAnLCAnLXRuJywgJzgnLCAnLW1hJywgJzIwMCcsICctaW1hZScsICc8aW5maWxlLm1hZT4nLCAnLW9tYWUnLCAnPG91dGZpbGUubWFlPic=

>  <r_lp_tautomer_probability>  (42) 
1

>  <r_epik_Ionization_Penalty>  (42) 
2.48185e-10

>  <r_epik_Ionization_Penalty_Charging>  (42) 
0

>  <r_epik_Ionization_Penalty_Neutral>  (42) 
2.48185e-10

>  <r_epik_State_Penalty>  (42) 
-0

>  <r_epik_Charging_Adjusted_Penalty>  (42) 
0

>  <i_epik_Tot_Q>  (42) 
0

>  <i_epik_Tot_abs_Q>  (42) 
0

>  <s_lp_Force_Field>  (42) 
OPLS3e

>  <r_lp_Energy>  (42) 
52.1644

>  <b_lp_Chiralities_Consistent>  (42) 
1

>  <s_lp_Variant>  (42) 
10:0-1

>  <s_i_glide_gridfile>  (42) 
pfpi4k_grid

>  <i_i_glide_lignum>  (42) 
15

>  <i_i_glide_rotatable_bonds>  (42) 
1

>  <r_i_docking_score>  (42) 
-3.35803

>  <r_i_glide_ligand_efficiency>  (42) 
-0.152638

>  <r_i_glide_ligand_efficiency_sa>  (42) 
-0.427697

>  <r_i_glide_ligand_efficiency_ln>  (42) 
-0.820825

>  <r_i_glide_gscore>  (42) 
-3.35803

>  <r_i_glide_lipo>  (42) 
-0.1305

>  <r_i_glide_hbond>  (42) 
-0.158695

>  <r_i_glide_metal>  (42) 
-0

>  <r_i_glide_rewards>  (42) 
-1.43578

>  <r_i_glide_evdw>  (42) 
-24.153

>  <r_i_glide_ecoul>  (42) 
-3.97752

>  <r_i_glide_erotb>  (42) 
0.202482

>  <r_i_glide_esite>  (42) 
-0.0312561

>  <r_i_glide_emodel>  (42) 
-34.025

>  <r_i_glide_energy>  (42) 
-28.1305

>  <r_i_glide_einternal>  (42) 
0.146338

>  <r_i_glide_intrahb_reward>  (42) 
-0

>  <i_i_glide_confnum>  (42) 
5

>  <i_i_glide_posenum>  (42) 
9

>  <r_i_glide_eff_state_penalty>  (42) 
0

>  <ligand_id>  (42) 
10

>  <original_smiles>  (42) 
CC1=CCc2c(c(O)n(C3CC4CCC3(C)C4(C)C)c2O)C1

>  <smiles>  (42) 
[H]C1=C(C([H])([H])[H])C([H])([H])C2([H])C(=O)N(C3([H])C([H])([H])C4([H])C([H])([H])C([H])([H])C3(C([H])([H])[H])C4(C([H])([H])[H])C([H])([H])[H])C(=O)C2([H])C1([H])[H]

$$$$
10:1:0
     RDKit          3D

 49 52  0  0  1  0  0  0  0  0999 V2000
    1.6099   -0.8280    2.0871 C   0  0  0  0  0  0  0  0  0  0  0  0
    1.2343    0.3093    3.0077 C   0  0  0  0  0  0  0  0  0  0  0  0
    1.2962    1.5895    2.6219 C   0  0  0  0  0  0  0  0  0  0  0  0
    0.8588    2.7146    3.5248 C   0  0  0  0  0  0  0  0  0  0  0  0
    1.2031    2.4247    4.9947 C   0  0  2  0  0  0  0  0  0  0  0  0
    1.1030    0.9629    5.4626 C   0  0  1  0  0  0  0  0  0  0  0  0
    0.0918    1.0474    6.6047 C   0  0  0  0  0  0  0  0  0  0  0  0
   -0.2755    0.0548    7.2303 O   0  0  0  0  0  0  0  0  0  0  0  0
   -0.3255    2.3132    6.8045 N   0  0  0  0  0  0  0  0  0  0  0  0
   -1.3054    2.6477    7.8592 C   0  0  2  0  0  0  0  0  0  0  0  0
   -2.3948    3.6848    7.4893 C   0  0  0  0  0  0  0  0  0  0  0  0
   -2.2947    4.7005    8.6563 C   0  0  2  0  0  0  0  0  0  0  0  0
   -0.9944    5.5236    8.4998 C   0  0  0  0  0  0  0  0  0  0  0  0
    0.1033    4.5098    8.9074 C   0  0  0  0  0  0  0  0  0  0  0  0
   -0.7189    3.2192    9.1952 C   0  0  2  0  0  0  0  0  0  0  0  0
    0.0432    2.1867   10.0491 C   0  0  0  0  0  0  0  0  0  0  0  0
   -1.9877    3.8067    9.8736 C   0  0  0  0  0  0  0  0  0  0  0  0
   -1.7194    4.5762   11.2053 C   0  0  0  0  0  0  0  0  0  0  0  0
   -3.1160    2.7866   10.1891 C   0  0  0  0  0  0  0  0  0  0  0  0
    0.2327    3.1500    5.8996 C   0  0  0  0  0  0  0  0  0  0  0  0
    0.0221    4.3472    5.7635 O   0  0  0  0  0  0  0  0  0  0  0  0
    0.7014   -0.0703    4.3793 C   0  0  0  0  0  0  0  0  0  0  0  0
    2.4162   -1.4172    2.5172 H   0  0  0  0  0  0  0  0  0  0  0  0
    1.9394   -0.4371    1.1302 H   0  0  0  0  0  0  0  0  0  0  0  0
    0.7496   -1.4704    1.9234 H   0  0  0  0  0  0  0  0  0  0  0  0
    1.6155    1.8739    1.6320 H   0  0  0  0  0  0  0  0  0  0  0  0
    1.3547    3.6343    3.2166 H   0  0  0  0  0  0  0  0  0  0  0  0
   -0.2087    2.8760    3.3685 H   0  0  0  0  0  0  0  0  0  0  0  0
    2.0619    0.6653    5.8943 H   0  0  0  0  0  0  0  0  0  0  0  0
   -1.8292    1.7214    8.0984 H   0  0  0  0  0  0  0  0  0  0  0  0
   -2.2743    4.1472    6.5154 H   0  0  0  0  0  0  0  0  0  0  0  0
   -3.3826    3.2207    7.4534 H   0  0  0  0  0  0  0  0  0  0  0  0
   -3.1864    5.3205    8.7645 H   0  0  0  0  0  0  0  0  0  0  0  0
   -0.8752    5.9158    7.4909 H   0  0  0  0  0  0  0  0  0  0  0  0
   -0.9955    6.3925    9.1579 H   0  0  0  0  0  0  0  0  0  0  0  0
    0.8914    4.3854    8.1686 H   0  0  0  0  0  0  0  0  0  0  0  0
    0.6360    4.8519    9.7977 H   0  0  0  0  0  0  0  0  0  0  0  0
    0.3171    2.5994   11.0213 H   0  0  0  0  0  0  0  0  0  0  0  0
    0.9641    1.8655    9.5649 H   0  0  0  0  0  0  0  0  0  0  0  0
   -0.5586    1.2985   10.2393 H   0  0  0  0  0  0  0  0  0  0  0  0
   -1.4304    3.8926   12.0032 H   0  0  0  0  0  0  0  0  0  0  0  0
   -2.6102    5.0805   11.5517 H   0  0  0  0  0  0  0  0  0  0  0  0
   -0.9640    5.3555   11.1646 H   0  0  0  0  0  0  0  0  0  0  0  0
   -2.7618    2.0629   10.9166 H   0  0  0  0  0  0  0  0  0  0  0  0
   -3.4646    2.1762    9.3613 H   0  0  0  0  0  0  0  0  0  0  0  0
   -3.9992    3.2696   10.6114 H   0  0  0  0  0  0  0  0  0  0  0  0
    2.2038    2.7962    5.2190 H   0  0  0  0  0  0  0  0  0  0  0  0
   -0.3858   -0.1730    4.3060 H   0  0  0  0  0  0  0  0  0  0  0  0
    1.0894   -1.0497    4.6720 H   0  0  0  0  0  0  0  0  0  0  0  0
  1  2  1  0
  1 23  1  0
  1 24  1  0
  1 25  1  0
  2 22  1  0
  2  3  2  0
  3  4  1  0
  3 26  1  0
  4 27  1  0
  4 28  1  0
  4  5  1  0
  5  6  1  0
  5 47  1  1
  5 20  1  0
  6  7  1  0
  6 22  1  0
  6 29  1  1
  7  8  2  0
  7  9  1  0
  9 20  1  0
  9 10  1  0
 10 15  1  0
 10 11  1  0
 10 30  1  1
 11 12  1  0
 11 31  1  0
 11 32  1  0
 12 17  1  0
 12 13  1  0
 12 33  1  1
 13 14  1  0
 13 34  1  0
 13 35  1  0
 14 15  1  0
 14 36  1  0
 14 37  1  0
 15 16  1  1
 15 17  1  0
 16 38  1  0
 16 39  1  0
 16 40  1  0
 17 18  1  0
 17 19  1  0
 18 41  1  0
 18 42  1  0
 18 43  1  0
 19 44  1  0
 19 45  1  0
 19 46  1  0
 20 21  2  0
 22 48  1  0
 22 49  1  0
M  END
>  <i_m_ct_stereo_status>  (43) 
1

>  <s_m_source_file>  (43) 
/var/tmp/pbs.5076255.sched01/tmpt68d_85j/0g9mu2vg5.sdf

>  <i_m_source_file_index>  (43) 
16

>  <i_lp_mmshare_version>  (43) 
48012

>  <i_f3d_flags>  (43) 
0

>  <s_epik_input>  (43) 
W0NIMl0xW0NIXT1DKFtDSDNdKVtDSDJdYyhjMTIpYyhbT0hdKW4oYzJbT0hdKVtDQEBIXShbQ0BAXTM0W0NIM10pW0NIMl1bQ0BIXShbQ0gyXVtDSDJdMylDNChbQ0gzXSlbQ0gzXQ==

>  <s_epik_cmdline>  (43) 
J2VwaWtfcHl0aG9uJywgJy1waHQnLCAnMi4wJywgJy1waCcsICc3LjAnLCAnLXRuJywgJzgnLCAnLW1hJywgJzIwMCcsICctaW1hZScsICc8aW5maWxlLm1hZT4nLCAnLW9tYWUnLCAnPG91dGZpbGUubWFlPic=

>  <r_lp_tautomer_probability>  (43) 
1

>  <r_epik_Ionization_Penalty>  (43) 
2.48185e-10

>  <r_epik_Ionization_Penalty_Charging>  (43) 
0

>  <r_epik_Ionization_Penalty_Neutral>  (43) 
2.48185e-10

>  <r_epik_State_Penalty>  (43) 
-0

>  <r_epik_Charging_Adjusted_Penalty>  (43) 
0

>  <i_epik_Tot_Q>  (43) 
0

>  <i_epik_Tot_abs_Q>  (43) 
0

>  <s_lp_Force_Field>  (43) 
OPLS3e

>  <r_lp_Energy>  (43) 
47.9368

>  <b_lp_Chiralities_Consistent>  (43) 
1

>  <s_lp_Variant>  (43) 
10:0-2

>  <s_i_glide_gridfile>  (43) 
pfpi4k_grid

>  <i_i_glide_lignum>  (43) 
16

>  <i_i_glide_rotatable_bonds>  (43) 
1

>  <r_i_docking_score>  (43) 
-2.56848

>  <r_i_glide_ligand_efficiency>  (43) 
-0.116749

>  <r_i_glide_ligand_efficiency_sa>  (43) 
-0.327136

>  <r_i_glide_ligand_efficiency_ln>  (43) 
-0.627831

>  <r_i_glide_gscore>  (43) 
-2.56848

>  <r_i_glide_lipo>  (43) 
-0.106237

>  <r_i_glide_hbond>  (43) 
0

>  <r_i_glide_metal>  (43) 
-0

>  <r_i_glide_rewards>  (43) 
-1.35393

>  <r_i_glide_evdw>  (43) 
-18.8727

>  <r_i_glide_ecoul>  (43) 
-2.36326

>  <r_i_glide_erotb>  (43) 
0.202482

>  <r_i_glide_esite>  (43) 
-0.0126714

>  <r_i_glide_emodel>  (43) 
-24.7401

>  <r_i_glide_energy>  (43) 
-21.2359

>  <r_i_glide_einternal>  (43) 
0.0892511

>  <r_i_glide_intrahb_reward>  (43) 
-0

>  <i_i_glide_confnum>  (43) 
2

>  <i_i_glide_posenum>  (43) 
11

>  <r_i_glide_eff_state_penalty>  (43) 
0

>  <ligand_id>  (43) 
10

>  <original_smiles>  (43) 
CC1=CCc2c(c(O)n(C3CC4CCC3(C)C4(C)C)c2O)C1

>  <smiles>  (43) 
[H]C1=C(C([H])([H])[H])C([H])([H])C2([H])C(=O)N(C3([H])C([H])([H])C4([H])C([H])([H])C([H])([H])C3(C([H])([H])[H])C4(C([H])([H])[H])C([H])([H])[H])C(=O)C2([H])C1([H])[H]

$$$$
10:1:1
     RDKit          3D

 49 52  0  0  1  0  0  0  0  0999 V2000
   -0.7137    0.9871    2.4457 C   0  0  0  0  0  0  0  0  0  0  0  0
    0.3717    1.3911    3.4163 C   0  0  0  0  0  0  0  0  0  0  0  0
    0.9365    2.6027    3.3920 C   0  0  0  0  0  0  0  0  0  0  0  0
    2.0985    2.9656    4.2875 C   0  0  0  0  0  0  0  0  0  0  0  0
    2.0042    2.2950    5.6782 C   0  0  2  0  0  0  0  0  0  0  0  0
    1.3656    0.8794    5.7246 C   0  0  1  0  0  0  0  0  0  0  0  0
    0.2008    1.0833    6.6971 C   0  0  0  0  0  0  0  0  0  0  0  0
   -0.5609    0.1633    7.0042 O   0  0  0  0  0  0  0  0  0  0  0  0
    0.1357    2.3405    7.1453 N   0  0  0  0  0  0  0  0  0  0  0  0
   -0.9004    2.7862    8.1059 C   0  0  2  0  0  0  0  0  0  0  0  0
   -1.5908    4.1395    7.8039 C   0  0  0  0  0  0  0  0  0  0  0  0
   -1.4736    4.8764    9.1587 C   0  0  2  0  0  0  0  0  0  0  0  0
   -0.0026    5.3088    9.3608 C   0  0  0  0  0  0  0  0  0  0  0  0
    0.7028    3.9771    9.7140 C   0  0  0  0  0  0  0  0  0  0  0  0
   -0.4537    2.9483    9.6070 C   0  0  2  0  0  0  0  0  0  0  0  0
   -0.1545    1.6200   10.3231 C   0  0  0  0  0  0  0  0  0  0  0  0
   -1.6409    3.7467   10.1928 C   0  0  0  0  0  0  0  0  0  0  0  0
   -1.4649    4.2152   11.6687 C   0  0  0  0  0  0  0  0  0  0  0  0
   -3.0172    3.0347   10.1341 C   0  0  0  0  0  0  0  0  0  0  0  0
    1.0829    3.0985    6.5863 C   0  0  0  0  0  0  0  0  0  0  0  0
    1.2490    4.3081    6.7445 O   0  0  0  0  0  0  0  0  0  0  0  0
    0.8815    0.3151    4.3624 C   0  0  0  0  0  0  0  0  0  0  0  0
   -0.3748    0.1463    1.8425 H   0  0  0  0  0  0  0  0  0  0  0  0
   -0.9538    1.8033    1.7656 H   0  0  0  0  0  0  0  0  0  0  0  0
   -1.6190    0.7043    2.9797 H   0  0  0  0  0  0  0  0  0  0  0  0
    0.6147    3.3516    2.6818 H   0  0  0  0  0  0  0  0  0  0  0  0
    3.0304    2.7006    3.7919 H   0  0  0  0  0  0  0  0  0  0  0  0
    2.1120    4.0504    4.3881 H   0  0  0  0  0  0  0  0  0  0  0  0
    2.0467    0.1648    6.1964 H   0  0  0  0  0  0  0  0  0  0  0  0
   -1.6917    2.0356    8.0843 H   0  0  0  0  0  0  0  0  0  0  0  0
   -1.1487    4.7055    6.9868 H   0  0  0  0  0  0  0  0  0  0  0  0
   -2.6339    3.9895    7.5206 H   0  0  0  0  0  0  0  0  0  0  0  0
   -2.1844    5.6995    9.2551 H   0  0  0  0  0  0  0  0  0  0  0  0
    0.4034    5.7980    8.4752 H   0  0  0  0  0  0  0  0  0  0  0  0
    0.0842    6.0333   10.1700 H   0  0  0  0  0  0  0  0  0  0  0  0
    1.5649    3.7483    9.0825 H   0  0  0  0  0  0  0  0  0  0  0  0
    1.0928    4.0138   10.7337 H   0  0  0  0  0  0  0  0  0  0  0  0
    0.0198    1.7757   11.3874 H   0  0  0  0  0  0  0  0  0  0  0  0
    0.7313    1.1317    9.9150 H   0  0  0  0  0  0  0  0  0  0  0  0
   -0.9805    0.9131   10.2398 H   0  0  0  0  0  0  0  0  0  0  0  0
   -1.4862    3.3666   12.3559 H   0  0  0  0  0  0  0  0  0  0  0  0
   -2.2711    4.8861   11.9837 H   0  0  0  0  0  0  0  0  0  0  0  0
   -0.5393    4.7426   11.8943 H   0  0  0  0  0  0  0  0  0  0  0  0
   -3.0366    2.1599   10.7896 H   0  0  0  0  0  0  0  0  0  0  0  0
   -3.3704    2.7029    9.1537 H   0  0  0  0  0  0  0  0  0  0  0  0
   -3.7829    3.7117   10.5202 H   0  0  0  0  0  0  0  0  0  0  0  0
    2.9864    2.2720    6.1521 H   0  0  0  0  0  0  0  0  0  0  0  0
    0.1059   -0.4417    4.5103 H   0  0  0  0  0  0  0  0  0  0  0  0
    1.7149   -0.1905    3.8725 H   0  0  0  0  0  0  0  0  0  0  0  0
  1  2  1  0
  1 23  1  0
  1 24  1  0
  1 25  1  0
  2 22  1  0
  2  3  2  0
  3  4  1  0
  3 26  1  0
  4 27  1  0
  4 28  1  0
  4  5  1  0
  5  6  1  0
  5 47  1  1
  5 20  1  0
  6  7  1  0
  6 22  1  0
  6 29  1  1
  7  8  2  0
  7  9  1  0
  9 20  1  0
  9 10  1  0
 10 15  1  0
 10 11  1  0
 10 30  1  1
 11 12  1  0
 11 31  1  0
 11 32  1  0
 12 17  1  0
 12 13  1  0
 12 33  1  1
 13 14  1  0
 13 34  1  0
 13 35  1  0
 14 15  1  0
 14 36  1  0
 14 37  1  0
 15 16  1  1
 15 17  1  0
 16 38  1  0
 16 39  1  0
 16 40  1  0
 17 18  1  0
 17 19  1  0
 18 41  1  0
 18 42  1  0
 18 43  1  0
 19 44  1  0
 19 45  1  0
 19 46  1  0
 20 21  2  0
 22 48  1  0
 22 49  1  0
M  END
>  <i_m_ct_stereo_status>  (44) 
1

>  <s_m_source_file>  (44) 
/var/tmp/pbs.5076255.sched01/tmpt68d_85j/0g9mu2vg5.sdf

>  <i_m_source_file_index>  (44) 
16

>  <i_lp_mmshare_version>  (44) 
48012

>  <i_f3d_flags>  (44) 
0

>  <s_epik_input>  (44) 
W0NIMl0xW0NIXT1DKFtDSDNdKVtDSDJdYyhjMTIpYyhbT0hdKW4oYzJbT0hdKVtDQEBIXShbQ0BAXTM0W0NIM10pW0NIMl1bQ0BIXShbQ0gyXVtDSDJdMylDNChbQ0gzXSlbQ0gzXQ==

>  <s_epik_cmdline>  (44) 
J2VwaWtfcHl0aG9uJywgJy1waHQnLCAnMi4wJywgJy1waCcsICc3LjAnLCAnLXRuJywgJzgnLCAnLW1hJywgJzIwMCcsICctaW1hZScsICc8aW5maWxlLm1hZT4nLCAnLW9tYWUnLCAnPG91dGZpbGUubWFlPic=

>  <r_lp_tautomer_probability>  (44) 
1

>  <r_epik_Ionization_Penalty>  (44) 
2.48185e-10

>  <r_epik_Ionization_Penalty_Charging>  (44) 
0

>  <r_epik_Ionization_Penalty_Neutral>  (44) 
2.48185e-10

>  <r_epik_State_Penalty>  (44) 
-0

>  <r_epik_Charging_Adjusted_Penalty>  (44) 
0

>  <i_epik_Tot_Q>  (44) 
0

>  <i_epik_Tot_abs_Q>  (44) 
0

>  <s_lp_Force_Field>  (44) 
OPLS3e

>  <r_lp_Energy>  (44) 
47.9368

>  <b_lp_Chiralities_Consistent>  (44) 
1

>  <s_lp_Variant>  (44) 
10:0-2

>  <s_i_glide_gridfile>  (44) 
pfpi4k_grid

>  <i_i_glide_lignum>  (44) 
16

>  <i_i_glide_rotatable_bonds>  (44) 
1

>  <r_i_docking_score>  (44) 
-2.519

>  <r_i_glide_ligand_efficiency>  (44) 
-0.1145

>  <r_i_glide_ligand_efficiency_sa>  (44) 
-0.320833

>  <r_i_glide_ligand_efficiency_ln>  (44) 
-0.615735

>  <r_i_glide_gscore>  (44) 
-2.519

>  <r_i_glide_lipo>  (44) 
-0.000308293

>  <r_i_glide_hbond>  (44) 
-0.0309573

>  <r_i_glide_metal>  (44) 
-0

>  <r_i_glide_rewards>  (44) 
-1.35393

>  <r_i_glide_evdw>  (44) 
-17.9015

>  <r_i_glide_ecoul>  (44) 
-2.89275

>  <r_i_glide_erotb>  (44) 
0.202482

>  <r_i_glide_esite>  (44) 
-0.00729386

>  <r_i_glide_emodel>  (44) 
-24.1259

>  <r_i_glide_energy>  (44) 
-20.7942

>  <r_i_glide_einternal>  (44) 
0.177995

>  <r_i_glide_intrahb_reward>  (44) 
-0

>  <i_i_glide_confnum>  (44) 
6

>  <i_i_glide_posenum>  (44) 
17

>  <r_i_glide_eff_state_penalty>  (44) 
0

>  <ligand_id>  (44) 
10

>  <original_smiles>  (44) 
CC1=CCc2c(c(O)n(C3CC4CCC3(C)C4(C)C)c2O)C1

>  <smiles>  (44) 
[H]C1=C(C([H])([H])[H])C([H])([H])C2([H])C(=O)N(C3([H])C([H])([H])C4([H])C([H])([H])C([H])([H])C3(C([H])([H])[H])C4(C([H])([H])[H])C([H])([H])[H])C(=O)C2([H])C1([H])[H]

$$$$
10:1:2
     RDKit          3D

 49 52  0  0  1  0  0  0  0  0999 V2000
    2.2011    0.6824    1.7086 C   0  0  0  0  0  0  0  0  0  0  0  0
    1.2522    1.2524    2.7317 C   0  0  0  0  0  0  0  0  0  0  0  0
   -0.0348    1.4967    2.4588 C   0  0  0  0  0  0  0  0  0  0  0  0
   -0.9910    1.9976    3.5105 C   0  0  0  0  0  0  0  0  0  0  0  0
   -0.3067    2.9723    4.4869 C   0  0  2  0  0  0  0  0  0  0  0  0
    1.1696    2.6957    4.8279 C   0  0  1  0  0  0  0  0  0  0  0  0
    1.1317    2.5642    6.3456 C   0  0  0  0  0  0  0  0  0  0  0  0
    2.1424    2.3301    7.0021 O   0  0  0  0  0  0  0  0  0  0  0  0
   -0.1096    2.7331    6.8328 N   0  0  0  0  0  0  0  0  0  0  0  0
   -0.4021    2.6499    8.2852 C   0  0  2  0  0  0  0  0  0  0  0  0
   -1.6648    1.8619    8.6881 C   0  0  0  0  0  0  0  0  0  0  0  0
   -2.3830    2.8469    9.6446 C   0  0  2  0  0  0  0  0  0  0  0  0
   -2.9795    3.9916    8.7962 C   0  0  0  0  0  0  0  0  0  0  0  0
   -1.7285    4.8230    8.4240 C   0  0  0  0  0  0  0  0  0  0  0  0
   -0.5770    4.0004    9.0602 C   0  0  2  0  0  0  0  0  0  0  0  0
    0.7254    4.8047    9.2237 C   0  0  0  0  0  0  0  0  0  0  0  0
   -1.2227    3.5301   10.3899 C   0  0  0  0  0  0  0  0  0  0  0  0
   -1.6720    4.6708   11.3499 C   0  0  0  0  0  0  0  0  0  0  0  0
   -0.3636    2.5626   11.2592 C   0  0  0  0  0  0  0  0  0  0  0  0
   -0.9906    2.9253    5.8351 C   0  0  0  0  0  0  0  0  0  0  0  0
   -2.2073    3.0461    5.9350 O   0  0  0  0  0  0  0  0  0  0  0  0
    1.8137    1.4702    4.1300 C   0  0  0  0  0  0  0  0  0  0  0  0
    3.0357    1.3586    1.5447 H   0  0  0  0  0  0  0  0  0  0  0  0
    1.6829    0.5436    0.7620 H   0  0  0  0  0  0  0  0  0  0  0  0
    2.5891   -0.2785    2.0386 H   0  0  0  0  0  0  0  0  0  0  0  0
   -0.4551    1.3118    1.4792 H   0  0  0  0  0  0  0  0  0  0  0  0
   -1.8239    2.5112    3.0344 H   0  0  0  0  0  0  0  0  0  0  0  0
   -1.4139    1.1344    4.0256 H   0  0  0  0  0  0  0  0  0  0  0  0
    1.7646    3.5853    4.5973 H   0  0  0  0  0  0  0  0  0  0  0  0
    0.4313    2.1212    8.7467 H   0  0  0  0  0  0  0  0  0  0  0  0
   -2.3015    1.5489    7.8667 H   0  0  0  0  0  0  0  0  0  0  0  0
   -1.3684    0.9466    9.2045 H   0  0  0  0  0  0  0  0  0  0  0  0
   -3.1200    2.3619   10.2879 H   0  0  0  0  0  0  0  0  0  0  0  0
   -3.5197    3.6044    7.9337 H   0  0  0  0  0  0  0  0  0  0  0  0
   -3.6971    4.5819    9.3649 H   0  0  0  0  0  0  0  0  0  0  0  0
   -1.5993    4.9685    7.3532 H   0  0  0  0  0  0  0  0  0  0  0  0
   -1.7910    5.8233    8.8562 H   0  0  0  0  0  0  0  0  0  0  0  0
    0.5729    5.6747    9.8601 H   0  0  0  0  0  0  0  0  0  0  0  0
    1.0995    5.1664    8.2656 H   0  0  0  0  0  0  0  0  0  0  0  0
    1.5149    4.2042    9.6767 H   0  0  0  0  0  0  0  0  0  0  0  0
   -0.8102    5.1861   11.7741 H   0  0  0  0  0  0  0  0  0  0  0  0
   -2.2444    4.2772   12.1919 H   0  0  0  0  0  0  0  0  0  0  0  0
   -2.2941    5.4473   10.9051 H   0  0  0  0  0  0  0  0  0  0  0  0
    0.5285    3.0644   11.6364 H   0  0  0  0  0  0  0  0  0  0  0  0
   -0.0164    1.6558   10.7619 H   0  0  0  0  0  0  0  0  0  0  0  0
   -0.9214    2.2275   12.1382 H   0  0  0  0  0  0  0  0  0  0  0  0
   -0.3808    3.9922    4.1024 H   0  0  0  0  0  0  0  0  0  0  0  0
    1.6594    0.5525    4.7036 H   0  0  0  0  0  0  0  0  0  0  0  0
    2.8943    1.6302    4.0745 H   0  0  0  0  0  0  0  0  0  0  0  0
  1  2  1  0
  1 23  1  0
  1 24  1  0
  1 25  1  0
  2 22  1  0
  2  3  2  0
  3  4  1  0
  3 26  1  0
  4 27  1  0
  4 28  1  0
  4  5  1  0
  5  6  1  0
  5 47  1  6
  5 20  1  0
  6  7  1  0
  6 22  1  0
  6 29  1  1
  7  8  2  0
  7  9  1  0
  9 20  1  0
  9 10  1  0
 10 15  1  0
 10 11  1  0
 10 30  1  1
 11 12  1  0
 11 31  1  0
 11 32  1  0
 12 17  1  0
 12 13  1  0
 12 33  1  1
 13 14  1  0
 13 34  1  0
 13 35  1  0
 14 15  1  0
 14 36  1  0
 14 37  1  0
 15 16  1  1
 15 17  1  0
 16 38  1  0
 16 39  1  0
 16 40  1  0
 17 18  1  0
 17 19  1  0
 18 41  1  0
 18 42  1  0
 18 43  1  0
 19 44  1  0
 19 45  1  0
 19 46  1  0
 20 21  2  0
 22 48  1  0
 22 49  1  0
M  END
>  <i_m_ct_stereo_status>  (45) 
1

>  <s_m_source_file>  (45) 
/var/tmp/pbs.5076255.sched01/tmpt68d_85j/0g9mu2vg5.sdf

>  <i_m_source_file_index>  (45) 
16

>  <i_lp_mmshare_version>  (45) 
48012

>  <i_f3d_flags>  (45) 
0

>  <s_epik_input>  (45) 
W0NIMl0xW0NIXT1DKFtDSDNdKVtDSDJdYyhjMTIpYyhbT0hdKW4oYzJbT0hdKVtDQEBIXShbQ0BAXTM0W0NIM10pW0NIMl1bQ0BIXShbQ0gyXVtDSDJdMylDNChbQ0gzXSlbQ0gzXQ==

>  <s_epik_cmdline>  (45) 
J2VwaWtfcHl0aG9uJywgJy1waHQnLCAnMi4wJywgJy1waCcsICc3LjAnLCAnLXRuJywgJzgnLCAnLW1hJywgJzIwMCcsICctaW1hZScsICc8aW5maWxlLm1hZT4nLCAnLW9tYWUnLCAnPG91dGZpbGUubWFlPic=

>  <r_lp_tautomer_probability>  (45) 
1

>  <r_epik_Ionization_Penalty>  (45) 
2.48185e-10

>  <r_epik_Ionization_Penalty_Charging>  (45) 
0

>  <r_epik_Ionization_Penalty_Neutral>  (45) 
2.48185e-10

>  <r_epik_State_Penalty>  (45) 
-0

>  <r_epik_Charging_Adjusted_Penalty>  (45) 
0

>  <i_epik_Tot_Q>  (45) 
0

>  <i_epik_Tot_abs_Q>  (45) 
0

>  <s_lp_Force_Field>  (45) 
OPLS3e

>  <r_lp_Energy>  (45) 
47.9368

>  <b_lp_Chiralities_Consistent>  (45) 
1

>  <s_lp_Variant>  (45) 
10:0-2

>  <s_i_glide_gridfile>  (45) 
pfpi4k_grid

>  <i_i_glide_lignum>  (45) 
16

>  <i_i_glide_rotatable_bonds>  (45) 
1

>  <r_i_docking_score>  (45) 
-2.42965

>  <r_i_glide_ligand_efficiency>  (45) 
-0.110439

>  <r_i_glide_ligand_efficiency_sa>  (45) 
-0.309453

>  <r_i_glide_ligand_efficiency_ln>  (45) 
-0.593895

>  <r_i_glide_gscore>  (45) 
-2.42965

>  <r_i_glide_lipo>  (45) 
-0.0578015

>  <r_i_glide_hbond>  (45) 
0

>  <r_i_glide_metal>  (45) 
-0

>  <r_i_glide_rewards>  (45) 
-1.35393

>  <r_i_glide_evdw>  (45) 
-21.6947

>  <r_i_glide_ecoul>  (45) 
-0.891474

>  <r_i_glide_erotb>  (45) 
0.202482

>  <r_i_glide_esite>  (45) 
-0.00194103

>  <r_i_glide_emodel>  (45) 
-25.8988

>  <r_i_glide_energy>  (45) 
-22.5862

>  <r_i_glide_einternal>  (45) 
0.0865999

>  <r_i_glide_intrahb_reward>  (45) 
-0

>  <i_i_glide_confnum>  (45) 
2

>  <i_i_glide_posenum>  (45) 
2

>  <r_i_glide_eff_state_penalty>  (45) 
0

>  <ligand_id>  (45) 
10

>  <original_smiles>  (45) 
CC1=CCc2c(c(O)n(C3CC4CCC3(C)C4(C)C)c2O)C1

>  <smiles>  (45) 
[H]C1=C(C([H])([H])[H])C([H])([H])C2([H])C(=O)N(C3([H])C([H])([H])C4([H])C([H])([H])C([H])([H])C3(C([H])([H])[H])C4(C([H])([H])[H])C([H])([H])[H])C(=O)C2([H])C1([H])[H]

$$$$
11:0:0
     RDKit          3D

 67 73  0  0  1  0  0  0  0  0999 V2000
   -1.4921    1.9404    2.1234 C   0  0  0  0  0  0  0  0  0  0  0  0
   -1.8805    2.9788    2.8917 C   0  0  0  0  0  0  0  0  0  0  0  0
   -3.3603    3.3032    3.0137 C   0  0  0  0  0  0  0  0  0  0  0  0
   -0.9090    3.9224    3.6174 C   0  0  1  0  0  0  0  0  0  0  0  0
   -0.9860    5.1431    2.8975 O   0  0  0  0  0  0  0  0  0  0  0  0
   -1.1145    4.1275    5.1617 C   0  0  1  0  0  0  0  0  0  0  0  0
   -2.1790    3.4912    5.9070 O   0  0  0  0  0  0  0  0  0  0  0  0
   -1.7846    2.8179    7.1362 C   0  0  1  0  0  0  0  0  0  0  0  0
   -3.0543    2.5473    7.9414 C   0  0  0  0  0  0  0  0  0  0  0  0
   -1.0384    1.5121    6.7297 C   0  0  2  0  0  0  0  0  0  0  0  0
   -0.3100    0.7937    7.7019 O   0  0  0  0  0  0  0  0  0  0  0  0
   -0.0153   -0.5925    7.4544 C   0  0  1  0  0  0  0  0  0  0  0  0
    0.2820   -1.1894    8.8251 C   0  0  0  0  0  0  0  0  0  0  0  0
   -0.8503   -1.4024    6.4812 C   0  0  0  0  0  0  0  0  0  0  0  0
    0.6016   -1.1211    6.1233 C   0  0  2  0  0  0  0  0  0  0  0  0
    1.6344   -2.6133    6.4460 S   0  0  0  0  0  0  0  0  0  0  0  0
    1.0388   -3.8496    5.2535 C   0  0  0  0  0  0  0  0  0  0  0  0
    0.8982   -0.3622    4.7728 C   0  0  2  0  0  0  0  0  0  0  0  0
    0.2729   -0.8593    3.4882 C   0  0  0  0  0  0  0  0  0  0  0  0
    1.5316   -0.6675    2.8007 O   0  0  0  0  0  0  0  0  0  0  0  0
    2.2020   -0.7619    4.0831 C   0  0  1  0  0  0  0  0  0  0  0  0
    3.2536    0.2694    4.4531 C   0  0  1  0  0  0  0  0  0  0  0  0
    3.7105    0.8836    3.2760 O   0  0  0  0  0  0  0  0  0  0  0  0
    2.5288    1.2497    5.4106 C   0  0  1  0  0  0  0  0  0  0  0  0
    3.1931    2.5077    5.4985 O   0  0  0  0  0  0  0  0  0  0  0  0
    4.4500    2.4782    6.1537 C   0  0  0  0  0  0  0  0  0  0  0  0
    1.0471    1.1716    4.9403 C   0  0  1  0  0  0  0  0  0  0  0  0
    0.9472    1.9939    3.7199 O   0  0  0  0  0  0  0  0  0  0  0  0
    0.5720    3.4048    3.9247 C   0  0  1  0  0  0  0  0  0  0  0  0
    1.7238    4.3083    3.4587 C   0  0  0  0  0  0  0  0  0  0  0  0
    0.1418    3.3280    5.3829 C   0  0  1  0  0  0  0  0  0  0  0  0
    1.0005    3.8546    6.3689 O   0  0  0  0  0  0  0  0  0  0  0  0
   -0.1037    1.8829    5.6012 C   0  0  2  0  0  0  0  0  0  0  0  0
   -2.2159    1.3160    1.6337 H   0  0  0  0  0  0  0  0  0  0  0  0
   -0.4597    1.6992    1.9426 H   0  0  0  0  0  0  0  0  0  0  0  0
   -3.5243    4.3678    2.8488 H   0  0  0  0  0  0  0  0  0  0  0  0
   -3.7556    3.0227    3.9912 H   0  0  0  0  0  0  0  0  0  0  0  0
   -3.9371    2.7774    2.2513 H   0  0  0  0  0  0  0  0  0  0  0  0
   -0.5873    4.9485    2.0265 H   0  0  0  0  0  0  0  0  0  0  0  0
   -0.9481    5.1671    5.4516 H   0  0  0  0  0  0  0  0  0  0  0  0
   -1.1428    3.4668    7.7324 H   0  0  0  0  0  0  0  0  0  0  0  0
   -2.8295    1.9876    8.8516 H   0  0  0  0  0  0  0  0  0  0  0  0
   -3.7616    1.9931    7.3246 H   0  0  0  0  0  0  0  0  0  0  0  0
   -3.5417    3.4744    8.2427 H   0  0  0  0  0  0  0  0  0  0  0  0
   -1.8594    0.8962    6.3854 H   0  0  0  0  0  0  0  0  0  0  0  0
    0.2223   -2.2747    8.8149 H   0  0  0  0  0  0  0  0  0  0  0  0
   -0.4413   -0.8188    9.5508 H   0  0  0  0  0  0  0  0  0  0  0  0
    1.2755   -0.8905    9.1541 H   0  0  0  0  0  0  0  0  0  0  0  0
   -1.0949   -2.4201    6.7954 H   0  0  0  0  0  0  0  0  0  0  0  0
   -1.5570   -0.9842    5.7730 H   0  0  0  0  0  0  0  0  0  0  0  0
    1.5572   -4.7933    5.4213 H   0  0  0  0  0  0  0  0  0  0  0  0
    1.2445   -3.5510    4.2271 H   0  0  0  0  0  0  0  0  0  0  0  0
   -0.0313   -4.0159    5.3662 H   0  0  0  0  0  0  0  0  0  0  0  0
   -0.0506   -1.8941    3.5167 H   0  0  0  0  0  0  0  0  0  0  0  0
   -0.5258   -0.2184    3.1443 H   0  0  0  0  0  0  0  0  0  0  0  0
    2.5640   -1.7741    4.1951 H   0  0  0  0  0  0  0  0  0  0  0  0
    4.1050   -0.1901    4.9566 H   0  0  0  0  0  0  0  0  0  0  0  0
    4.1175    1.7087    3.5043 H   0  0  0  0  0  0  0  0  0  0  0  0
    2.5460    0.8139    6.4124 H   0  0  0  0  0  0  0  0  0  0  0  0
    4.8538    3.4884    6.1626 H   0  0  0  0  0  0  0  0  0  0  0  0
    5.1652    1.8454    5.6311 H   0  0  0  0  0  0  0  0  0  0  0  0
    4.3671    2.1378    7.1859 H   0  0  0  0  0  0  0  0  0  0  0  0
    1.6015    5.3259    3.8185 H   0  0  0  0  0  0  0  0  0  0  0  0
    1.7738    4.3521    2.3748 H   0  0  0  0  0  0  0  0  0  0  0  0
    2.6990    3.9594    3.7711 H   0  0  0  0  0  0  0  0  0  0  0  0
    1.3042    4.6896    6.0478 H   0  0  0  0  0  0  0  0  0  0  0  0
   -0.8555    1.6141    4.8644 H   0  0  0  0  0  0  0  0  0  0  0  0
  1  2  2  0
  1 34  1  0
  1 35  1  0
  2  3  1  0
  2  4  1  0
  3 36  1  0
  3 37  1  0
  3 38  1  0
  4 29  1  0
  4  5  1  6
  4  6  1  0
  5 39  1  0
  6 31  1  0
  6  7  1  0
  6 40  1  6
  7  8  1  0
  8  9  1  0
  8 10  1  0
  8 41  1  1
  9 42  1  0
  9 43  1  0
  9 44  1  0
 10 33  1  0
 10 11  1  0
 10 45  1  6
 11 12  1  0
 12 15  1  0
 12 13  1  1
 12 14  1  0
 13 46  1  0
 13 47  1  0
 13 48  1  0
 14 15  1  0
 14 49  1  0
 14 50  1  0
 15 16  1  1
 15 18  1  0
 16 17  1  0
 17 51  1  0
 17 52  1  0
 17 53  1  0
 18 21  1  0
 18 27  1  0
 18 19  1  6
 19 20  1  0
 19 54  1  0
 19 55  1  0
 20 21  1  0
 21 22  1  0
 21 56  1  1
 22 23  1  0
 22 24  1  0
 22 57  1  1
 23 58  1  0
 24 25  1  0
 24 27  1  0
 24 59  1  1
 25 26  1  0
 26 60  1  0
 26 61  1  0
 26 62  1  0
 27 33  1  0
 27 28  1  6
 28 29  1  0
 29 30  1  1
 29 31  1  0
 30 63  1  0
 30 64  1  0
 30 65  1  0
 31 32  1  1
 31 33  1  0
 32 66  1  0
 33 67  1  6
M  END
>  <i_m_ct_stereo_status>  (46) 
1

>  <s_m_source_file>  (46) 
/var/tmp/pbs.5076255.sched01/tmpt68d_85j/0g9mu2vg5.sdf

>  <i_m_source_file_index>  (46) 
17

>  <i_lp_mmshare_version>  (46) 
48012

>  <i_f3d_flags>  (46) 
0

>  <s_epik_input>  (46) 
W0NIMl09QyhbQ0gzXSlbQ0BdMShbT0hdKVtDQEBdKE8yKShbQ0gzXSlbQ0BAXTMoW09IXSlbQ0BASF0xT1tDQEBIXShbQ0gzXSlbQ0BIXShPW0NAXTQoW0NIM10pW0NAXTUoW0NIMl00KVNbQ0gzXSlbQ0BASF0zW0NAXTIoW0NAQF01NjcpW0NASF0oT1tDSDNdKVtDQEhdKFtPSF0pW0NAQEhdN09bQ0gyXTY=

>  <s_epik_cmdline>  (46) 
J2VwaWtfcHl0aG9uJywgJy1waHQnLCAnMi4wJywgJy1waCcsICc3LjAnLCAnLXRuJywgJzgnLCAnLW1hJywgJzIwMCcsICctaW1hZScsICc8aW5maWxlLm1hZT4nLCAnLW9tYWUnLCAnPG91dGZpbGUubWFlPic=

>  <r_lp_tautomer_probability>  (46) 
1

>  <r_epik_Ionization_Penalty>  (46) 
6.78883e-06

>  <r_epik_Ionization_Penalty_Charging>  (46) 
0

>  <r_epik_Ionization_Penalty_Neutral>  (46) 
6.78883e-06

>  <r_epik_State_Penalty>  (46) 
-0

>  <r_epik_Charging_Adjusted_Penalty>  (46) 
0

>  <i_epik_Tot_Q>  (46) 
0

>  <i_epik_Tot_abs_Q>  (46) 
0

>  <s_lp_Force_Field>  (46) 
OPLS3e

>  <r_lp_Energy>  (46) 
96.4769

>  <b_lp_Chiralities_Consistent>  (46) 
1

>  <s_lp_Variant>  (46) 
11:0-1

>  <s_i_glide_gridfile>  (46) 
pfpi4k_grid

>  <i_i_glide_lignum>  (46) 
17

>  <i_i_glide_rotatable_bonds>  (46) 
6

>  <r_i_docking_score>  (46) 
-2.63828

>  <r_i_glide_ligand_efficiency>  (46) 
-0.0799479

>  <r_i_glide_ligand_efficiency_sa>  (46) 
-0.256436

>  <r_i_glide_ligand_efficiency_ln>  (46) 
-0.58674

>  <r_i_glide_gscore>  (46) 
-2.63828

>  <r_i_glide_lipo>  (46) 
-0.145514

>  <r_i_glide_hbond>  (46) 
-0.285046

>  <r_i_glide_metal>  (46) 
-0

>  <r_i_glide_rewards>  (46) 
-0.118718

>  <r_i_glide_evdw>  (46) 
-19.3239

>  <r_i_glide_ecoul>  (46) 
-8.06633

>  <r_i_glide_erotb>  (46) 
0.0871421

>  <r_i_glide_esite>  (46) 
0

>  <r_i_glide_emodel>  (46) 
-31.4219

>  <r_i_glide_energy>  (46) 
-27.3902

>  <r_i_glide_einternal>  (46) 
1.04949

>  <r_i_glide_intrahb_reward>  (46) 
-0

>  <i_i_glide_confnum>  (46) 
3

>  <i_i_glide_posenum>  (46) 
34

>  <r_i_glide_eff_state_penalty>  (46) 
0

>  <ligand_id>  (46) 
11

>  <original_smiles>  (46) 
C=C(C)C1(O)C2OC(C)C3OC4(C)CC4(SC)C45COC4C(O)C(OC)C54OC1(C)C2(O)C34

>  <smiles>  (46) 
[H]OC1([H])C([H])(OC([H])([H])[H])C23OC4(C([H])([H])[H])C(O[H])(C(=C([H])[H])C([H])([H])[H])C5([H])OC([H])(C([H])([H])[H])C([H])(OC6(C([H])([H])[H])C([H])([H])C6(SC([H])([H])[H])C26C([H])([H])OC16[H])C3([H])C54O[H]

$$$$
11:0:1
     RDKit          3D

 67 73  0  0  1  0  0  0  0  0999 V2000
   -1.6373    1.0991    6.7532 C   0  0  0  0  0  0  0  0  0  0  0  0
   -2.1536    2.3206    7.0000 C   0  0  0  0  0  0  0  0  0  0  0  0
   -2.9498    3.0118    5.9005 C   0  0  0  0  0  0  0  0  0  0  0  0
   -2.0597    3.0662    8.3508 C   0  0  1  0  0  0  0  0  0  0  0  0
   -3.3559    2.9694    8.9145 O   0  0  0  0  0  0  0  0  0  0  0  0
   -0.9036    2.6709    9.3459 C   0  0  1  0  0  0  0  0  0  0  0  0
    0.0460    1.6096    9.0869 O   0  0  0  0  0  0  0  0  0  0  0  0
    1.4617    1.9385    9.1900 C   0  0  1  0  0  0  0  0  0  0  0  0
    2.2420    0.6204    9.1607 C   0  0  0  0  0  0  0  0  0  0  0  0
    1.8380    2.8780    8.0038 C   0  0  2  0  0  0  0  0  0  0  0  0
    3.0414    3.6075    8.0548 O   0  0  0  0  0  0  0  0  0  0  0  0
    3.6221    4.0609    6.8123 C   0  0  1  0  0  0  0  0  0  0  0  0
    5.0998    4.2676    7.0987 C   0  0  0  0  0  0  0  0  0  0  0  0
    3.2330    3.4511    5.4795 C   0  0  0  0  0  0  0  0  0  0  0  0
    2.8235    4.8909    5.7648 C   0  0  2  0  0  0  0  0  0  0  0  0
    3.9288    6.0708    4.8737 S   0  0  0  0  0  0  0  0  0  0  0  0
    3.5552    5.7970    3.1152 C   0  0  0  0  0  0  0  0  0  0  0  0
    1.2841    5.2412    5.7232 C   0  0  2  0  0  0  0  0  0  0  0  0
    0.4383    4.8366    4.5277 C   0  0  0  0  0  0  0  0  0  0  0  0
   -0.1883    6.1385    4.5212 O   0  0  0  0  0  0  0  0  0  0  0  0
    0.9517    6.6620    5.2437 C   0  0  1  0  0  0  0  0  0  0  0  0
    0.7190    7.5306    6.4723 C   0  0  1  0  0  0  0  0  0  0  0  0
   -0.5886    8.0653    6.4491 O   0  0  0  0  0  0  0  0  0  0  0  0
    0.9721    6.5784    7.6704 C   0  0  1  0  0  0  0  0  0  0  0  0
    0.3856    7.0651    8.8717 O   0  0  0  0  0  0  0  0  0  0  0  0
    1.0083    8.2132    9.4270 C   0  0  0  0  0  0  0  0  0  0  0  0
    0.5835    5.1782    7.1047 C   0  0  1  0  0  0  0  0  0  0  0  0
   -0.8906    5.0989    7.0937 O   0  0  0  0  0  0  0  0  0  0  0  0
   -1.4781    4.5497    8.3309 C   0  0  1  0  0  0  0  0  0  0  0  0
   -2.3420    5.6212    9.0120 C   0  0  0  0  0  0  0  0  0  0  0  0
   -0.2376    3.9771    8.9903 C   0  0  1  0  0  0  0  0  0  0  0  0
    0.3189    4.6560   10.0967 O   0  0  0  0  0  0  0  0  0  0  0  0
    0.7160    3.8784    7.8626 C   0  0  2  0  0  0  0  0  0  0  0  0
   -1.7603    0.6394    5.7816 H   0  0  0  0  0  0  0  0  0  0  0  0
   -1.1012    0.5286    7.4923 H   0  0  0  0  0  0  0  0  0  0  0  0
   -2.6829    4.0620    5.7763 H   0  0  0  0  0  0  0  0  0  0  0  0
   -4.0144    2.9525    6.1268 H   0  0  0  0  0  0  0  0  0  0  0  0
   -2.7921    2.5309    4.9319 H   0  0  0  0  0  0  0  0  0  0  0  0
   -3.2762    3.1653    9.8365 H   0  0  0  0  0  0  0  0  0  0  0  0
   -1.2475    2.6644   10.3830 H   0  0  0  0  0  0  0  0  0  0  0  0
    1.6514    2.4296   10.1464 H   0  0  0  0  0  0  0  0  0  0  0  0
    3.3163    0.7991    9.2245 H   0  0  0  0  0  0  0  0  0  0  0  0
    2.0441    0.0614    8.2442 H   0  0  0  0  0  0  0  0  0  0  0  0
    1.9539   -0.0140    9.9986 H   0  0  0  0  0  0  0  0  0  0  0  0
    1.8704    2.1895    7.1690 H   0  0  0  0  0  0  0  0  0  0  0  0
    5.6895    4.3463    6.1816 H   0  0  0  0  0  0  0  0  0  0  0  0
    5.4858    3.4162    7.6589 H   0  0  0  0  0  0  0  0  0  0  0  0
    5.2488    5.1690    7.6938 H   0  0  0  0  0  0  0  0  0  0  0  0
    4.0419    3.2864    4.7701 H   0  0  0  0  0  0  0  0  0  0  0  0
    2.3932    2.7786    5.3252 H   0  0  0  0  0  0  0  0  0  0  0  0
    4.2254    6.4074    2.5085 H   0  0  0  0  0  0  0  0  0  0  0  0
    2.5374    6.0976    2.8713 H   0  0  0  0  0  0  0  0  0  0  0  0
    3.6876    4.7517    2.8349 H   0  0  0  0  0  0  0  0  0  0  0  0
    0.9976    4.6377    3.6165 H   0  0  0  0  0  0  0  0  0  0  0  0
   -0.2568    4.0238    4.7467 H   0  0  0  0  0  0  0  0  0  0  0  0
    1.6080    7.1456    4.5296 H   0  0  0  0  0  0  0  0  0  0  0  0
    1.4260    8.3651    6.4998 H   0  0  0  0  0  0  0  0  0  0  0  0
   -0.6959    8.5708    7.2418 H   0  0  0  0  0  0  0  0  0  0  0  0
    2.0499    6.5354    7.8431 H   0  0  0  0  0  0  0  0  0  0  0  0
    0.4781    8.4863   10.3375 H   0  0  0  0  0  0  0  0  0  0  0  0
    0.9612    9.0670    8.7523 H   0  0  0  0  0  0  0  0  0  0  0  0
    2.0508    8.0306    9.6896 H   0  0  0  0  0  0  0  0  0  0  0  0
   -2.5980    5.3475   10.0361 H   0  0  0  0  0  0  0  0  0  0  0  0
   -3.2805    5.7582    8.4772 H   0  0  0  0  0  0  0  0  0  0  0  0
   -1.8750    6.5980    9.0567 H   0  0  0  0  0  0  0  0  0  0  0  0
   -0.3562    4.7172   10.7530 H   0  0  0  0  0  0  0  0  0  0  0  0
    0.2331    3.2508    7.1131 H   0  0  0  0  0  0  0  0  0  0  0  0
  1  2  2  0
  1 34  1  0
  1 35  1  0
  2  3  1  0
  2  4  1  0
  3 36  1  0
  3 37  1  0
  3 38  1  0
  4 29  1  0
  4  5  1  1
  4  6  1  0
  5 39  1  0
  6 31  1  0
  6  7  1  0
  6 40  1  1
  7  8  1  0
  8  9  1  0
  8 10  1  0
  8 41  1  1
  9 42  1  0
  9 43  1  0
  9 44  1  0
 10 33  1  0
 10 11  1  0
 10 45  1  6
 11 12  1  0
 12 15  1  0
 12 13  1  1
 12 14  1  0
 13 46  1  0
 13 47  1  0
 13 48  1  0
 14 15  1  0
 14 49  1  0
 14 50  1  0
 15 16  1  6
 15 18  1  0
 16 17  1  0
 17 51  1  0
 17 52  1  0
 17 53  1  0
 18 21  1  0
 18 27  1  0
 18 19  1  6
 19 20  1  0
 19 54  1  0
 19 55  1  0
 20 21  1  0
 21 22  1  0
 21 56  1  6
 22 23  1  0
 22 24  1  0
 22 57  1  1
 23 58  1  0
 24 25  1  0
 24 27  1  0
 24 59  1  1
 25 26  1  0
 26 60  1  0
 26 61  1  0
 26 62  1  0
 27 33  1  0
 27 28  1  6
 28 29  1  0
 29 30  1  1
 29 31  1  0
 30 63  1  0
 30 64  1  0
 30 65  1  0
 31 32  1  1
 31 33  1  0
 32 66  1  0
 33 67  1  6
M  END
>  <i_m_ct_stereo_status>  (47) 
1

>  <s_m_source_file>  (47) 
/var/tmp/pbs.5076255.sched01/tmpt68d_85j/0g9mu2vg5.sdf

>  <i_m_source_file_index>  (47) 
17

>  <i_lp_mmshare_version>  (47) 
48012

>  <i_f3d_flags>  (47) 
0

>  <s_epik_input>  (47) 
W0NIMl09QyhbQ0gzXSlbQ0BdMShbT0hdKVtDQEBdKE8yKShbQ0gzXSlbQ0BAXTMoW09IXSlbQ0BASF0xT1tDQEBIXShbQ0gzXSlbQ0BIXShPW0NAXTQoW0NIM10pW0NAXTUoW0NIMl00KVNbQ0gzXSlbQ0BASF0zW0NAXTIoW0NAQF01NjcpW0NASF0oT1tDSDNdKVtDQEhdKFtPSF0pW0NAQEhdN09bQ0gyXTY=

>  <s_epik_cmdline>  (47) 
J2VwaWtfcHl0aG9uJywgJy1waHQnLCAnMi4wJywgJy1waCcsICc3LjAnLCAnLXRuJywgJzgnLCAnLW1hJywgJzIwMCcsICctaW1hZScsICc8aW5maWxlLm1hZT4nLCAnLW9tYWUnLCAnPG91dGZpbGUubWFlPic=

>  <r_lp_tautomer_probability>  (47) 
1

>  <r_epik_Ionization_Penalty>  (47) 
6.78883e-06

>  <r_epik_Ionization_Penalty_Charging>  (47) 
0

>  <r_epik_Ionization_Penalty_Neutral>  (47) 
6.78883e-06

>  <r_epik_State_Penalty>  (47) 
-0

>  <r_epik_Charging_Adjusted_Penalty>  (47) 
0

>  <i_epik_Tot_Q>  (47) 
0

>  <i_epik_Tot_abs_Q>  (47) 
0

>  <s_lp_Force_Field>  (47) 
OPLS3e

>  <r_lp_Energy>  (47) 
96.4769

>  <b_lp_Chiralities_Consistent>  (47) 
1

>  <s_lp_Variant>  (47) 
11:0-1

>  <s_i_glide_gridfile>  (47) 
pfpi4k_grid

>  <i_i_glide_lignum>  (47) 
17

>  <i_i_glide_rotatable_bonds>  (47) 
6

>  <r_i_docking_score>  (47) 
-2.15569

>  <r_i_glide_ligand_efficiency>  (47) 
-0.0653238

>  <r_i_glide_ligand_efficiency_sa>  (47) 
-0.209528

>  <r_i_glide_ligand_efficiency_ln>  (47) 
-0.479414

>  <r_i_glide_gscore>  (47) 
-2.15569

>  <r_i_glide_lipo>  (47) 
-0.125642

>  <r_i_glide_hbond>  (47) 
-0.00691357

>  <r_i_glide_metal>  (47) 
-0

>  <r_i_glide_rewards>  (47) 
-0.118718

>  <r_i_glide_evdw>  (47) 
-18.8498

>  <r_i_glide_ecoul>  (47) 
-6.99376

>  <r_i_glide_erotb>  (47) 
0.0871421

>  <r_i_glide_esite>  (47) 
0

>  <r_i_glide_emodel>  (47) 
-28.8648

>  <r_i_glide_energy>  (47) 
-25.8436

>  <r_i_glide_einternal>  (47) 
1.44404

>  <r_i_glide_intrahb_reward>  (47) 
-0

>  <i_i_glide_confnum>  (47) 
3

>  <i_i_glide_posenum>  (47) 
33

>  <r_i_glide_eff_state_penalty>  (47) 
0

>  <ligand_id>  (47) 
11

>  <original_smiles>  (47) 
C=C(C)C1(O)C2OC(C)C3OC4(C)CC4(SC)C45COC4C(O)C(OC)C54OC1(C)C2(O)C34

>  <smiles>  (47) 
[H]OC1([H])C([H])(OC([H])([H])[H])C23OC4(C([H])([H])[H])C(O[H])(C(=C([H])[H])C([H])([H])[H])C5([H])OC([H])(C([H])([H])[H])C([H])(OC6(C([H])([H])[H])C([H])([H])C6(SC([H])([H])[H])C26C([H])([H])OC16[H])C3([H])C54O[H]

$$$$
11:0:2
     RDKit          3D

 67 73  0  0  1  0  0  0  0  0999 V2000
   -1.1557    1.1431    6.7739 C   0  0  0  0  0  0  0  0  0  0  0  0
   -1.6637    2.3788    6.9746 C   0  0  0  0  0  0  0  0  0  0  0  0
   -2.5405    2.9880    5.8904 C   0  0  0  0  0  0  0  0  0  0  0  0
   -1.5068    3.1870    8.2814 C   0  0  1  0  0  0  0  0  0  0  0  0
   -2.7392    3.0339    8.9597 O   0  0  0  0  0  0  0  0  0  0  0  0
   -0.2338    2.9006    9.1633 C   0  0  1  0  0  0  0  0  0  0  0  0
    0.7643    1.8963    8.8436 O   0  0  0  0  0  0  0  0  0  0  0  0
    2.1572    2.3258    8.8035 C   0  0  1  0  0  0  0  0  0  0  0  0
    3.0132    1.0565    8.7622 C   0  0  0  0  0  0  0  0  0  0  0  0
    2.3620    3.2335    7.5541 C   0  0  2  0  0  0  0  0  0  0  0  0
    3.5270    4.0135    7.4647 O   0  0  0  0  0  0  0  0  0  0  0  0
    3.9432    4.4535    6.1595 C   0  0  1  0  0  0  0  0  0  0  0  0
    5.4214    4.7481    6.2953 C   0  0  0  0  0  0  0  0  0  0  0  0
    3.4381    3.7965    4.8964 C   0  0  0  0  0  0  0  0  0  0  0  0
    2.9833    5.2200    5.2102 C   0  0  2  0  0  0  0  0  0  0  0  0
    3.8968    6.3693    4.1049 S   0  0  0  0  0  0  0  0  0  0  0  0
    4.2442    7.7964    5.1900 C   0  0  0  0  0  0  0  0  0  0  0  0
    1.4330    5.4382    5.2603 C   0  0  2  0  0  0  0  0  0  0  0  0
    0.5235    4.9184    4.1534 C   0  0  0  0  0  0  0  0  0  0  0  0
   -0.2062    6.1605    4.1637 O   0  0  0  0  0  0  0  0  0  0  0  0
    0.9419    6.7979    4.7449 C   0  0  1  0  0  0  0  0  0  0  0  0
    0.7190    7.7099    5.9504 C   0  0  1  0  0  0  0  0  0  0  0  0
   -0.6191    8.1234    6.0793 O   0  0  0  0  0  0  0  0  0  0  0  0
    1.1679    6.8496    7.1653 C   0  0  1  0  0  0  0  0  0  0  0  0
    0.6861    7.3529    8.4069 O   0  0  0  0  0  0  0  0  0  0  0  0
    1.2921    8.5643    8.8299 C   0  0  0  0  0  0  0  0  0  0  0  0
    0.8556    5.3969    6.6974 C   0  0  1  0  0  0  0  0  0  0  0  0
   -0.5949    5.2113    6.8364 O   0  0  0  0  0  0  0  0  0  0  0  0
   -1.0252    4.6946    8.1454 C   0  0  1  0  0  0  0  0  0  0  0  0
   -1.8904    5.7420    8.8686 C   0  0  0  0  0  0  0  0  0  0  0  0
    0.3059    4.2254    8.6898 C   0  0  1  0  0  0  0  0  0  0  0  0
    0.9141    4.9804    9.7057 O   0  0  0  0  0  0  0  0  0  0  0  0
    1.1667    4.1536    7.4909 C   0  0  2  0  0  0  0  0  0  0  0  0
   -1.3294    0.6188    5.8412 H   0  0  0  0  0  0  0  0  0  0  0  0
   -0.5995    0.6052    7.5238 H   0  0  0  0  0  0  0  0  0  0  0  0
   -2.2979    4.0246    5.6647 H   0  0  0  0  0  0  0  0  0  0  0  0
   -3.5896    2.9493    6.1913 H   0  0  0  0  0  0  0  0  0  0  0  0
   -2.4422    2.4357    4.9507 H   0  0  0  0  0  0  0  0  0  0  0  0
   -2.5798    3.2376    9.8722 H   0  0  0  0  0  0  0  0  0  0  0  0
   -0.4730    2.9376   10.2313 H   0  0  0  0  0  0  0  0  0  0  0  0
    2.3915    2.8702    9.7209 H   0  0  0  0  0  0  0  0  0  0  0  0
    4.0733    1.3036    8.7157 H   0  0  0  0  0  0  0  0  0  0  0  0
    2.7681    0.4398    7.8956 H   0  0  0  0  0  0  0  0  0  0  0  0
    2.8463    0.4481    9.6525 H   0  0  0  0  0  0  0  0  0  0  0  0
    2.3438    2.5011    6.7574 H   0  0  0  0  0  0  0  0  0  0  0  0
    5.9034    4.8468    5.3178 H   0  0  0  0  0  0  0  0  0  0  0  0
    5.9126    3.9366    6.8342 H   0  0  0  0  0  0  0  0  0  0  0  0
    5.5730    5.6645    6.8656 H   0  0  0  0  0  0  0  0  0  0  0  0
    4.1757    3.6560    4.1080 H   0  0  0  0  0  0  0  0  0  0  0  0
    2.6427    3.0576    4.8652 H   0  0  0  0  0  0  0  0  0  0  0  0
    4.6427    8.6427    4.6274 H   0  0  0  0  0  0  0  0  0  0  0  0
    4.9321    7.5644    6.0004 H   0  0  0  0  0  0  0  0  0  0  0  0
    3.3472    8.1591    5.6664 H   0  0  0  0  0  0  0  0  0  0  0  0
    1.0283    4.7376    3.2039 H   0  0  0  0  0  0  0  0  0  0  0  0
   -0.0802    4.0688    4.4593 H   0  0  0  0  0  0  0  0  0  0  0  0
    1.5063    7.2587    3.9369 H   0  0  0  0  0  0  0  0  0  0  0  0
    1.2573    8.6524    5.8768 H   0  0  0  0  0  0  0  0  0  0  0  0
   -0.6370    8.7071    6.8196 H   0  0  0  0  0  0  0  0  0  0  0  0
    2.2540    6.8621    7.2469 H   0  0  0  0  0  0  0  0  0  0  0  0
    0.8398    8.8500    9.7763 H   0  0  0  0  0  0  0  0  0  0  0  0
    1.1188    9.3771    8.1256 H   0  0  0  0  0  0  0  0  0  0  0  0
    2.3667    8.4609    8.9875 H   0  0  0  0  0  0  0  0  0  0  0  0
   -2.0214    5.5029    9.9238 H   0  0  0  0  0  0  0  0  0  0  0  0
   -2.8948    5.7953    8.4439 H   0  0  0  0  0  0  0  0  0  0  0  0
   -1.4916    6.7495    8.8175 H   0  0  0  0  0  0  0  0  0  0  0  0
    0.2799    5.0806   10.3959 H   0  0  0  0  0  0  0  0  0  0  0  0
    0.6551    3.4656    6.8202 H   0  0  0  0  0  0  0  0  0  0  0  0
  1  2  2  0
  1 34  1  0
  1 35  1  0
  2  3  1  0
  2  4  1  0
  3 36  1  0
  3 37  1  0
  3 38  1  0
  4 29  1  0
  4  5  1  1
  4  6  1  0
  5 39  1  0
  6 31  1  0
  6  7  1  0
  6 40  1  1
  7  8  1  0
  8  9  1  0
  8 10  1  0
  8 41  1  1
  9 42  1  0
  9 43  1  0
  9 44  1  0
 10 33  1  0
 10 11  1  0
 10 45  1  6
 11 12  1  0
 12 15  1  0
 12 13  1  1
 12 14  1  0
 13 46  1  0
 13 47  1  0
 13 48  1  0
 14 15  1  0
 14 49  1  0
 14 50  1  0
 15 16  1  6
 15 18  1  0
 16 17  1  0
 17 51  1  0
 17 52  1  0
 17 53  1  0
 18 21  1  0
 18 27  1  0
 18 19  1  6
 19 20  1  0
 19 54  1  0
 19 55  1  0
 20 21  1  0
 21 22  1  0
 21 56  1  6
 22 23  1  0
 22 24  1  0
 22 57  1  6
 23 58  1  0
 24 25  1  0
 24 27  1  0
 24 59  1  1
 25 26  1  0
 26 60  1  0
 26 61  1  0
 26 62  1  0
 27 33  1  0
 27 28  1  6
 28 29  1  0
 29 30  1  1
 29 31  1  0
 30 63  1  0
 30 64  1  0
 30 65  1  0
 31 32  1  1
 31 33  1  0
 32 66  1  0
 33 67  1  6
M  END
>  <i_m_ct_stereo_status>  (48) 
1

>  <s_m_source_file>  (48) 
/var/tmp/pbs.5076255.sched01/tmpt68d_85j/0g9mu2vg5.sdf

>  <i_m_source_file_index>  (48) 
17

>  <i_lp_mmshare_version>  (48) 
48012

>  <i_f3d_flags>  (48) 
0

>  <s_epik_input>  (48) 
W0NIMl09QyhbQ0gzXSlbQ0BdMShbT0hdKVtDQEBdKE8yKShbQ0gzXSlbQ0BAXTMoW09IXSlbQ0BASF0xT1tDQEBIXShbQ0gzXSlbQ0BIXShPW0NAXTQoW0NIM10pW0NAXTUoW0NIMl00KVNbQ0gzXSlbQ0BASF0zW0NAXTIoW0NAQF01NjcpW0NASF0oT1tDSDNdKVtDQEhdKFtPSF0pW0NAQEhdN09bQ0gyXTY=

>  <s_epik_cmdline>  (48) 
J2VwaWtfcHl0aG9uJywgJy1waHQnLCAnMi4wJywgJy1waCcsICc3LjAnLCAnLXRuJywgJzgnLCAnLW1hJywgJzIwMCcsICctaW1hZScsICc8aW5maWxlLm1hZT4nLCAnLW9tYWUnLCAnPG91dGZpbGUubWFlPic=

>  <r_lp_tautomer_probability>  (48) 
1

>  <r_epik_Ionization_Penalty>  (48) 
6.78883e-06

>  <r_epik_Ionization_Penalty_Charging>  (48) 
0

>  <r_epik_Ionization_Penalty_Neutral>  (48) 
6.78883e-06

>  <r_epik_State_Penalty>  (48) 
-0

>  <r_epik_Charging_Adjusted_Penalty>  (48) 
0

>  <i_epik_Tot_Q>  (48) 
0

>  <i_epik_Tot_abs_Q>  (48) 
0

>  <s_lp_Force_Field>  (48) 
OPLS3e

>  <r_lp_Energy>  (48) 
96.4769

>  <b_lp_Chiralities_Consistent>  (48) 
1

>  <s_lp_Variant>  (48) 
11:0-1

>  <s_i_glide_gridfile>  (48) 
pfpi4k_grid

>  <i_i_glide_lignum>  (48) 
17

>  <i_i_glide_rotatable_bonds>  (48) 
6

>  <r_i_docking_score>  (48) 
-2.1306

>  <r_i_glide_ligand_efficiency>  (48) 
-0.0645638

>  <r_i_glide_ligand_efficiency_sa>  (48) 
-0.20709

>  <r_i_glide_ligand_efficiency_ln>  (48) 
-0.473835

>  <r_i_glide_gscore>  (48) 
-2.1306

>  <r_i_glide_lipo>  (48) 
-0.12684

>  <r_i_glide_hbond>  (48) 
-0.0140885

>  <r_i_glide_metal>  (48) 
-0

>  <r_i_glide_rewards>  (48) 
-0.118718

>  <r_i_glide_evdw>  (48) 
-17.1709

>  <r_i_glide_ecoul>  (48) 
-7.33035

>  <r_i_glide_erotb>  (48) 
0.0871421

>  <r_i_glide_esite>  (48) 
0

>  <r_i_glide_emodel>  (48) 
-27.1279

>  <r_i_glide_energy>  (48) 
-24.5013

>  <r_i_glide_einternal>  (48) 
1.38623

>  <r_i_glide_intrahb_reward>  (48) 
-0

>  <i_i_glide_confnum>  (48) 
3

>  <i_i_glide_posenum>  (48) 
1

>  <r_i_glide_eff_state_penalty>  (48) 
0

>  <ligand_id>  (48) 
11

>  <original_smiles>  (48) 
C=C(C)C1(O)C2OC(C)C3OC4(C)CC4(SC)C45COC4C(O)C(OC)C54OC1(C)C2(O)C34

>  <smiles>  (48) 
[H]OC1([H])C([H])(OC([H])([H])[H])C23OC4(C([H])([H])[H])C(O[H])(C(=C([H])[H])C([H])([H])[H])C5([H])OC([H])(C([H])([H])[H])C([H])(OC6(C([H])([H])[H])C([H])([H])C6(SC([H])([H])[H])C26C([H])([H])OC16[H])C3([H])C54O[H]

$$$$
12:1:0
     RDKit          3D

 81 88  0  0  1  0  0  0  0  0999 V2000
    3.1048   -1.1243    7.9258 C   0  0  0  0  0  0  0  0  0  0  0  0
    1.7802   -0.8716    7.1522 C   0  0  0  0  0  0  0  0  0  0  0  0
    0.8734   -1.8586    7.9780 C   0  0  0  0  0  0  0  0  0  0  0  0
    1.3442    0.6283    7.3852 C   0  0  2  0  0  0  0  0  0  0  0  0
   -0.1418    0.7657    7.8208 C   0  0  0  0  0  0  0  0  0  0  0  0
   -1.0349    0.2883    6.8089 O   0  0  0  0  0  0  0  0  0  0  0  0
   -0.5276    0.3135    5.4678 C   0  0  2  0  0  0  0  0  0  0  0  0
    0.1633   -1.0569    5.1767 C   0  0  0  0  0  0  0  0  0  0  0  0
    1.6677   -1.3080    5.6038 C   0  0  1  0  0  0  0  0  0  0  0  0
    2.8951   -1.3457    4.4783 C   0  0  2  0  0  0  0  0  0  0  0  0
    4.0153   -1.7804    5.2810 O   0  0  0  0  0  0  0  0  0  0  0  0
    5.0492   -0.9068    5.6586 C   0  0  0  0  0  0  0  0  0  0  0  0
    4.5976    0.3691    5.9092 O   0  0  0  0  0  0  0  0  0  0  0  0
    3.8620    0.9972    4.8784 C   0  0  2  0  0  0  0  0  0  0  0  0
    2.9321    1.9761    5.6389 C   0  0  0  0  0  0  0  0  0  0  0  0
    1.5113    1.6444    6.2082 C   0  0  1  0  0  0  0  0  0  0  0  0
    0.2814    1.6209    5.2486 C   0  0  1  0  0  0  0  0  0  0  0  0
    0.6566    1.9846    3.8249 C   0  0  0  0  0  0  0  0  0  0  0  0
    0.8535    3.4668    3.5367 C   0  0  0  0  0  0  0  0  0  0  0  0
   -0.3965    4.0645    3.2788 O   0  0  0  0  0  0  0  0  0  0  0  0
    1.0433    1.0113    3.0004 C   0  0  0  0  0  0  0  0  0  0  0  0
    2.4776    0.7697    2.6589 C   0  0  0  0  0  0  0  0  0  0  0  0
    3.3798    0.0206    3.7372 C   0  0  2  0  0  0  0  0  0  0  0  0
    4.6548   -0.2494    2.8184 C   0  0  0  0  0  0  0  0  0  0  0  0
    5.0606   -1.6996    2.5371 C   0  0  0  0  0  0  0  0  0  0  0  0
    3.8698   -2.6129    2.2825 C   0  0  1  0  0  0  0  0  0  0  0  0
    4.3711   -4.0139    1.7462 C   0  0  1  0  0  0  0  0  0  0  0  0
    5.7320   -4.5278    2.2945 C   0  0  0  0  0  0  0  0  0  0  0  0
    5.7965   -6.0400    2.0691 C   0  0  0  0  0  0  0  0  0  0  0  0
    4.3719   -6.4103    1.7338 C   0  0  0  0  0  0  0  0  0  0  0  0
    4.0356   -7.5281    1.3450 O   0  0  0  0  0  0  0  0  0  0  0  0
    3.4213   -5.2239    1.9068 C   0  0  2  0  0  0  0  0  0  0  0  0
    2.4411   -5.2779    0.8746 O   0  0  0  0  0  0  0  0  0  0  0  0
    2.7259   -5.2554    3.3001 C   0  0  0  0  0  0  0  0  0  0  0  0
    2.9867   -4.0080    4.1874 C   0  0  0  0  0  0  0  0  0  0  0  0
    2.8115   -2.6250    3.4594 C   0  0  1  0  0  0  0  0  0  0  0  0
    1.4389   -2.6847    2.7586 C   0  0  0  0  0  0  0  0  0  0  0  0
    2.9465   -1.2123    9.0010 H   0  0  0  0  0  0  0  0  0  0  0  0
    3.8038   -0.2988    7.8853 H   0  0  0  0  0  0  0  0  0  0  0  0
    3.5858   -2.0581    7.6369 H   0  0  0  0  0  0  0  0  0  0  0  0
   -0.1750   -1.8762    7.6984 H   0  0  0  0  0  0  0  0  0  0  0  0
    0.8711   -1.6262    9.0432 H   0  0  0  0  0  0  0  0  0  0  0  0
    1.2293   -2.8874    7.8931 H   0  0  0  0  0  0  0  0  0  0  0  0
    1.9232    1.0182    8.2219 H   0  0  0  0  0  0  0  0  0  0  0  0
   -0.3579    0.2677    8.7665 H   0  0  0  0  0  0  0  0  0  0  0  0
   -0.3770    1.8141    8.0145 H   0  0  0  0  0  0  0  0  0  0  0  0
   -1.4136    0.3652    4.8351 H   0  0  0  0  0  0  0  0  0  0  0  0
   -0.4557   -1.7991    5.6725 H   0  0  0  0  0  0  0  0  0  0  0  0
   -0.0836   -1.3633    4.1758 H   0  0  0  0  0  0  0  0  0  0  0  0
    1.6118   -2.3740    5.7534 H   0  0  0  0  0  0  0  0  0  0  0  0
    5.4930   -1.3015    6.5719 H   0  0  0  0  0  0  0  0  0  0  0  0
    5.8816   -0.8593    4.9696 H   0  0  0  0  0  0  0  0  0  0  0  0
    4.5850    1.6737    4.4212 H   0  0  0  0  0  0  0  0  0  0  0  0
    3.5093    2.3409    6.4890 H   0  0  0  0  0  0  0  0  0  0  0  0
    2.8837    2.8658    5.0249 H   0  0  0  0  0  0  0  0  0  0  0  0
    1.3307    2.5915    6.7239 H   0  0  0  0  0  0  0  0  0  0  0  0
   -0.3981    2.4242    5.5438 H   0  0  0  0  0  0  0  0  0  0  0  0
    1.3114    4.0129    4.3614 H   0  0  0  0  0  0  0  0  0  0  0  0
    1.4710    3.6103    2.6498 H   0  0  0  0  0  0  0  0  0  0  0  0
   -0.4357    4.1534    2.3186 H   0  0  0  0  0  0  0  0  0  0  0  0
    0.6497    0.0554    3.1397 H   0  0  0  0  0  0  0  0  0  0  0  0
    2.4249    0.1831    1.7392 H   0  0  0  0  0  0  0  0  0  0  0  0
    2.9338    1.7219    2.3817 H   0  0  0  0  0  0  0  0  0  0  0  0
    4.5550    0.2076    1.8358 H   0  0  0  0  0  0  0  0  0  0  0  0
    5.5433    0.2615    3.1874 H   0  0  0  0  0  0  0  0  0  0  0  0
    5.7262   -1.7120    1.6696 H   0  0  0  0  0  0  0  0  0  0  0  0
    5.6547   -2.1096    3.3439 H   0  0  0  0  0  0  0  0  0  0  0  0
    3.3752   -2.1573    1.4244 H   0  0  0  0  0  0  0  0  0  0  0  0
    4.5281   -3.8953    0.6719 H   0  0  0  0  0  0  0  0  0  0  0  0
    6.5686   -4.0271    1.8054 H   0  0  0  0  0  0  0  0  0  0  0  0
    5.8204   -4.3418    3.3625 H   0  0  0  0  0  0  0  0  0  0  0  0
    6.4438   -6.3007    1.2342 H   0  0  0  0  0  0  0  0  0  0  0  0
    6.1494   -6.5714    2.9530 H   0  0  0  0  0  0  0  0  0  0  0  0
    2.8688   -5.2733    0.0311 H   0  0  0  0  0  0  0  0  0  0  0  0
    1.6472   -5.3790    3.1717 H   0  0  0  0  0  0  0  0  0  0  0  0
    3.0310   -6.1421    3.8677 H   0  0  0  0  0  0  0  0  0  0  0  0
    2.3333   -4.1180    5.0503 H   0  0  0  0  0  0  0  0  0  0  0  0
    3.9959   -4.0870    4.5886 H   0  0  0  0  0  0  0  0  0  0  0  0
    1.4854   -3.3255    1.8932 H   0  0  0  0  0  0  0  0  0  0  0  0
    1.1218   -1.7369    2.3386 H   0  0  0  0  0  0  0  0  0  0  0  0
    0.6639   -3.1207    3.3899 H   0  0  0  0  0  0  0  0  0  0  0  0
  1  2  1  0
  1 38  1  0
  1 39  1  0
  1 40  1  0
  2  9  1  0
  2  3  1  0
  2  4  1  0
  3 41  1  0
  3 42  1  0
  3 43  1  0
  4 16  1  0
  4  5  1  0
  4 44  1  1
  5  6  1  0
  5 45  1  0
  5 46  1  0
  6  7  1  0
  7 17  1  0
  7  8  1  0
  7 47  1  6
  8  9  1  0
  8 48  1  0
  8 49  1  0
  9 10  1  0
  9 50  1  1
 10 23  1  0
 10 36  1  0
 10 11  1  1
 11 12  1  0
 12 13  1  0
 12 51  1  0
 12 52  1  0
 13 14  1  0
 14 23  1  0
 14 15  1  0
 14 53  1  6
 15 16  1  0
 15 54  1  0
 15 55  1  0
 16 17  1  0
 16 56  1  1
 17 18  1  0
 17 57  1  1
 18 19  1  0
 18 21  2  3
 19 20  1  0
 19 58  1  0
 19 59  1  0
 20 60  1  0
 21 22  1  0
 21 61  1  0
 23 22  1  6
 22 62  1  0
 22 63  1  0
 23 24  1  0
 24 25  1  0
 24 64  1  0
 24 65  1  0
 25 26  1  0
 25 66  1  0
 25 67  1  0
 26 36  1  0
 26 27  1  0
 26 68  1  6
 27 32  1  0
 27 28  1  0
 27 69  1  6
 28 29  1  0
 28 70  1  0
 28 71  1  0
 29 30  1  0
 29 72  1  0
 29 73  1  0
 30 31  2  0
 30 32  1  0
 32 33  1  6
 32 34  1  0
 33 74  1  0
 34 35  1  0
 34 75  1  0
 34 76  1  0
 35 36  1  0
 35 77  1  0
 35 78  1  0
 36 37  1  6
 37 79  1  0
 37 80  1  0
 37 81  1  0
M  END
>  <i_m_ct_stereo_status>  (49) 
1

>  <s_m_source_file>  (49) 
/var/tmp/pbs.5076255.sched01/tmpt68d_85j/0g9mu2vg5.sdf

>  <i_m_source_file_index>  (49) 
19

>  <i_lp_mmshare_version>  (49) 
48012

>  <i_f3d_flags>  (49) 
0

>  <s_epik_input>  (49) 
W09IXVtDSDJdQyg9W0NIXVxbQ0gyXTEpXFtDQEhdMltDQEhdKE9bQ0gyXTMpW0NIMl1bQ0BASF00QyhbQ0gzXSkoW0NIM10pW0NASF0zW0NIXTJbQ0gyXVtDSF0oT1tDSDJdTzUpW0NAXTEoW0NAXTQ1NilbQ0gyXVtDSDJdW0NASF03W0NAQEhdOFtDQEBdKFtPSF0pKEMoPU8pW0NIMl1bQ0gyXTgpW0NIMl1bQ0gyXVtDQEBdNjdbQ0gzXQ==

>  <s_epik_cmdline>  (49) 
J2VwaWtfcHl0aG9uJywgJy1waHQnLCAnMi4wJywgJy1waCcsICc3LjAnLCAnLXRuJywgJzgnLCAnLW1hJywgJzIwMCcsICctaW1hZScsICc8aW5maWxlLm1hZT4nLCAnLW9tYWUnLCAnPG91dGZpbGUubWFlPic=

>  <r_lp_tautomer_probability>  (49) 
1

>  <r_epik_Ionization_Penalty>  (49) 
3.05485e-07

>  <r_epik_Ionization_Penalty_Charging>  (49) 
0

>  <r_epik_Ionization_Penalty_Neutral>  (49) 
3.05485e-07

>  <r_epik_State_Penalty>  (49) 
-0

>  <r_epik_Charging_Adjusted_Penalty>  (49) 
0

>  <i_epik_Tot_Q>  (49) 
0

>  <i_epik_Tot_abs_Q>  (49) 
0

>  <s_epik_Chemistry_Notes>  (49) 
This compound contains an acetal/aminal-like group ( X-CH(R)-Y where X, Y are N, S, or O) that may be acid/base labile, releasing an aldehyde.

>  <s_lp_Force_Field>  (49) 
OPLS3e

>  <r_lp_Energy>  (49) 
224.392

>  <b_lp_Chiralities_Consistent>  (49) 
1

>  <s_lp_Variant>  (49) 
12:0-2

>  <s_i_glide_gridfile>  (49) 
pfpi4k_grid

>  <i_i_glide_lignum>  (49) 
19

>  <i_i_glide_rotatable_bonds>  (49) 
3

>  <r_i_docking_score>  (49) 
-2.92701

>  <r_i_glide_ligand_efficiency>  (49) 
-0.0791085

>  <r_i_glide_ligand_efficiency_sa>  (49) 
-0.263607

>  <r_i_glide_ligand_efficiency_ln>  (49) 
-0.6348

>  <r_i_glide_gscore>  (49) 
-2.92701

>  <r_i_glide_lipo>  (49) 
-0.258332

>  <r_i_glide_hbond>  (49) 
-0.288868

>  <r_i_glide_metal>  (49) 
-0

>  <r_i_glide_rewards>  (49) 
-0.0931308

>  <r_i_glide_evdw>  (49) 
-18.7325

>  <r_i_glide_ecoul>  (49) 
-9.52038

>  <r_i_glide_erotb>  (49) 
0.0779992

>  <r_i_glide_esite>  (49) 
0

>  <r_i_glide_emodel>  (49) 
-32.5026

>  <r_i_glide_energy>  (49) 
-28.2529

>  <r_i_glide_einternal>  (49) 
2.85924

>  <r_i_glide_intrahb_reward>  (49) 
-0

>  <i_i_glide_confnum>  (49) 
2

>  <i_i_glide_posenum>  (49) 
3

>  <r_i_glide_eff_state_penalty>  (49) 
0

>  <ligand_id>  (49) 
12

>  <original_smiles>  (49) 
CC1(C)C2COC3CC1C14OCOC5CC2C3C(CO)=CCC51CCC1C2CCC(=O)C2(O)CCC14C

>  <smiles>  (49) 
[H]OC([H])([H])C1=C([H])C([H])([H])C23C([H])([H])C([H])([H])C4([H])C5([H])C([H])([H])C([H])([H])C(=O)C5(O[H])C([H])([H])C([H])([H])C4(C([H])([H])[H])C24OC([H])([H])OC3([H])C([H])([H])C2([H])C1([H])C1([H])OC([H])([H])C2([H])C(C([H])([H])[H])(C([H])([H])[H])C4([H])C1([H])[H]

$$$$
12:1:1
     RDKit          3D

 81 88  0  0  1  0  0  0  0  0999 V2000
    6.4381   -8.9835    4.6942 C   0  0  0  0  0  0  0  0  0  0  0  0
    5.1277   -9.6168    4.1438 C   0  0  0  0  0  0  0  0  0  0  0  0
    5.7909  -10.5178    3.0343 C   0  0  0  0  0  0  0  0  0  0  0  0
    4.4943  -10.5078    5.2847 C   0  0  2  0  0  0  0  0  0  0  0  0
    4.1054  -11.9330    4.8043 C   0  0  0  0  0  0  0  0  0  0  0  0
    3.1077  -11.8774    3.7834 O   0  0  0  0  0  0  0  0  0  0  0  0
    2.2618  -10.7229    3.7835 C   0  0  2  0  0  0  0  0  0  0  0  0
    2.9206   -9.6560    2.8489 C   0  0  0  0  0  0  0  0  0  0  0  0
    4.0346   -8.6838    3.4066 C   0  0  1  0  0  0  0  0  0  0  0  0
    3.7126   -7.0814    3.7193 C   0  0  2  0  0  0  0  0  0  0  0  0
    5.0321   -6.5618    4.0181 O   0  0  0  0  0  0  0  0  0  0  0  0
    5.4365   -6.2222    5.3237 C   0  0  0  0  0  0  0  0  0  0  0  0
    4.9076   -7.0568    6.2740 O   0  0  0  0  0  0  0  0  0  0  0  0
    3.5043   -7.2137    6.2639 C   0  0  2  0  0  0  0  0  0  0  0  0
    3.3069   -8.6322    6.8334 C   0  0  0  0  0  0  0  0  0  0  0  0
    3.2220   -9.9668    6.0139 C   0  0  1  0  0  0  0  0  0  0  0  0
    1.9116  -10.3426    5.2561 C   0  0  1  0  0  0  0  0  0  0  0  0
    0.8285   -9.3117    5.4963 C   0  0  0  0  0  0  0  0  0  0  0  0
    0.0002   -9.3400    6.7925 C   0  0  0  0  0  0  0  0  0  0  0  0
    0.6593   -9.8244    7.9333 O   0  0  0  0  0  0  0  0  0  0  0  0
    0.7330   -8.2974    4.6283 C   0  0  0  0  0  0  0  0  0  0  0  0
    1.2088   -6.9351    4.9969 C   0  0  0  0  0  0  0  0  0  0  0  0
    2.7776   -6.6589    4.9783 C   0  0  2  0  0  0  0  0  0  0  0  0
    2.7244   -5.0791    5.1611 C   0  0  0  0  0  0  0  0  0  0  0  0
    3.2893   -4.2014    4.0418 C   0  0  0  0  0  0  0  0  0  0  0  0
    2.9401   -4.7047    2.6432 C   0  0  1  0  0  0  0  0  0  0  0  0
    3.3284   -3.6195    1.5627 C   0  0  1  0  0  0  0  0  0  0  0  0
    4.5861   -2.7567    1.8686 C   0  0  0  0  0  0  0  0  0  0  0  0
    5.0760   -2.1497    0.5477 C   0  0  0  0  0  0  0  0  0  0  0  0
    4.3420   -2.9519   -0.5050 C   0  0  0  0  0  0  0  0  0  0  0  0
    4.3914   -2.6978   -1.7073 O   0  0  0  0  0  0  0  0  0  0  0  0
    3.5520   -4.1083    0.1116 C   0  0  2  0  0  0  0  0  0  0  0  0
    2.3403   -4.2557   -0.6064 O   0  0  0  0  0  0  0  0  0  0  0  0
    4.3565   -5.4352    0.0478 C   0  0  0  0  0  0  0  0  0  0  0  0
    4.6390   -6.0985    1.4128 C   0  0  0  0  0  0  0  0  0  0  0  0
    3.3953   -6.1991    2.3710 C   0  0  1  0  0  0  0  0  0  0  0  0
    2.2474   -6.8208    1.5382 C   0  0  0  0  0  0  0  0  0  0  0  0
    7.2527   -9.7058    4.7583 H   0  0  0  0  0  0  0  0  0  0  0  0
    6.3691   -8.6573    5.7238 H   0  0  0  0  0  0  0  0  0  0  0  0
    6.8160   -8.1893    4.0545 H   0  0  0  0  0  0  0  0  0  0  0  0
    5.1089  -11.1582    2.4805 H   0  0  0  0  0  0  0  0  0  0  0  0
    6.5321  -11.2058    3.4438 H   0  0  0  0  0  0  0  0  0  0  0  0
    6.3119   -9.9133    2.2905 H   0  0  0  0  0  0  0  0  0  0  0  0
    5.2486  -10.6618    6.0540 H   0  0  0  0  0  0  0  0  0  0  0  0
    4.9592  -12.5120    4.4533 H   0  0  0  0  0  0  0  0  0  0  0  0
    3.7115  -12.5172    5.6374 H   0  0  0  0  0  0  0  0  0  0  0  0
    1.3533  -11.0610    3.2830 H   0  0  0  0  0  0  0  0  0  0  0  0
    3.3485  -10.2201    2.0203 H   0  0  0  0  0  0  0  0  0  0  0  0
    2.1524   -9.1841    2.2666 H   0  0  0  0  0  0  0  0  0  0  0  0
    4.5795   -8.5205    2.4906 H   0  0  0  0  0  0  0  0  0  0  0  0
    6.5189   -6.3176    5.3743 H   0  0  0  0  0  0  0  0  0  0  0  0
    5.2462   -5.1987    5.6245 H   0  0  0  0  0  0  0  0  0  0  0  0
    3.1751   -6.5837    7.0897 H   0  0  0  0  0  0  0  0  0  0  0  0
    4.0960   -8.7942    7.5718 H   0  0  0  0  0  0  0  0  0  0  0  0
    2.4401   -8.4949    7.4634 H   0  0  0  0  0  0  0  0  0  0  0  0
    3.1472  -10.6620    6.8479 H   0  0  0  0  0  0  0  0  0  0  0  0
    1.5058  -11.2689    5.6698 H   0  0  0  0  0  0  0  0  0  0  0  0
   -0.3678   -8.3364    7.0097 H   0  0  0  0  0  0  0  0  0  0  0  0
   -0.8671   -9.9786    6.6358 H   0  0  0  0  0  0  0  0  0  0  0  0
    0.9543  -10.7622    7.7684 H   0  0  0  0  0  0  0  0  0  0  0  0
    1.0608   -8.4350    3.6434 H   0  0  0  0  0  0  0  0  0  0  0  0
    0.6961   -6.2833    4.2878 H   0  0  0  0  0  0  0  0  0  0  0  0
    0.7955   -6.6905    5.9767 H   0  0  0  0  0  0  0  0  0  0  0  0
    1.7100   -4.7134    5.3265 H   0  0  0  0  0  0  0  0  0  0  0  0
    3.1959   -4.7552    6.0876 H   0  0  0  0  0  0  0  0  0  0  0  0
    2.9097   -3.1862    4.1708 H   0  0  0  0  0  0  0  0  0  0  0  0
    4.3670   -4.1009    4.1234 H   0  0  0  0  0  0  0  0  0  0  0  0
    1.8478   -4.7150    2.6457 H   0  0  0  0  0  0  0  0  0  0  0  0
    2.4984   -2.9105    1.5279 H   0  0  0  0  0  0  0  0  0  0  0  0
    4.3644   -1.9706    2.5904 H   0  0  0  0  0  0  0  0  0  0  0  0
    5.3967   -3.3568    2.2819 H   0  0  0  0  0  0  0  0  0  0  0  0
    4.8081   -1.0990    0.4561 H   0  0  0  0  0  0  0  0  0  0  0  0
    6.1534   -2.2518    0.4238 H   0  0  0  0  0  0  0  0  0  0  0  0
    2.5453   -4.6939   -1.4318 H   0  0  0  0  0  0  0  0  0  0  0  0
    3.8282   -6.1617   -0.5663 H   0  0  0  0  0  0  0  0  0  0  0  0
    5.3058   -5.2898   -0.4687 H   0  0  0  0  0  0  0  0  0  0  0  0
    5.0723   -7.0688    1.1865 H   0  0  0  0  0  0  0  0  0  0  0  0
    5.4396   -5.5429    1.8979 H   0  0  0  0  0  0  0  0  0  0  0  0
    1.8298   -6.1353    0.8107 H   0  0  0  0  0  0  0  0  0  0  0  0
    1.3921   -7.0965    2.1416 H   0  0  0  0  0  0  0  0  0  0  0  0
    2.5963   -7.6711    0.9546 H   0  0  0  0  0  0  0  0  0  0  0  0
  1  2  1  0
  1 38  1  0
  1 39  1  0
  1 40  1  0
  2  9  1  0
  2  3  1  0
  2  4  1  0
  3 41  1  0
  3 42  1  0
  3 43  1  0
  4 16  1  0
  4  5  1  0
  4 44  1  1
  5  6  1  0
  5 45  1  0
  5 46  1  0
  6  7  1  0
  7 17  1  0
  7  8  1  0
  7 47  1  6
  8  9  1  0
  8 48  1  0
  8 49  1  0
  9 10  1  0
  9 50  1  6
 10 23  1  0
 10 36  1  0
 10 11  1  1
 11 12  1  0
 12 13  1  0
 12 51  1  0
 12 52  1  0
 13 14  1  0
 14 23  1  0
 14 15  1  0
 14 53  1  1
 15 16  1  0
 15 54  1  0
 15 55  1  0
 16 17  1  0
 16 56  1  1
 17 18  1  0
 17 57  1  1
 18 19  1  0
 18 21  2  3
 19 20  1  0
 19 58  1  0
 19 59  1  0
 20 60  1  0
 21 22  1  0
 21 61  1  0
 23 22  1  6
 22 62  1  0
 22 63  1  0
 23 24  1  0
 24 25  1  0
 24 64  1  0
 24 65  1  0
 25 26  1  0
 25 66  1  0
 25 67  1  0
 26 36  1  0
 26 27  1  0
 26 68  1  1
 27 32  1  0
 27 28  1  0
 27 69  1  6
 28 29  1  0
 28 70  1  0
 28 71  1  0
 29 30  1  0
 29 72  1  0
 29 73  1  0
 30 31  2  0
 30 32  1  0
 32 33  1  6
 32 34  1  0
 33 74  1  0
 34 35  1  0
 34 75  1  0
 34 76  1  0
 35 36  1  0
 35 77  1  0
 35 78  1  0
 36 37  1  6
 37 79  1  0
 37 80  1  0
 37 81  1  0
M  END
>  <i_m_ct_stereo_status>  (50) 
1

>  <s_m_source_file>  (50) 
/var/tmp/pbs.5076255.sched01/tmpt68d_85j/0g9mu2vg5.sdf

>  <i_m_source_file_index>  (50) 
19

>  <i_lp_mmshare_version>  (50) 
48012

>  <i_f3d_flags>  (50) 
0

>  <s_epik_input>  (50) 
W09IXVtDSDJdQyg9W0NIXVxbQ0gyXTEpXFtDQEhdMltDQEhdKE9bQ0gyXTMpW0NIMl1bQ0BASF00QyhbQ0gzXSkoW0NIM10pW0NASF0zW0NIXTJbQ0gyXVtDSF0oT1tDSDJdTzUpW0NAXTEoW0NAXTQ1NilbQ0gyXVtDSDJdW0NASF03W0NAQEhdOFtDQEBdKFtPSF0pKEMoPU8pW0NIMl1bQ0gyXTgpW0NIMl1bQ0gyXVtDQEBdNjdbQ0gzXQ==

>  <s_epik_cmdline>  (50) 
J2VwaWtfcHl0aG9uJywgJy1waHQnLCAnMi4wJywgJy1waCcsICc3LjAnLCAnLXRuJywgJzgnLCAnLW1hJywgJzIwMCcsICctaW1hZScsICc8aW5maWxlLm1hZT4nLCAnLW9tYWUnLCAnPG91dGZpbGUubWFlPic=

>  <r_lp_tautomer_probability>  (50) 
1

>  <r_epik_Ionization_Penalty>  (50) 
3.05485e-07

>  <r_epik_Ionization_Penalty_Charging>  (50) 
0

>  <r_epik_Ionization_Penalty_Neutral>  (50) 
3.05485e-07

>  <r_epik_State_Penalty>  (50) 
-0

>  <r_epik_Charging_Adjusted_Penalty>  (50) 
0

>  <i_epik_Tot_Q>  (50) 
0

>  <i_epik_Tot_abs_Q>  (50) 
0

>  <s_epik_Chemistry_Notes>  (50) 
This compound contains an acetal/aminal-like group ( X-CH(R)-Y where X, Y are N, S, or O) that may be acid/base labile, releasing an aldehyde.

>  <s_lp_Force_Field>  (50) 
OPLS3e

>  <r_lp_Energy>  (50) 
224.392

>  <b_lp_Chiralities_Consistent>  (50) 
1

>  <s_lp_Variant>  (50) 
12:0-2

>  <s_i_glide_gridfile>  (50) 
pfpi4k_grid

>  <i_i_glide_lignum>  (50) 
19

>  <i_i_glide_rotatable_bonds>  (50) 
3

>  <r_i_docking_score>  (50) 
-2.58617

>  <r_i_glide_ligand_efficiency>  (50) 
-0.0698964

>  <r_i_glide_ligand_efficiency_sa>  (50) 
-0.23291

>  <r_i_glide_ligand_efficiency_ln>  (50) 
-0.560879

>  <r_i_glide_gscore>  (50) 
-2.58617

>  <r_i_glide_lipo>  (50) 
-0.121902

>  <r_i_glide_hbond>  (50) 
-0.152

>  <r_i_glide_metal>  (50) 
-0

>  <r_i_glide_rewards>  (50) 
-0.00636053

>  <r_i_glide_evdw>  (50) 
-20.1326

>  <r_i_glide_ecoul>  (50) 
-9.18182

>  <r_i_glide_erotb>  (50) 
0.0779992

>  <r_i_glide_esite>  (50) 
0

>  <r_i_glide_emodel>  (50) 
-31.8335

>  <r_i_glide_energy>  (50) 
-29.3144

>  <r_i_glide_einternal>  (50) 
5.06079

>  <r_i_glide_intrahb_reward>  (50) 
-0

>  <i_i_glide_confnum>  (50) 
2

>  <i_i_glide_posenum>  (50) 
40

>  <r_i_glide_eff_state_penalty>  (50) 
0

>  <ligand_id>  (50) 
12

>  <original_smiles>  (50) 
CC1(C)C2COC3CC1C14OCOC5CC2C3C(CO)=CCC51CCC1C2CCC(=O)C2(O)CCC14C

>  <smiles>  (50) 
[H]OC([H])([H])C1=C([H])C([H])([H])C23C([H])([H])C([H])([H])C4([H])C5([H])C([H])([H])C([H])([H])C(=O)C5(O[H])C([H])([H])C([H])([H])C4(C([H])([H])[H])C24OC([H])([H])OC3([H])C([H])([H])C2([H])C1([H])C1([H])OC([H])([H])C2([H])C(C([H])([H])[H])(C([H])([H])[H])C4([H])C1([H])[H]

$$$$
12:1:2
     RDKit          3D

 81 88  0  0  1  0  0  0  0  0999 V2000
    6.7531   -8.9771    4.4579 C   0  0  0  0  0  0  0  0  0  0  0  0
    5.3783   -9.5682    4.0435 C   0  0  0  0  0  0  0  0  0  0  0  0
    5.9051  -10.5330    2.9164 C   0  0  0  0  0  0  0  0  0  0  0  0
    4.8026  -10.3890    5.2644 C   0  0  2  0  0  0  0  0  0  0  0  0
    4.3193  -11.8126    4.8684 C   0  0  0  0  0  0  0  0  0  0  0  0
    3.2401  -11.7553    3.9334 O   0  0  0  0  0  0  0  0  0  0  0  0
    2.4559  -10.5609    3.9470 C   0  0  2  0  0  0  0  0  0  0  0  0
    3.0740   -9.5520    2.9322 C   0  0  0  0  0  0  0  0  0  0  0  0
    4.2695   -8.6103    3.3654 C   0  0  1  0  0  0  0  0  0  0  0  0
    4.0351   -6.9853    3.6421 C   0  0  2  0  0  0  0  0  0  0  0  0
    5.3934   -6.5197    3.8190 O   0  0  0  0  0  0  0  0  0  0  0  0
    5.9159   -6.1633    5.0753 C   0  0  0  0  0  0  0  0  0  0  0  0
    5.4290   -6.9462    6.0923 O   0  0  0  0  0  0  0  0  0  0  0  0
    4.0232   -7.0359    6.2092 C   0  0  2  0  0  0  0  0  0  0  0  0
    3.8061   -8.4280    6.8471 C   0  0  0  0  0  0  0  0  0  0  0  0
    3.6171   -9.7742    6.0720 C   0  0  1  0  0  0  0  0  0  0  0  0
    2.2478  -10.1123    5.4154 C   0  0  1  0  0  0  0  0  0  0  0  0
    1.1993   -9.0520    5.6946 C   0  0  0  0  0  0  0  0  0  0  0  0
    0.5389   -9.0652    7.0772 C   0  0  0  0  0  0  0  0  0  0  0  0
   -0.1869  -10.2531    7.2689 O   0  0  0  0  0  0  0  0  0  0  0  0
    1.0891   -8.0419    4.8298 C   0  0  0  0  0  0  0  0  0  0  0  0
    1.6540   -6.6888    5.1228 C   0  0  0  0  0  0  0  0  0  0  0  0
    3.2276   -6.4865    4.9615 C   0  0  2  0  0  0  0  0  0  0  0  0
    3.2642   -4.8982    5.0882 C   0  0  0  0  0  0  0  0  0  0  0  0
    3.7670   -4.0826    3.8918 C   0  0  0  0  0  0  0  0  0  0  0  0
    3.2800   -4.6204    2.5524 C   0  0  1  0  0  0  0  0  0  0  0  0
    3.6225   -3.5878    1.4019 C   0  0  1  0  0  0  0  0  0  0  0  0
    4.9382   -2.7682    1.5635 C   0  0  0  0  0  0  0  0  0  0  0  0
    5.3360   -2.2309    0.1872 C   0  0  0  0  0  0  0  0  0  0  0  0
    4.4827   -3.0286   -0.7652 C   0  0  0  0  0  0  0  0  0  0  0  0
    4.4433   -2.8237   -1.9756 O   0  0  0  0  0  0  0  0  0  0  0  0
    3.7041   -4.1313   -0.0450 C   0  0  2  0  0  0  0  0  0  0  0  0
    2.4307   -4.2526   -0.6599 O   0  0  0  0  0  0  0  0  0  0  0  0
    4.4444   -5.4921   -0.1242 C   0  0  0  0  0  0  0  0  0  0  0  0
    4.8094   -6.1262    1.2358 C   0  0  0  0  0  0  0  0  0  0  0  0
    3.6490   -6.1337    2.2956 C   0  0  1  0  0  0  0  0  0  0  0  0
    2.4108   -6.7331    1.5818 C   0  0  0  0  0  0  0  0  0  0  0  0
    7.5384   -9.7342    4.4783 H   0  0  0  0  0  0  0  0  0  0  0  0
    6.7867   -8.6122    5.4764 H   0  0  0  0  0  0  0  0  0  0  0  0
    7.1099   -8.2224    3.7586 H   0  0  0  0  0  0  0  0  0  0  0  0
    5.1527  -11.1599    2.4478 H   0  0  0  0  0  0  0  0  0  0  0  0
    6.6490  -11.2372    3.2879 H   0  0  0  0  0  0  0  0  0  0  0  0
    6.3873   -9.9762    2.1109 H   0  0  0  0  0  0  0  0  0  0  0  0
    5.6134  -10.5499    5.9741 H   0  0  0  0  0  0  0  0  0  0  0  0
    5.1164  -12.4399    4.4687 H   0  0  0  0  0  0  0  0  0  0  0  0
    3.9737  -12.3501    5.7539 H   0  0  0  0  0  0  0  0  0  0  0  0
    1.4900  -10.8659    3.5499 H   0  0  0  0  0  0  0  0  0  0  0  0
    3.4069  -10.1631    2.0951 H   0  0  0  0  0  0  0  0  0  0  0  0
    2.2756   -9.0636    2.4022 H   0  0  0  0  0  0  0  0  0  0  0  0
    4.7393   -8.5034    2.4021 H   0  0  0  0  0  0  0  0  0  0  0  0
    6.9967   -6.3003    5.0359 H   0  0  0  0  0  0  0  0  0  0  0  0
    5.8054   -5.1207    5.3478 H   0  0  0  0  0  0  0  0  0  0  0  0
    3.7903   -6.3667    7.0399 H   0  0  0  0  0  0  0  0  0  0  0  0
    4.6466   -8.5963    7.5215 H   0  0  0  0  0  0  0  0  0  0  0  0
    3.0048   -8.2824    7.5548 H   0  0  0  0  0  0  0  0  0  0  0  0
    3.5741  -10.4463    6.9328 H   0  0  0  0  0  0  0  0  0  0  0  0
    1.8564  -11.0094    5.8912 H   0  0  0  0  0  0  0  0  0  0  0  0
    1.2149   -9.0137    7.9318 H   0  0  0  0  0  0  0  0  0  0  0  0
   -0.1539   -8.2237    7.1450 H   0  0  0  0  0  0  0  0  0  0  0  0
    0.4314  -10.9967    7.2883 H   0  0  0  0  0  0  0  0  0  0  0  0
    1.3393   -8.2073    3.8278 H   0  0  0  0  0  0  0  0  0  0  0  0
    1.1234   -6.0294    4.4337 H   0  0  0  0  0  0  0  0  0  0  0  0
    1.3346   -6.3974    6.1266 H   0  0  0  0  0  0  0  0  0  0  0  0
    2.2862   -4.4846    5.3209 H   0  0  0  0  0  0  0  0  0  0  0  0
    3.8230   -4.5675    5.9638 H   0  0  0  0  0  0  0  0  0  0  0  0
    3.4415   -3.0452    4.0125 H   0  0  0  0  0  0  0  0  0  0  0  0
    4.8479   -4.0296    3.8803 H   0  0  0  0  0  0  0  0  0  0  0  0
    2.1946   -4.5762    2.6353 H   0  0  0  0  0  0  0  0  0  0  0  0
    2.8206   -2.8419    1.4020 H   0  0  0  0  0  0  0  0  0  0  0  0
    4.8077   -1.9517    2.2775 H   0  0  0  0  0  0  0  0  0  0  0  0
    5.7531   -3.3916    1.9328 H   0  0  0  0  0  0  0  0  0  0  0  0
    5.1073   -1.1742    0.0793 H   0  0  0  0  0  0  0  0  0  0  0  0
    6.3940   -2.3845   -0.0195 H   0  0  0  0  0  0  0  0  0  0  0  0
    2.5540   -4.7082   -1.4915 H   0  0  0  0  0  0  0  0  0  0  0  0
    3.8386   -6.2155   -0.6668 H   0  0  0  0  0  0  0  0  0  0  0  0
    5.3541   -5.4015   -0.7230 H   0  0  0  0  0  0  0  0  0  0  0  0
    5.1829   -7.1239    1.0066 H   0  0  0  0  0  0  0  0  0  0  0  0
    5.6679   -5.5883    1.6297 H   0  0  0  0  0  0  0  0  0  0  0  0
    1.9626   -6.0510    0.8662 H   0  0  0  0  0  0  0  0  0  0  0  0
    1.5954   -6.9482    2.2641 H   0  0  0  0  0  0  0  0  0  0  0  0
    2.6751   -7.6184    1.0028 H   0  0  0  0  0  0  0  0  0  0  0  0
  1  2  1  0
  1 38  1  0
  1 39  1  0
  1 40  1  0
  2  9  1  0
  2  3  1  0
  2  4  1  0
  3 41  1  0
  3 42  1  0
  3 43  1  0
  4 16  1  0
  4  5  1  0
  4 44  1  1
  5  6  1  0
  5 45  1  0
  5 46  1  0
  6  7  1  0
  7 17  1  0
  7  8  1  0
  7 47  1  6
  8  9  1  0
  8 48  1  0
  8 49  1  0
  9 10  1  0
  9 50  1  6
 10 23  1  0
 10 36  1  0
 10 11  1  1
 11 12  1  0
 12 13  1  0
 12 51  1  0
 12 52  1  0
 13 14  1  0
 14 23  1  0
 14 15  1  0
 14 53  1  1
 15 16  1  0
 15 54  1  0
 15 55  1  0
 16 17  1  0
 16 56  1  1
 17 18  1  0
 17 57  1  1
 18 19  1  0
 18 21  2  3
 19 20  1  0
 19 58  1  0
 19 59  1  0
 20 60  1  0
 21 22  1  0
 21 61  1  0
 23 22  1  6
 22 62  1  0
 22 63  1  0
 23 24  1  0
 24 25  1  0
 24 64  1  0
 24 65  1  0
 25 26  1  0
 25 66  1  0
 25 67  1  0
 26 36  1  0
 26 27  1  0
 26 68  1  1
 27 32  1  0
 27 28  1  0
 27 69  1  6
 28 29  1  0
 28 70  1  0
 28 71  1  0
 29 30  1  0
 29 72  1  0
 29 73  1  0
 30 31  2  0
 30 32  1  0
 32 33  1  6
 32 34  1  0
 33 74  1  0
 34 35  1  0
 34 75  1  0
 34 76  1  0
 35 36  1  0
 35 77  1  0
 35 78  1  0
 36 37  1  6
 37 79  1  0
 37 80  1  0
 37 81  1  0
M  END
>  <i_m_ct_stereo_status>  (51) 
1

>  <s_m_source_file>  (51) 
/var/tmp/pbs.5076255.sched01/tmpt68d_85j/0g9mu2vg5.sdf

>  <i_m_source_file_index>  (51) 
19

>  <i_lp_mmshare_version>  (51) 
48012

>  <i_f3d_flags>  (51) 
0

>  <s_epik_input>  (51) 
W09IXVtDSDJdQyg9W0NIXVxbQ0gyXTEpXFtDQEhdMltDQEhdKE9bQ0gyXTMpW0NIMl1bQ0BASF00QyhbQ0gzXSkoW0NIM10pW0NASF0zW0NIXTJbQ0gyXVtDSF0oT1tDSDJdTzUpW0NAXTEoW0NAXTQ1NilbQ0gyXVtDSDJdW0NASF03W0NAQEhdOFtDQEBdKFtPSF0pKEMoPU8pW0NIMl1bQ0gyXTgpW0NIMl1bQ0gyXVtDQEBdNjdbQ0gzXQ==

>  <s_epik_cmdline>  (51) 
J2VwaWtfcHl0aG9uJywgJy1waHQnLCAnMi4wJywgJy1waCcsICc3LjAnLCAnLXRuJywgJzgnLCAnLW1hJywgJzIwMCcsICctaW1hZScsICc8aW5maWxlLm1hZT4nLCAnLW9tYWUnLCAnPG91dGZpbGUubWFlPic=

>  <r_lp_tautomer_probability>  (51) 
1

>  <r_epik_Ionization_Penalty>  (51) 
3.05485e-07

>  <r_epik_Ionization_Penalty_Charging>  (51) 
0

>  <r_epik_Ionization_Penalty_Neutral>  (51) 
3.05485e-07

>  <r_epik_State_Penalty>  (51) 
-0

>  <r_epik_Charging_Adjusted_Penalty>  (51) 
0

>  <i_epik_Tot_Q>  (51) 
0

>  <i_epik_Tot_abs_Q>  (51) 
0

>  <s_epik_Chemistry_Notes>  (51) 
This compound contains an acetal/aminal-like group ( X-CH(R)-Y where X, Y are N, S, or O) that may be acid/base labile, releasing an aldehyde.

>  <s_lp_Force_Field>  (51) 
OPLS3e

>  <r_lp_Energy>  (51) 
224.392

>  <b_lp_Chiralities_Consistent>  (51) 
1

>  <s_lp_Variant>  (51) 
12:0-2

>  <s_i_glide_gridfile>  (51) 
pfpi4k_grid

>  <i_i_glide_lignum>  (51) 
19

>  <i_i_glide_rotatable_bonds>  (51) 
3

>  <r_i_docking_score>  (51) 
-2.39807

>  <r_i_glide_ligand_efficiency>  (51) 
-0.0648127

>  <r_i_glide_ligand_efficiency_sa>  (51) 
-0.21597

>  <r_i_glide_ligand_efficiency_ln>  (51) 
-0.520085

>  <r_i_glide_gscore>  (51) 
-2.39807

>  <r_i_glide_lipo>  (51) 
-0.142956

>  <r_i_glide_hbond>  (51) 
-0.152

>  <r_i_glide_metal>  (51) 
-0

>  <r_i_glide_rewards>  (51) 
-0.010763

>  <r_i_glide_evdw>  (51) 
-18.8057

>  <r_i_glide_ecoul>  (51) 
-8.04443

>  <r_i_glide_erotb>  (51) 
0.0545994

>  <r_i_glide_esite>  (51) 
0

>  <r_i_glide_emodel>  (51) 
-30.6239

>  <r_i_glide_energy>  (51) 
-26.8502

>  <r_i_glide_einternal>  (51) 
1.84863

>  <r_i_glide_intrahb_reward>  (51) 
-0

>  <i_i_glide_confnum>  (51) 
2

>  <i_i_glide_posenum>  (51) 
1

>  <r_i_glide_eff_state_penalty>  (51) 
0

>  <ligand_id>  (51) 
12

>  <original_smiles>  (51) 
CC1(C)C2COC3CC1C14OCOC5CC2C3C(CO)=CCC51CCC1C2CCC(=O)C2(O)CCC14C

>  <smiles>  (51) 
[H]OC([H])([H])C1=C([H])C([H])([H])C23C([H])([H])C([H])([H])C4([H])C5([H])C([H])([H])C([H])([H])C(=O)C5(O[H])C([H])([H])C([H])([H])C4(C([H])([H])[H])C24OC([H])([H])OC3([H])C([H])([H])C2([H])C1([H])C1([H])OC([H])([H])C2([H])C(C([H])([H])[H])(C([H])([H])[H])C4([H])C1([H])[H]

$$$$
13:0:0
     RDKit          3D

 32 35  0  0  1  0  0  0  0  0999 V2000
    2.4626   -6.2940    1.9300 C   0  0  0  0  0  0  0  0  0  0  0  0
    1.5902   -6.1830    0.8824 N   0  0  0  0  0  0  0  0  0  0  0  0
    2.2131   -5.2427    0.1816 C   0  0  0  0  0  0  0  0  0  0  0  0
    3.3007   -4.7462    0.7751 N   0  0  0  0  0  0  0  0  0  0  0  0
    4.2248   -3.6985    0.3386 C   0  0  2  0  0  0  0  0  0  0  0  0
    5.2308   -4.2598   -0.6982 C   0  0  0  0  0  0  0  0  0  0  0  0
    6.1824   -3.1413   -1.1764 C   0  0  1  0  0  0  0  0  0  0  0  0
    5.3508   -2.0210   -1.8362 C   0  0  0  0  0  0  0  0  0  0  0  0
    4.3750   -1.4368   -0.7989 C   0  0  2  0  0  0  0  0  0  0  0  0
    5.1584   -0.8632    0.4003 C   0  0  0  0  0  0  0  0  0  0  0  0
    5.9774   -1.9946    1.0547 C   0  0  2  0  0  0  0  0  0  0  0  0
    6.9698   -2.5898    0.0341 C   0  0  0  0  0  0  0  0  0  0  0  0
    5.0247   -3.1069    1.5367 C   0  0  0  0  0  0  0  0  0  0  0  0
    3.4234   -2.5424   -0.3171 C   0  0  0  0  0  0  0  0  0  0  0  0
    3.5068   -5.4663    1.9052 N   0  0  0  0  0  0  0  0  0  0  0  0
    2.3214   -6.9926    2.7396 H   0  0  0  0  0  0  0  0  0  0  0  0
    1.8556   -4.8873   -0.7740 H   0  0  0  0  0  0  0  0  0  0  0  0
    5.8051   -5.0791   -0.2657 H   0  0  0  0  0  0  0  0  0  0  0  0
    4.6990   -4.6776   -1.5535 H   0  0  0  0  0  0  0  0  0  0  0  0
    6.8851   -3.5375   -1.9099 H   0  0  0  0  0  0  0  0  0  0  0  0
    5.9931   -1.2348   -2.2224 H   0  0  0  0  0  0  0  0  0  0  0  0
    4.8009   -2.4202   -2.6886 H   0  0  0  0  0  0  0  0  0  0  0  0
    3.7860   -0.6522   -1.2700 H   0  0  0  0  0  0  0  0  0  0  0  0
    5.8168   -0.0578    0.0791 H   0  0  0  0  0  0  0  0  0  0  0  0
    4.4654   -0.4339    1.1244 H   0  0  0  0  0  0  0  0  0  0  0  0
    6.5282   -1.5957    1.9099 H   0  0  0  0  0  0  0  0  0  0  0  0
    7.5401   -3.3936    0.4996 H   0  0  0  0  0  0  0  0  0  0  0  0
    7.6936   -1.8411   -0.2816 H   0  0  0  0  0  0  0  0  0  0  0  0
    4.3420   -2.7063    2.2892 H   0  0  0  0  0  0  0  0  0  0  0  0
    5.6186   -3.8758    2.0342 H   0  0  0  0  0  0  0  0  0  0  0  0
    2.8505   -2.8901   -1.1772 H   0  0  0  0  0  0  0  0  0  0  0  0
    2.7000   -2.1291    0.3872 H   0  0  0  0  0  0  0  0  0  0  0  0
  1 15  2  0
  1  2  1  0
  1 16  1  0
  2  3  2  0
  3  4  1  0
  3 17  1  0
  5  4  1  1
  4 15  1  0
  5 13  1  0
  5 14  1  0
  5  6  1  0
  6  7  1  0
  6 18  1  0
  6 19  1  0
  7 12  1  0
  7  8  1  0
  7 20  1  6
  8  9  1  0
  8 21  1  0
  8 22  1  0
  9 10  1  0
  9 14  1  0
  9 23  1  6
 10 11  1  0
 10 24  1  0
 10 25  1  0
 11 12  1  0
 11 13  1  0
 11 26  1  1
 12 27  1  0
 12 28  1  0
 13 29  1  0
 13 30  1  0
 14 31  1  0
 14 32  1  0
M  END
>  <i_m_ct_stereo_status>  (52) 
1

>  <s_m_source_file>  (52) 
/var/tmp/pbs.5076255.sched01/tmpt68d_85j/0g9mu2vg5.sdf

>  <i_m_source_file_index>  (52) 
20

>  <i_lp_mmshare_version>  (52) 
48012

>  <i_f3d_flags>  (52) 
0

>  <s_epik_input>  (52) 
bjFbY0hdbltjSF1uMUMyM1tDSDJdW0NASF00W0NIMl1bQ0BASF0oW0NIMl0zKVtDSDJdW0NASF0oW0NIMl00KVtDSDJdMg==

>  <s_epik_cmdline>  (52) 
J2VwaWtfcHl0aG9uJywgJy1waHQnLCAnMi4wJywgJy1waCcsICc3LjAnLCAnLXRuJywgJzgnLCAnLW1hJywgJzIwMCcsICctaW1hZScsICc8aW5maWxlLm1hZT4nLCAnLW9tYWUnLCAnPG91dGZpbGUubWFlPic=

>  <r_lp_tautomer_probability>  (52) 
1

>  <r_epik_Ionization_Penalty>  (52) 
0.000665803

>  <r_epik_Ionization_Penalty_Charging>  (52) 
0

>  <r_epik_Ionization_Penalty_Neutral>  (52) 
0.000665803

>  <r_epik_State_Penalty>  (52) 
0.000422278

>  <r_epik_Charging_Adjusted_Penalty>  (52) 
0.000422278

>  <i_epik_Tot_Q>  (52) 
0

>  <i_epik_Tot_abs_Q>  (52) 
0

>  <s_lp_Force_Field>  (52) 
OPLS3e

>  <r_lp_Energy>  (52) 
7.90782

>  <b_lp_Chiralities_Consistent>  (52) 
1

>  <s_lp_Variant>  (52) 
13:0-1

>  <s_i_glide_gridfile>  (52) 
pfpi4k_grid

>  <i_i_glide_lignum>  (52) 
20

>  <i_i_glide_rotatable_bonds>  (52) 
1

>  <r_i_docking_score>  (52) 
-3.70758

>  <r_i_glide_ligand_efficiency>  (52) 
-0.247172

>  <r_i_glide_ligand_efficiency_sa>  (52) 
-0.609578

>  <r_i_glide_ligand_efficiency_ln>  (52) 
-0.999872

>  <r_i_glide_gscore>  (52) 
-3.70758

>  <r_i_glide_lipo>  (52) 
-0.493592

>  <r_i_glide_hbond>  (52) 
-0.0657242

>  <r_i_glide_metal>  (52) 
-0

>  <r_i_glide_rewards>  (52) 
-2.02307

>  <r_i_glide_evdw>  (52) 
-19.4943

>  <r_i_glide_ecoul>  (52) 
-3.07444

>  <r_i_glide_erotb>  (52) 
0.397388

>  <r_i_glide_esite>  (52) 
-0.0867018

>  <r_i_glide_emodel>  (52) 
-27.5608

>  <r_i_glide_energy>  (52) 
-22.5687

>  <r_i_glide_einternal>  (52) 
0.234001

>  <r_i_glide_intrahb_reward>  (52) 
-0

>  <i_i_glide_confnum>  (52) 
5

>  <i_i_glide_posenum>  (52) 
34

>  <r_i_glide_eff_state_penalty>  (52) 
0

>  <ligand_id>  (52) 
13

>  <original_smiles>  (52) 
c1ncn(C23CC4CC(CC(C4)C2)C3)n1

>  <smiles>  (52) 
[H]c1nc([H])n(C23C([H])([H])C4([H])C([H])([H])C([H])(C([H])([H])C([H])(C4([H])[H])C2([H])[H])C3([H])[H])n1

$$$$
13:0:1
     RDKit          3D

 32 35  0  0  1  0  0  0  0  0999 V2000
    2.2818   -4.8421    2.4927 C   0  0  0  0  0  0  0  0  0  0  0  0
    1.7759   -5.8103    1.6689 N   0  0  0  0  0  0  0  0  0  0  0  0
    2.2625   -5.3854    0.5104 C   0  0  0  0  0  0  0  0  0  0  0  0
    2.9391   -4.2378    0.5874 N   0  0  0  0  0  0  0  0  0  0  0  0
    3.5952   -3.4581   -0.4591 C   0  0  2  0  0  0  0  0  0  0  0  0
    4.8717   -4.1897   -0.9456 C   0  0  0  0  0  0  0  0  0  0  0  0
    5.5352   -3.3784   -2.0767 C   0  0  1  0  0  0  0  0  0  0  0  0
    4.5532   -3.2384   -3.2634 C   0  0  0  0  0  0  0  0  0  0  0  0
    3.3034   -2.4856   -2.7988 C   0  0  2  0  0  0  0  0  0  0  0  0
    3.7047   -1.0950   -2.2800 C   0  0  0  0  0  0  0  0  0  0  0  0
    4.6683   -1.2426   -1.0851 C   0  0  2  0  0  0  0  0  0  0  0  0
    5.9284   -2.0017   -1.5266 C   0  0  0  0  0  0  0  0  0  0  0  0
    3.9899   -2.0347    0.0431 C   0  0  0  0  0  0  0  0  0  0  0  0
    2.6320   -3.2825   -1.6637 C   0  0  0  0  0  0  0  0  0  0  0  0
    2.9903   -3.8827    1.8958 N   0  0  0  0  0  0  0  0  0  0  0  0
    2.1152   -4.8323    3.5596 H   0  0  0  0  0  0  0  0  0  0  0  0
    2.1022   -5.8967   -0.4248 H   0  0  0  0  0  0  0  0  0  0  0  0
    5.5724   -4.3265   -0.1229 H   0  0  0  0  0  0  0  0  0  0  0  0
    4.6249   -5.1857   -1.3153 H   0  0  0  0  0  0  0  0  0  0  0  0
    6.4420   -3.8585   -2.4336 H   0  0  0  0  0  0  0  0  0  0  0  0
    5.0149   -2.6970   -4.0876 H   0  0  0  0  0  0  0  0  0  0  0  0
    4.2737   -4.2228   -3.6439 H   0  0  0  0  0  0  0  0  0  0  0  0
    2.6025   -2.3665   -3.6278 H   0  0  0  0  0  0  0  0  0  0  0  0
    4.1497   -0.4838   -3.0669 H   0  0  0  0  0  0  0  0  0  0  0  0
    2.7859   -0.6155   -1.9642 H   0  0  0  0  0  0  0  0  0  0  0  0
    4.9470   -0.2591   -0.7067 H   0  0  0  0  0  0  0  0  0  0  0  0
    6.6205   -2.1157   -0.6896 H   0  0  0  0  0  0  0  0  0  0  0  0
    6.4418   -1.4593   -2.3102 H   0  0  0  0  0  0  0  0  0  0  0  0
    3.1122   -1.4896    0.3952 H   0  0  0  0  0  0  0  0  0  0  0  0
    4.6812   -2.0980    0.8853 H   0  0  0  0  0  0  0  0  0  0  0  0
    2.2764   -4.2339   -2.0488 H   0  0  0  0  0  0  0  0  0  0  0  0
    1.7408   -2.7574   -1.3459 H   0  0  0  0  0  0  0  0  0  0  0  0
  1 15  2  0
  1  2  1  0
  1 16  1  0
  2  3  2  0
  3  4  1  0
  3 17  1  0
  5  4  1  1
  4 15  1  0
  5 13  1  0
  5 14  1  0
  5  6  1  0
  6  7  1  0
  6 18  1  0
  6 19  1  0
  7 12  1  0
  7  8  1  0
  7 20  1  6
  8  9  1  0
  8 21  1  0
  8 22  1  0
  9 10  1  0
  9 14  1  0
  9 23  1  6
 10 11  1  0
 10 24  1  0
 10 25  1  0
 11 12  1  0
 11 13  1  0
 11 26  1  1
 12 27  1  0
 12 28  1  0
 13 29  1  0
 13 30  1  0
 14 31  1  0
 14 32  1  0
M  END
>  <i_m_ct_stereo_status>  (53) 
1

>  <s_m_source_file>  (53) 
/var/tmp/pbs.5076255.sched01/tmpt68d_85j/0g9mu2vg5.sdf

>  <i_m_source_file_index>  (53) 
20

>  <i_lp_mmshare_version>  (53) 
48012

>  <i_f3d_flags>  (53) 
0

>  <s_epik_input>  (53) 
bjFbY0hdbltjSF1uMUMyM1tDSDJdW0NASF00W0NIMl1bQ0BASF0oW0NIMl0zKVtDSDJdW0NASF0oW0NIMl00KVtDSDJdMg==

>  <s_epik_cmdline>  (53) 
J2VwaWtfcHl0aG9uJywgJy1waHQnLCAnMi4wJywgJy1waCcsICc3LjAnLCAnLXRuJywgJzgnLCAnLW1hJywgJzIwMCcsICctaW1hZScsICc8aW5maWxlLm1hZT4nLCAnLW9tYWUnLCAnPG91dGZpbGUubWFlPic=

>  <r_lp_tautomer_probability>  (53) 
1

>  <r_epik_Ionization_Penalty>  (53) 
0.000665803

>  <r_epik_Ionization_Penalty_Charging>  (53) 
0

>  <r_epik_Ionization_Penalty_Neutral>  (53) 
0.000665803

>  <r_epik_State_Penalty>  (53) 
0.000422278

>  <r_epik_Charging_Adjusted_Penalty>  (53) 
0.000422278

>  <i_epik_Tot_Q>  (53) 
0

>  <i_epik_Tot_abs_Q>  (53) 
0

>  <s_lp_Force_Field>  (53) 
OPLS3e

>  <r_lp_Energy>  (53) 
7.90782

>  <b_lp_Chiralities_Consistent>  (53) 
1

>  <s_lp_Variant>  (53) 
13:0-1

>  <s_i_glide_gridfile>  (53) 
pfpi4k_grid

>  <i_i_glide_lignum>  (53) 
20

>  <i_i_glide_rotatable_bonds>  (53) 
1

>  <r_i_docking_score>  (53) 
-3.4132

>  <r_i_glide_ligand_efficiency>  (53) 
-0.227547

>  <r_i_glide_ligand_efficiency_sa>  (53) 
-0.561178

>  <r_i_glide_ligand_efficiency_ln>  (53) 
-0.920483

>  <r_i_glide_gscore>  (53) 
-3.4132

>  <r_i_glide_lipo>  (53) 
-0.506211

>  <r_i_glide_hbond>  (53) 
-0.0166825

>  <r_i_glide_metal>  (53) 
-0

>  <r_i_glide_rewards>  (53) 
-2.02307

>  <r_i_glide_evdw>  (53) 
-18.4473

>  <r_i_glide_ecoul>  (53) 
-1.71387

>  <r_i_glide_erotb>  (53) 
0.397388

>  <r_i_glide_esite>  (53) 
-0.0851793

>  <r_i_glide_emodel>  (53) 
-24.7561

>  <r_i_glide_energy>  (53) 
-20.1612

>  <r_i_glide_einternal>  (53) 
0.195288

>  <r_i_glide_intrahb_reward>  (53) 
-0

>  <i_i_glide_confnum>  (53) 
3

>  <i_i_glide_posenum>  (53) 
33

>  <r_i_glide_eff_state_penalty>  (53) 
0

>  <ligand_id>  (53) 
13

>  <original_smiles>  (53) 
c1ncn(C23CC4CC(CC(C4)C2)C3)n1

>  <smiles>  (53) 
[H]c1nc([H])n(C23C([H])([H])C4([H])C([H])([H])C([H])(C([H])([H])C([H])(C4([H])[H])C2([H])[H])C3([H])[H])n1

$$$$
13:0:2
     RDKit          3D

 32 35  0  0  1  0  0  0  0  0999 V2000
    1.6640   -6.8983    1.3146 C   0  0  0  0  0  0  0  0  0  0  0  0
    2.8049   -7.4126    1.8600 N   0  0  0  0  0  0  0  0  0  0  0  0
    3.6696   -6.4761    1.4969 C   0  0  0  0  0  0  0  0  0  0  0  0
    3.1296   -5.4772    0.7917 N   0  0  0  0  0  0  0  0  0  0  0  0
    3.7456   -4.2616    0.2457 C   0  0  2  0  0  0  0  0  0  0  0  0
    5.0354   -4.6412   -0.5312 C   0  0  0  0  0  0  0  0  0  0  0  0
    5.7144   -3.3833   -1.1068 C   0  0  1  0  0  0  0  0  0  0  0  0
    4.7440   -2.6805   -2.0794 C   0  0  0  0  0  0  0  0  0  0  0  0
    3.4783   -2.2611   -1.3089 C   0  0  2  0  0  0  0  0  0  0  0  0
    3.8525   -1.3068   -0.1564 C   0  0  0  0  0  0  0  0  0  0  0  0
    4.8129   -2.0290    0.8136 C   0  0  2  0  0  0  0  0  0  0  0  0
    6.0931   -2.4415    0.0569 C   0  0  0  0  0  0  0  0  0  0  0  0
    4.1254   -3.2877    1.3908 C   0  0  0  0  0  0  0  0  0  0  0  0
    2.7914   -3.5115   -0.7267 C   0  0  0  0  0  0  0  0  0  0  0  0
    1.7994   -5.7315    0.6902 N   0  0  0  0  0  0  0  0  0  0  0  0
    0.7081   -7.3913    1.3887 H   0  0  0  0  0  0  0  0  0  0  0  0
    4.7180   -6.5033    1.7528 H   0  0  0  0  0  0  0  0  0  0  0  0
    5.7499   -5.1541    0.1131 H   0  0  0  0  0  0  0  0  0  0  0  0
    4.8027   -5.3348   -1.3382 H   0  0  0  0  0  0  0  0  0  0  0  0
    6.6160   -3.6713   -1.6477 H   0  0  0  0  0  0  0  0  0  0  0  0
    5.2138   -1.8106   -2.5366 H   0  0  0  0  0  0  0  0  0  0  0  0
    4.4754   -3.3619   -2.8871 H   0  0  0  0  0  0  0  0  0  0  0  0
    2.7862   -1.7578   -1.9870 H   0  0  0  0  0  0  0  0  0  0  0  0
    4.3110   -0.3993   -0.5498 H   0  0  0  0  0  0  0  0  0  0  0  0
    2.9532   -0.9954    0.3749 H   0  0  0  0  0  0  0  0  0  0  0  0
    5.0755   -1.3521    1.6279 H   0  0  0  0  0  0  0  0  0  0  0  0
    6.7769   -2.9475    0.7383 H   0  0  0  0  0  0  0  0  0  0  0  0
    6.6157   -1.5615   -0.3178 H   0  0  0  0  0  0  0  0  0  0  0  0
    3.2373   -2.9997    1.9539 H   0  0  0  0  0  0  0  0  0  0  0  0
    4.7956   -3.7716    2.1024 H   0  0  0  0  0  0  0  0  0  0  0  0
    2.4798   -4.1713   -1.5363 H   0  0  0  0  0  0  0  0  0  0  0  0
    1.8809   -3.1924   -0.2200 H   0  0  0  0  0  0  0  0  0  0  0  0
  1 15  2  0
  1  2  1  0
  1 16  1  0
  2  3  2  0
  3  4  1  0
  3 17  1  0
  5  4  1  1
  4 15  1  0
  5 13  1  0
  5 14  1  0
  5  6  1  0
  6  7  1  0
  6 18  1  0
  6 19  1  0
  7 12  1  0
  7  8  1  0
  7 20  1  6
  8  9  1  0
  8 21  1  0
  8 22  1  0
  9 10  1  0
  9 14  1  0
  9 23  1  6
 10 11  1  0
 10 24  1  0
 10 25  1  0
 11 12  1  0
 11 13  1  0
 11 26  1  1
 12 27  1  0
 12 28  1  0
 13 29  1  0
 13 30  1  0
 14 31  1  0
 14 32  1  0
M  END
>  <i_m_ct_stereo_status>  (54) 
1

>  <s_m_source_file>  (54) 
/var/tmp/pbs.5076255.sched01/tmpt68d_85j/0g9mu2vg5.sdf

>  <i_m_source_file_index>  (54) 
20

>  <i_lp_mmshare_version>  (54) 
48012

>  <i_f3d_flags>  (54) 
0

>  <s_epik_input>  (54) 
bjFbY0hdbltjSF1uMUMyM1tDSDJdW0NASF00W0NIMl1bQ0BASF0oW0NIMl0zKVtDSDJdW0NASF0oW0NIMl00KVtDSDJdMg==

>  <s_epik_cmdline>  (54) 
J2VwaWtfcHl0aG9uJywgJy1waHQnLCAnMi4wJywgJy1waCcsICc3LjAnLCAnLXRuJywgJzgnLCAnLW1hJywgJzIwMCcsICctaW1hZScsICc8aW5maWxlLm1hZT4nLCAnLW9tYWUnLCAnPG91dGZpbGUubWFlPic=

>  <r_lp_tautomer_probability>  (54) 
1

>  <r_epik_Ionization_Penalty>  (54) 
0.000665803

>  <r_epik_Ionization_Penalty_Charging>  (54) 
0

>  <r_epik_Ionization_Penalty_Neutral>  (54) 
0.000665803

>  <r_epik_State_Penalty>  (54) 
0.000422278

>  <r_epik_Charging_Adjusted_Penalty>  (54) 
0.000422278

>  <i_epik_Tot_Q>  (54) 
0

>  <i_epik_Tot_abs_Q>  (54) 
0

>  <s_lp_Force_Field>  (54) 
OPLS3e

>  <r_lp_Energy>  (54) 
7.90782

>  <b_lp_Chiralities_Consistent>  (54) 
1

>  <s_lp_Variant>  (54) 
13:0-1

>  <s_i_glide_gridfile>  (54) 
pfpi4k_grid

>  <i_i_glide_lignum>  (54) 
20

>  <i_i_glide_rotatable_bonds>  (54) 
1

>  <r_i_docking_score>  (54) 
-3.22872

>  <r_i_glide_ligand_efficiency>  (54) 
-0.215248

>  <r_i_glide_ligand_efficiency_sa>  (54) 
-0.530847

>  <r_i_glide_ligand_efficiency_ln>  (54) 
-0.870732

>  <r_i_glide_gscore>  (54) 
-3.22872

>  <r_i_glide_lipo>  (54) 
-0.211289

>  <r_i_glide_hbond>  (54) 
-0.0881186

>  <r_i_glide_metal>  (54) 
-0

>  <r_i_glide_rewards>  (54) 
-2.09894

>  <r_i_glide_evdw>  (54) 
-19.3565

>  <r_i_glide_ecoul>  (54) 
-1.36446

>  <r_i_glide_erotb>  (54) 
0.397388

>  <r_i_glide_esite>  (54) 
-0.0552616

>  <r_i_glide_emodel>  (54) 
-25.1082

>  <r_i_glide_energy>  (54) 
-20.721

>  <r_i_glide_einternal>  (54) 
0.172215

>  <r_i_glide_intrahb_reward>  (54) 
-0

>  <i_i_glide_confnum>  (54) 
5

>  <i_i_glide_posenum>  (54) 
9

>  <r_i_glide_eff_state_penalty>  (54) 
0

>  <ligand_id>  (54) 
13

>  <original_smiles>  (54) 
c1ncn(C23CC4CC(CC(C4)C2)C3)n1

>  <smiles>  (54) 
[H]c1nc([H])n(C23C([H])([H])C4([H])C([H])([H])C([H])(C([H])([H])C([H])(C4([H])[H])C2([H])[H])C3([H])[H])n1

$$$$
14:0:0
     RDKit          3D

 68 73  0  0  1  0  0  0  0  0999 V2000
    2.2883   -6.4315    5.4053 C   0  0  0  0  0  0  0  0  0  0  0  0
    3.6218   -6.1089    4.6602 C   0  0  2  0  0  0  0  0  0  0  0  0
    4.0116   -4.6462    4.9339 C   0  0  0  0  0  0  0  0  0  0  0  0
    3.1782   -3.6604    4.0904 C   0  0  1  0  0  0  0  0  0  0  0  0
    3.4332   -2.3287    4.4815 O   0  0  0  0  0  0  0  0  0  0  0  0
    3.3150   -3.9526    2.5536 C   0  0  2  0  0  0  0  0  0  0  0  0
    2.4865   -2.9425    1.6983 C   0  0  0  0  0  0  0  0  0  0  0  0
    2.6069   -3.0934    0.2693 O   0  0  0  0  0  0  0  0  0  0  0  0
    3.6365   -2.4793   -0.4993 C   0  0  2  0  0  0  0  0  0  0  0  0
    3.8194   -1.1267   -0.1435 O   0  0  0  0  0  0  0  0  0  0  0  0
    3.0502   -2.5028   -1.9260 C   0  0  2  0  0  0  0  0  0  0  0  0
    3.7928   -3.1994   -3.0684 C   0  0  2  0  0  0  0  0  0  0  0  0
    5.1751   -3.8201   -2.8831 C   0  0  0  0  0  0  0  0  0  0  0  0
    5.8698   -3.4168   -1.5984 C   0  0  0  0  0  0  0  0  0  0  0  0
    7.1018   -3.1926   -1.5576 O   0  0  0  0  0  0  0  0  0  0  0  0
    5.0271   -3.2520   -0.3270 C   0  0  2  0  0  0  0  0  0  0  0  0
    4.8830   -4.5018    0.5558 C   0  0  1  0  0  0  0  0  0  0  0  0
    4.1954   -5.6047   -0.2502 C   0  0  0  0  0  0  0  0  0  0  0  0
    5.6170   -5.1348    1.7938 C   0  0  2  0  0  0  0  0  0  0  0  0
    7.1445   -5.1641    1.6864 C   0  0  0  0  0  0  0  0  0  0  0  0
    7.7348   -4.1066    0.9579 O   0  0  0  0  0  0  0  0  0  0  0  0
    5.1123   -6.3891    2.5410 C   0  0  0  0  0  0  0  0  0  0  0  0
    3.6341   -6.4155    3.1135 C   0  0  1  0  0  0  0  0  0  0  0  0
    3.0531   -7.8394    2.8833 C   0  0  0  0  0  0  0  0  0  0  0  0
    2.7044   -5.3681    2.4318 C   0  0  0  0  0  0  0  0  0  0  0  0
    4.7481   -3.9427    2.0129 C   0  0  2  0  0  0  0  0  0  0  0  0
    5.5133   -2.7028    2.5046 C   0  0  0  0  0  0  0  0  0  0  0  0
    3.5610   -1.7057   -3.1266 C   0  0  0  0  0  0  0  0  0  0  0  0
    2.6172   -1.2023   -4.1872 C   0  0  0  0  0  0  0  0  0  0  0  0
    4.6735   -0.7071   -3.0715 C   0  0  0  0  0  0  0  0  0  0  0  0
    1.4254   -5.8915    5.0035 H   0  0  0  0  0  0  0  0  0  0  0  0
    2.3622   -6.1597    6.4598 H   0  0  0  0  0  0  0  0  0  0  0  0
    2.0497   -7.4982    5.3784 H   0  0  0  0  0  0  0  0  0  0  0  0
    4.3705   -6.7449    5.1413 H   0  0  0  0  0  0  0  0  0  0  0  0
    3.8981   -4.4136    5.9957 H   0  0  0  0  0  0  0  0  0  0  0  0
    5.0699   -4.5262    4.7292 H   0  0  0  0  0  0  0  0  0  0  0  0
    2.1308   -3.7705    4.3682 H   0  0  0  0  0  0  0  0  0  0  0  0
    4.3176   -2.0998    4.2281 H   0  0  0  0  0  0  0  0  0  0  0  0
    1.4317   -3.0802    1.9428 H   0  0  0  0  0  0  0  0  0  0  0  0
    2.6932   -1.9115    1.9744 H   0  0  0  0  0  0  0  0  0  0  0  0
    2.9854   -0.7006   -0.3275 H   0  0  0  0  0  0  0  0  0  0  0  0
    1.9530   -2.5850   -1.9215 H   0  0  0  0  0  0  0  0  0  0  0  0
    3.1715   -3.7983   -3.7330 H   0  0  0  0  0  0  0  0  0  0  0  0
    5.0575   -4.9072   -2.9428 H   0  0  0  0  0  0  0  0  0  0  0  0
    5.8048   -3.5674   -3.7263 H   0  0  0  0  0  0  0  0  0  0  0  0
    5.6621   -2.5378    0.1856 H   0  0  0  0  0  0  0  0  0  0  0  0
    3.9614   -6.5172    0.2977 H   0  0  0  0  0  0  0  0  0  0  0  0
    4.8393   -5.9413   -1.0564 H   0  0  0  0  0  0  0  0  0  0  0  0
    3.2616   -5.2466   -0.6910 H   0  0  0  0  0  0  0  0  0  0  0  0
    7.5869   -5.1513    2.6870 H   0  0  0  0  0  0  0  0  0  0  0  0
    7.4514   -6.1254    1.2453 H   0  0  0  0  0  0  0  0  0  0  0  0
    7.3208   -4.0041    0.1059 H   0  0  0  0  0  0  0  0  0  0  0  0
    5.2716   -7.2281    1.8765 H   0  0  0  0  0  0  0  0  0  0  0  0
    5.8112   -6.6000    3.3574 H   0  0  0  0  0  0  0  0  0  0  0  0
    3.1235   -8.1388    1.8293 H   0  0  0  0  0  0  0  0  0  0  0  0
    1.9923   -7.9025    3.1484 H   0  0  0  0  0  0  0  0  0  0  0  0
    3.5921   -8.5921    3.4737 H   0  0  0  0  0  0  0  0  0  0  0  0
    1.7288   -5.3912    2.9057 H   0  0  0  0  0  0  0  0  0  0  0  0
    2.4314   -5.6399    1.4180 H   0  0  0  0  0  0  0  0  0  0  0  0
    6.4632   -2.5500    2.0180 H   0  0  0  0  0  0  0  0  0  0  0  0
    5.7438   -2.7594    3.5598 H   0  0  0  0  0  0  0  0  0  0  0  0
    4.9382   -1.7914    2.3800 H   0  0  0  0  0  0  0  0  0  0  0  0
    3.1611   -1.1076   -5.1293 H   0  0  0  0  0  0  0  0  0  0  0  0
    2.2402   -0.2066   -3.9260 H   0  0  0  0  0  0  0  0  0  0  0  0
    1.7908   -1.9050   -4.3198 H   0  0  0  0  0  0  0  0  0  0  0  0
    4.9815   -0.6808   -4.1120 H   0  0  0  0  0  0  0  0  0  0  0  0
    5.4861   -0.9657   -2.3773 H   0  0  0  0  0  0  0  0  0  0  0  0
    4.3238    0.3022   -2.8263 H   0  0  0  0  0  0  0  0  0  0  0  0
  1  2  1  0
  1 31  1  0
  1 32  1  0
  1 33  1  0
  2 23  1  0
  2  3  1  0
  2 34  1  1
  3  4  1  0
  3 35  1  0
  3 36  1  0
  4  5  1  0
  4  6  1  0
  4 37  1  1
  5 38  1  0
  6 25  1  0
  6 26  1  0
  6  7  1  6
  7  8  1  0
  7 39  1  0
  7 40  1  0
  8  9  1  0
  9 16  1  0
  9 10  1  1
  9 11  1  0
 10 41  1  0
 11 28  1  0
 11 12  1  0
 11 42  1  1
 12 13  1  0
 12 28  1  0
 12 43  1  6
 13 14  1  0
 13 44  1  0
 13 45  1  0
 14 15  2  0
 14 16  1  0
 16 17  1  0
 16 46  1  1
 17 26  1  0
 17 18  1  6
 17 19  1  0
 18 47  1  0
 18 48  1  0
 18 49  1  0
 19 20  1  6
 19 22  1  0
 19 26  1  0
 20 21  1  0
 20 50  1  0
 20 51  1  0
 21 52  1  0
 22 23  1  0
 22 53  1  0
 22 54  1  0
 23 24  1  1
 23 25  1  0
 24 55  1  0
 24 56  1  0
 24 57  1  0
 25 58  1  0
 25 59  1  0
 26 27  1  6
 27 60  1  0
 27 61  1  0
 27 62  1  0
 28 29  1  0
 28 30  1  0
 29 63  1  0
 29 64  1  0
 29 65  1  0
 30 66  1  0
 30 67  1  0
 30 68  1  0
M  END
>  <i_m_ct_stereo_status>  (55) 
1

>  <s_m_source_file>  (55) 
/var/tmp/pbs.5076255.sched01/tmpt68d_85j/0g9mu2vg5.sdf

>  <i_m_source_file_index>  (55) 
21

>  <i_lp_mmshare_version>  (55) 
48012

>  <i_f3d_flags>  (55) 
0

>  <s_epik_input>  (55) 
W09IXVtDQEBIXTFbQ0gyXVtDQEBIXShbQ0gzXSlbQ0BAXShbQ0gzXSkoW0NIMl0yKVtDSDJdW0NAQF0zKFtDSDJdW09IXSlbQ0BAXShbQ0gzXSkoW0NAXTMoW0NAXTEyNClbQ0gzXSlbQ0BASF01W0NAXShbT0hdKShPW0NIMl00KVtDQEBIXTZbQ0BIXShbQ0gyXUM1PU8pQzYoW0NIM10pW0NIM10=

>  <s_epik_cmdline>  (55) 
J2VwaWtfcHl0aG9uJywgJy1waHQnLCAnMi4wJywgJy1waCcsICc3LjAnLCAnLXRuJywgJzgnLCAnLW1hJywgJzIwMCcsICctaW1hZScsICc8aW5maWxlLm1hZT4nLCAnLW9tYWUnLCAnPG91dGZpbGUubWFlPic=

>  <r_lp_tautomer_probability>  (55) 
1

>  <r_epik_Ionization_Penalty>  (55) 
1.28808e-06

>  <r_epik_Ionization_Penalty_Charging>  (55) 
0

>  <r_epik_Ionization_Penalty_Neutral>  (55) 
1.28808e-06

>  <r_epik_State_Penalty>  (55) 
-0

>  <r_epik_Charging_Adjusted_Penalty>  (55) 
0

>  <i_epik_Tot_Q>  (55) 
0

>  <i_epik_Tot_abs_Q>  (55) 
0

>  <s_lp_Force_Field>  (55) 
OPLS3e

>  <r_lp_Energy>  (55) 
117.084

>  <b_lp_Chiralities_Consistent>  (55) 
1

>  <s_lp_Variant>  (55) 
14:0-1

>  <s_i_glide_gridfile>  (55) 
pfpi4k_grid

>  <i_i_glide_lignum>  (55) 
21

>  <i_i_glide_rotatable_bonds>  (55) 
4

>  <r_i_docking_score>  (55) 
-3.10563

>  <r_i_glide_ligand_efficiency>  (55) 
-0.103521

>  <r_i_glide_ligand_efficiency_sa>  (55) 
-0.321663

>  <r_i_glide_ligand_efficiency_ln>  (55) 
-0.705632

>  <r_i_glide_gscore>  (55) 
-3.10563

>  <r_i_glide_lipo>  (55) 
-0.456885

>  <r_i_glide_hbond>  (55) 
0

>  <r_i_glide_metal>  (55) 
-0

>  <r_i_glide_rewards>  (55) 
-1.2472

>  <r_i_glide_evdw>  (55) 
-22.1019

>  <r_i_glide_ecoul>  (55) 
-2.46156

>  <r_i_glide_erotb>  (55) 
0.112875

>  <r_i_glide_esite>  (55) 
-0.0400887

>  <r_i_glide_emodel>  (55) 
-31.8018

>  <r_i_glide_energy>  (55) 
-24.5635

>  <r_i_glide_einternal>  (55) 
4.56794

>  <r_i_glide_intrahb_reward>  (55) 
-0.5

>  <i_i_glide_confnum>  (55) 
5

>  <i_i_glide_posenum>  (55) 
27

>  <r_i_glide_eff_state_penalty>  (55) 
0

>  <ligand_id>  (55) 
14

>  <original_smiles>  (55) 
CC1CC(O)C23COC4(O)C5C(CC(=O)C4C4(C)C(CO)(CC1(C)C2)C34C)C5(C)C

>  <smiles>  (55) 
[H]OC([H])([H])C12C([H])([H])C3(C([H])([H])[H])C([H])([H])C4(C([H])([H])OC5(O[H])C([H])(C(=O)C([H])([H])C6([H])C5([H])C6(C([H])([H])[H])C([H])([H])[H])C1(C([H])([H])[H])C42C([H])([H])[H])C([H])(O[H])C([H])([H])C3([H])C([H])([H])[H]

$$$$
14:0:1
     RDKit          3D

 68 73  0  0  1  0  0  0  0  0999 V2000
   -1.2705   -8.5285    4.7475 C   0  0  0  0  0  0  0  0  0  0  0  0
    0.1392   -8.7451    4.1440 C   0  0  2  0  0  0  0  0  0  0  0  0
    1.2100   -8.3796    5.1920 C   0  0  0  0  0  0  0  0  0  0  0  0
    1.3820   -6.8499    5.3365 C   0  0  1  0  0  0  0  0  0  0  0  0
    2.2517   -6.5378    6.4087 O   0  0  0  0  0  0  0  0  0  0  0  0
    1.7388   -6.1743    3.9670 C   0  0  2  0  0  0  0  0  0  0  0  0
    1.9300   -4.6306    4.0965 C   0  0  0  0  0  0  0  0  0  0  0  0
    2.3607   -3.9408    2.9043 O   0  0  0  0  0  0  0  0  0  0  0  0
    3.7284   -3.8132    2.5147 C   0  0  2  0  0  0  0  0  0  0  0  0
    4.5413   -3.4311    3.6071 O   0  0  0  0  0  0  0  0  0  0  0  0
    3.7074   -2.6163    1.5411 C   0  0  2  0  0  0  0  0  0  0  0  0
    4.1550   -2.7709    0.0944 C   0  0  2  0  0  0  0  0  0  0  0  0
    4.7928   -4.0425   -0.4397 C   0  0  0  0  0  0  0  0  0  0  0  0
    5.1626   -5.0545    0.6377 C   0  0  0  0  0  0  0  0  0  0  0  0
    6.1688   -5.7529    0.5322 O   0  0  0  0  0  0  0  0  0  0  0  0
    4.2634   -5.1665    1.8809 C   0  0  2  0  0  0  0  0  0  0  0  0
    3.1674   -6.2457    1.8055 C   0  0  1  0  0  0  0  0  0  0  0  0
    2.2362   -5.9052    0.6264 C   0  0  0  0  0  0  0  0  0  0  0  0
    3.0170   -7.7470    2.1813 C   0  0  2  0  0  0  0  0  0  0  0  0
    4.2251   -8.6209    1.8298 C   0  0  0  0  0  0  0  0  0  0  0  0
    4.1874   -9.0634    0.4888 O   0  0  0  0  0  0  0  0  0  0  0  0
    1.6972   -8.5508    2.0656 C   0  0  0  0  0  0  0  0  0  0  0  0
    0.3963   -8.0016    2.7850 C   0  0  1  0  0  0  0  0  0  0  0  0
   -0.8045   -8.2444    1.8411 C   0  0  0  0  0  0  0  0  0  0  0  0
    0.4856   -6.4825    3.1131 C   0  0  0  0  0  0  0  0  0  0  0  0
    2.9883   -6.7343    3.2734 C   0  0  2  0  0  0  0  0  0  0  0  0
    4.1624   -6.8644    4.2740 C   0  0  0  0  0  0  0  0  0  0  0  0
    4.8942   -1.8134    1.0026 C   0  0  0  0  0  0  0  0  0  0  0  0
    4.7019   -0.3336    0.7316 C   0  0  0  0  0  0  0  0  0  0  0  0
    6.3318   -2.0441    1.4493 C   0  0  0  0  0  0  0  0  0  0  0  0
   -1.5083   -7.4836    4.9406 H   0  0  0  0  0  0  0  0  0  0  0  0
   -1.3552   -9.0535    5.6992 H   0  0  0  0  0  0  0  0  0  0  0  0
   -2.0612   -8.9329    4.1125 H   0  0  0  0  0  0  0  0  0  0  0  0
    0.2007   -9.8194    3.9661 H   0  0  0  0  0  0  0  0  0  0  0  0
    0.9544   -8.8200    6.1552 H   0  0  0  0  0  0  0  0  0  0  0  0
    2.1473   -8.8508    4.9022 H   0  0  0  0  0  0  0  0  0  0  0  0
    0.4328   -6.4348    5.6771 H   0  0  0  0  0  0  0  0  0  0  0  0
    3.0876   -6.9418    6.2404 H   0  0  0  0  0  0  0  0  0  0  0  0
    0.9661   -4.1963    4.3657 H   0  0  0  0  0  0  0  0  0  0  0  0
    2.5920   -4.3773    4.9242 H   0  0  0  0  0  0  0  0  0  0  0  0
    4.6191   -4.1737    4.1887 H   0  0  0  0  0  0  0  0  0  0  0  0
    2.8415   -1.9807    1.7140 H   0  0  0  0  0  0  0  0  0  0  0  0
    3.5024   -2.3107   -0.6435 H   0  0  0  0  0  0  0  0  0  0  0  0
    4.1006   -4.5141   -1.1352 H   0  0  0  0  0  0  0  0  0  0  0  0
    5.6808   -3.7915   -1.0186 H   0  0  0  0  0  0  0  0  0  0  0  0
    5.0156   -5.5008    2.5839 H   0  0  0  0  0  0  0  0  0  0  0  0
    1.3888   -6.5729    0.5254 H   0  0  0  0  0  0  0  0  0  0  0  0
    2.7726   -6.0006   -0.3109 H   0  0  0  0  0  0  0  0  0  0  0  0
    1.8568   -4.8868    0.7020 H   0  0  0  0  0  0  0  0  0  0  0  0
    5.1484   -8.0507    1.9203 H   0  0  0  0  0  0  0  0  0  0  0  0
    4.2942   -9.4736    2.5082 H   0  0  0  0  0  0  0  0  0  0  0  0
    4.2117  -10.0162    0.4804 H   0  0  0  0  0  0  0  0  0  0  0  0
    1.5107   -8.6886    0.9994 H   0  0  0  0  0  0  0  0  0  0  0  0
    1.8937   -9.5648    2.4154 H   0  0  0  0  0  0  0  0  0  0  0  0
   -0.6208   -7.8253    0.8484 H   0  0  0  0  0  0  0  0  0  0  0  0
   -1.7258   -7.7895    2.2079 H   0  0  0  0  0  0  0  0  0  0  0  0
   -0.9904   -9.3148    1.7098 H   0  0  0  0  0  0  0  0  0  0  0  0
   -0.4014   -6.1712    3.6588 H   0  0  0  0  0  0  0  0  0  0  0  0
    0.4174   -5.8572    2.2358 H   0  0  0  0  0  0  0  0  0  0  0  0
    5.1091   -7.0971    3.8000 H   0  0  0  0  0  0  0  0  0  0  0  0
    4.0020   -7.6816    4.9716 H   0  0  0  0  0  0  0  0  0  0  0  0
    4.3163   -5.9456    4.8377 H   0  0  0  0  0  0  0  0  0  0  0  0
    5.3874   -0.0080   -0.0499 H   0  0  0  0  0  0  0  0  0  0  0  0
    4.8920    0.2490    1.6339 H   0  0  0  0  0  0  0  0  0  0  0  0
    3.6800   -0.1314    0.4033 H   0  0  0  0  0  0  0  0  0  0  0  0
    7.0195   -1.7942    0.6376 H   0  0  0  0  0  0  0  0  0  0  0  0
    6.5132   -3.0744    1.7519 H   0  0  0  0  0  0  0  0  0  0  0  0
    6.5640   -1.4022    2.3031 H   0  0  0  0  0  0  0  0  0  0  0  0
  1  2  1  0
  1 31  1  0
  1 32  1  0
  1 33  1  0
  2 23  1  0
  2  3  1  0
  2 34  1  6
  3  4  1  0
  3 35  1  0
  3 36  1  0
  4  5  1  0
  4  6  1  0
  4 37  1  1
  5 38  1  0
  6 25  1  0
  6 26  1  0
  6  7  1  1
  7  8  1  0
  7 39  1  0
  7 40  1  0
  8  9  1  0
  9 16  1  0
  9 10  1  1
  9 11  1  0
 10 41  1  0
 11 28  1  0
 11 12  1  0
 11 42  1  6
 12 13  1  0
 12 28  1  0
 12 43  1  6
 13 14  1  0
 13 44  1  0
 13 45  1  0
 14 15  2  0
 14 16  1  0
 16 17  1  0
 16 46  1  1
 17 26  1  0
 17 18  1  6
 17 19  1  0
 18 47  1  0
 18 48  1  0
 18 49  1  0
 19 20  1  1
 19 22  1  0
 19 26  1  0
 20 21  1  0
 20 50  1  0
 20 51  1  0
 21 52  1  0
 22 23  1  0
 22 53  1  0
 22 54  1  0
 23 24  1  6
 23 25  1  0
 24 55  1  0
 24 56  1  0
 24 57  1  0
 25 58  1  0
 25 59  1  0
 26 27  1  1
 27 60  1  0
 27 61  1  0
 27 62  1  0
 28 29  1  0
 28 30  1  0
 29 63  1  0
 29 64  1  0
 29 65  1  0
 30 66  1  0
 30 67  1  0
 30 68  1  0
M  END
>  <i_m_ct_stereo_status>  (56) 
1

>  <s_m_source_file>  (56) 
/var/tmp/pbs.5076255.sched01/tmpt68d_85j/0g9mu2vg5.sdf

>  <i_m_source_file_index>  (56) 
21

>  <i_lp_mmshare_version>  (56) 
48012

>  <i_f3d_flags>  (56) 
0

>  <s_epik_input>  (56) 
W09IXVtDQEBIXTFbQ0gyXVtDQEBIXShbQ0gzXSlbQ0BAXShbQ0gzXSkoW0NIMl0yKVtDSDJdW0NAQF0zKFtDSDJdW09IXSlbQ0BAXShbQ0gzXSkoW0NAXTMoW0NAXTEyNClbQ0gzXSlbQ0BASF01W0NAXShbT0hdKShPW0NIMl00KVtDQEBIXTZbQ0BIXShbQ0gyXUM1PU8pQzYoW0NIM10pW0NIM10=

>  <s_epik_cmdline>  (56) 
J2VwaWtfcHl0aG9uJywgJy1waHQnLCAnMi4wJywgJy1waCcsICc3LjAnLCAnLXRuJywgJzgnLCAnLW1hJywgJzIwMCcsICctaW1hZScsICc8aW5maWxlLm1hZT4nLCAnLW9tYWUnLCAnPG91dGZpbGUubWFlPic=

>  <r_lp_tautomer_probability>  (56) 
1

>  <r_epik_Ionization_Penalty>  (56) 
1.28808e-06

>  <r_epik_Ionization_Penalty_Charging>  (56) 
0

>  <r_epik_Ionization_Penalty_Neutral>  (56) 
1.28808e-06

>  <r_epik_State_Penalty>  (56) 
-0

>  <r_epik_Charging_Adjusted_Penalty>  (56) 
0

>  <i_epik_Tot_Q>  (56) 
0

>  <i_epik_Tot_abs_Q>  (56) 
0

>  <s_lp_Force_Field>  (56) 
OPLS3e

>  <r_lp_Energy>  (56) 
117.084

>  <b_lp_Chiralities_Consistent>  (56) 
1

>  <s_lp_Variant>  (56) 
14:0-1

>  <s_i_glide_gridfile>  (56) 
pfpi4k_grid

>  <i_i_glide_lignum>  (56) 
21

>  <i_i_glide_rotatable_bonds>  (56) 
4

>  <r_i_docking_score>  (56) 
-2.68276

>  <r_i_glide_ligand_efficiency>  (56) 
-0.0894254

>  <r_i_glide_ligand_efficiency_sa>  (56) 
-0.277865

>  <r_i_glide_ligand_efficiency_ln>  (56) 
-0.609553

>  <r_i_glide_gscore>  (56) 
-2.68276

>  <r_i_glide_lipo>  (56) 
-0.382078

>  <r_i_glide_hbond>  (56) 
-0.139865

>  <r_i_glide_metal>  (56) 
-0

>  <r_i_glide_rewards>  (56) 
-0.659904

>  <r_i_glide_evdw>  (56) 
-22.8794

>  <r_i_glide_ecoul>  (56) 
-3.13213

>  <r_i_glide_erotb>  (56) 
0.112875

>  <r_i_glide_esite>  (56) 
0

>  <r_i_glide_emodel>  (56) 
-29.804

>  <r_i_glide_energy>  (56) 
-26.0115

>  <r_i_glide_einternal>  (56) 
1.34103

>  <r_i_glide_intrahb_reward>  (56) 
-0

>  <i_i_glide_confnum>  (56) 
1

>  <i_i_glide_posenum>  (56) 
37

>  <r_i_glide_eff_state_penalty>  (56) 
0

>  <ligand_id>  (56) 
14

>  <original_smiles>  (56) 
CC1CC(O)C23COC4(O)C5C(CC(=O)C4C4(C)C(CO)(CC1(C)C2)C34C)C5(C)C

>  <smiles>  (56) 
[H]OC([H])([H])C12C([H])([H])C3(C([H])([H])[H])C([H])([H])C4(C([H])([H])OC5(O[H])C([H])(C(=O)C([H])([H])C6([H])C5([H])C6(C([H])([H])[H])C([H])([H])[H])C1(C([H])([H])[H])C42C([H])([H])[H])C([H])(O[H])C([H])([H])C3([H])C([H])([H])[H]

$$$$
14:0:2
     RDKit          3D

 68 73  0  0  1  0  0  0  0  0999 V2000
   -1.2880   -8.5056    4.7694 C   0  0  0  0  0  0  0  0  0  0  0  0
    0.1040   -8.7282    4.1309 C   0  0  2  0  0  0  0  0  0  0  0  0
    1.2024   -8.4011    5.1633 C   0  0  0  0  0  0  0  0  0  0  0  0
    1.3947   -6.8765    5.3403 C   0  0  1  0  0  0  0  0  0  0  0  0
    2.2929   -6.6005    6.4001 O   0  0  0  0  0  0  0  0  0  0  0  0
    1.7320   -6.1742    3.9808 C   0  0  2  0  0  0  0  0  0  0  0  0
    1.9449   -4.6376    4.1392 C   0  0  0  0  0  0  0  0  0  0  0  0
    2.3583   -3.9296    2.9504 O   0  0  0  0  0  0  0  0  0  0  0  0
    3.7188   -3.8101    2.5366 C   0  0  2  0  0  0  0  0  0  0  0  0
    4.5593   -3.4611    3.6203 O   0  0  0  0  0  0  0  0  0  0  0  0
    3.6940   -2.5908    1.5891 C   0  0  2  0  0  0  0  0  0  0  0  0
    4.1098   -2.7180    0.1302 C   0  0  2  0  0  0  0  0  0  0  0  0
    4.7201   -3.9845   -0.4438 C   0  0  0  0  0  0  0  0  0  0  0  0
    5.0959   -5.0278    0.6084 C   0  0  0  0  0  0  0  0  0  0  0  0
    6.0884   -5.7431    0.4737 O   0  0  0  0  0  0  0  0  0  0  0  0
    4.2243   -5.1572    1.8640 C   0  0  2  0  0  0  0  0  0  0  0  0
    3.1205   -6.2331    1.7900 C   0  0  1  0  0  0  0  0  0  0  0  0
    2.1691   -5.8480    0.6375 C   0  0  0  0  0  0  0  0  0  0  0  0
    2.9560   -7.7412    2.1640 C   0  0  2  0  0  0  0  0  0  0  0  0
    4.1416   -8.6154    1.7280 C   0  0  0  0  0  0  0  0  0  0  0  0
    4.2709   -9.8168    2.4700 O   0  0  0  0  0  0  0  0  0  0  0  0
    1.6164   -8.5097    2.0203 C   0  0  0  0  0  0  0  0  0  0  0  0
    0.3414   -7.9571    2.7814 C   0  0  1  0  0  0  0  0  0  0  0  0
   -0.8818   -8.1651    1.8572 C   0  0  0  0  0  0  0  0  0  0  0  0
    0.4587   -6.4478    3.1431 C   0  0  0  0  0  0  0  0  0  0  0  0
    2.9625   -6.7331    3.2549 C   0  0  2  0  0  0  0  0  0  0  0  0
    4.1544   -6.8949    4.2277 C   0  0  0  0  0  0  0  0  0  0  0  0
    4.8782   -1.7898    1.0426 C   0  0  0  0  0  0  0  0  0  0  0  0
    4.7006   -0.3009    0.8098 C   0  0  0  0  0  0  0  0  0  0  0  0
    6.3227   -2.0470    1.4541 C   0  0  0  0  0  0  0  0  0  0  0  0
   -1.5026   -7.4653    4.9942 H   0  0  0  0  0  0  0  0  0  0  0  0
   -1.3567   -9.0519    5.7139 H   0  0  0  0  0  0  0  0  0  0  0  0
   -2.0980   -8.8866    4.1473 H   0  0  0  0  0  0  0  0  0  0  0  0
    0.1477   -9.7999    3.9292 H   0  0  0  0  0  0  0  0  0  0  0  0
    0.9615   -8.8589    6.1211 H   0  0  0  0  0  0  0  0  0  0  0  0
    2.1265   -8.8764    4.8432 H   0  0  0  0  0  0  0  0  0  0  0  0
    0.4590   -6.4572    5.7101 H   0  0  0  0  0  0  0  0  0  0  0  0
    3.1160   -7.0166    6.2044 H   0  0  0  0  0  0  0  0  0  0  0  0
    0.9939   -4.1967    4.4383 H   0  0  0  0  0  0  0  0  0  0  0  0
    2.6293   -4.4101    4.9566 H   0  0  0  0  0  0  0  0  0  0  0  0
    4.6356   -4.2129    4.1879 H   0  0  0  0  0  0  0  0  0  0  0  0
    2.8412   -1.9479    1.7945 H   0  0  0  0  0  0  0  0  0  0  0  0
    3.4472   -2.2334   -0.5828 H   0  0  0  0  0  0  0  0  0  0  0  0
    4.0070   -4.4303   -1.1346 H   0  0  0  0  0  0  0  0  0  0  0  0
    5.5991   -3.7316   -1.0365 H   0  0  0  0  0  0  0  0  0  0  0  0
    4.9890   -5.5130    2.5428 H   0  0  0  0  0  0  0  0  0  0  0  0
    1.3037   -6.4883    0.5398 H   0  0  0  0  0  0  0  0  0  0  0  0
    2.6850   -5.9311   -0.3163 H   0  0  0  0  0  0  0  0  0  0  0  0
    1.8265   -4.8224    0.7430 H   0  0  0  0  0  0  0  0  0  0  0  0
    4.0286   -8.8551    0.6710 H   0  0  0  0  0  0  0  0  0  0  0  0
    5.0779   -8.0630    1.8099 H   0  0  0  0  0  0  0  0  0  0  0  0
    4.1932  -10.5585    1.8806 H   0  0  0  0  0  0  0  0  0  0  0  0
    1.4252   -8.6226    0.9520 H   0  0  0  0  0  0  0  0  0  0  0  0
    1.7723   -9.5370    2.3430 H   0  0  0  0  0  0  0  0  0  0  0  0
   -0.7129   -7.7261    0.8721 H   0  0  0  0  0  0  0  0  0  0  0  0
   -1.7895   -7.7095    2.2576 H   0  0  0  0  0  0  0  0  0  0  0  0
   -1.0826   -9.2306    1.7085 H   0  0  0  0  0  0  0  0  0  0  0  0
   -0.4145   -6.1365    3.7128 H   0  0  0  0  0  0  0  0  0  0  0  0
    0.3829   -5.8043    2.2814 H   0  0  0  0  0  0  0  0  0  0  0  0
    5.0856   -7.1302    3.7241 H   0  0  0  0  0  0  0  0  0  0  0  0
    3.9958   -7.7292    4.9022 H   0  0  0  0  0  0  0  0  0  0  0  0
    4.3271   -5.9923    4.8080 H   0  0  0  0  0  0  0  0  0  0  0  0
    5.3802    0.0394    0.0286 H   0  0  0  0  0  0  0  0  0  0  0  0
    4.9119    0.2539    1.7254 H   0  0  0  0  0  0  0  0  0  0  0  0
    3.6777   -0.0764    0.4987 H   0  0  0  0  0  0  0  0  0  0  0  0
    6.9963   -1.7864    0.6336 H   0  0  0  0  0  0  0  0  0  0  0  0
    6.4969   -3.0855    1.7305 H   0  0  0  0  0  0  0  0  0  0  0  0
    6.5803   -1.4259    2.3168 H   0  0  0  0  0  0  0  0  0  0  0  0
  1  2  1  0
  1 31  1  0
  1 32  1  0
  1 33  1  0
  2 23  1  0
  2  3  1  0
  2 34  1  6
  3  4  1  0
  3 35  1  0
  3 36  1  0
  4  5  1  0
  4  6  1  0
  4 37  1  1
  5 38  1  0
  6 25  1  0
  6 26  1  0
  6  7  1  1
  7  8  1  0
  7 39  1  0
  7 40  1  0
  8  9  1  0
  9 16  1  0
  9 10  1  1
  9 11  1  0
 10 41  1  0
 11 28  1  0
 11 12  1  0
 11 42  1  6
 12 13  1  0
 12 28  1  0
 12 43  1  6
 13 14  1  0
 13 44  1  0
 13 45  1  0
 14 15  2  0
 14 16  1  0
 16 17  1  0
 16 46  1  1
 17 26  1  0
 17 18  1  6
 17 19  1  0
 18 47  1  0
 18 48  1  0
 18 49  1  0
 19 20  1  1
 19 22  1  0
 19 26  1  0
 20 21  1  0
 20 50  1  0
 20 51  1  0
 21 52  1  0
 22 23  1  0
 22 53  1  0
 22 54  1  0
 23 24  1  6
 23 25  1  0
 24 55  1  0
 24 56  1  0
 24 57  1  0
 25 58  1  0
 25 59  1  0
 26 27  1  1
 27 60  1  0
 27 61  1  0
 27 62  1  0
 28 29  1  0
 28 30  1  0
 29 63  1  0
 29 64  1  0
 29 65  1  0
 30 66  1  0
 30 67  1  0
 30 68  1  0
M  END
>  <i_m_ct_stereo_status>  (57) 
1

>  <s_m_source_file>  (57) 
/var/tmp/pbs.5076255.sched01/tmpt68d_85j/0g9mu2vg5.sdf

>  <i_m_source_file_index>  (57) 
21

>  <i_lp_mmshare_version>  (57) 
48012

>  <i_f3d_flags>  (57) 
0

>  <s_epik_input>  (57) 
W09IXVtDQEBIXTFbQ0gyXVtDQEBIXShbQ0gzXSlbQ0BAXShbQ0gzXSkoW0NIMl0yKVtDSDJdW0NAQF0zKFtDSDJdW09IXSlbQ0BAXShbQ0gzXSkoW0NAXTMoW0NAXTEyNClbQ0gzXSlbQ0BASF01W0NAXShbT0hdKShPW0NIMl00KVtDQEBIXTZbQ0BIXShbQ0gyXUM1PU8pQzYoW0NIM10pW0NIM10=

>  <s_epik_cmdline>  (57) 
J2VwaWtfcHl0aG9uJywgJy1waHQnLCAnMi4wJywgJy1waCcsICc3LjAnLCAnLXRuJywgJzgnLCAnLW1hJywgJzIwMCcsICctaW1hZScsICc8aW5maWxlLm1hZT4nLCAnLW9tYWUnLCAnPG91dGZpbGUubWFlPic=

>  <r_lp_tautomer_probability>  (57) 
1

>  <r_epik_Ionization_Penalty>  (57) 
1.28808e-06

>  <r_epik_Ionization_Penalty_Charging>  (57) 
0

>  <r_epik_Ionization_Penalty_Neutral>  (57) 
1.28808e-06

>  <r_epik_State_Penalty>  (57) 
-0

>  <r_epik_Charging_Adjusted_Penalty>  (57) 
0

>  <i_epik_Tot_Q>  (57) 
0

>  <i_epik_Tot_abs_Q>  (57) 
0

>  <s_lp_Force_Field>  (57) 
OPLS3e

>  <r_lp_Energy>  (57) 
117.084

>  <b_lp_Chiralities_Consistent>  (57) 
1

>  <s_lp_Variant>  (57) 
14:0-1

>  <s_i_glide_gridfile>  (57) 
pfpi4k_grid

>  <i_i_glide_lignum>  (57) 
21

>  <i_i_glide_rotatable_bonds>  (57) 
4

>  <r_i_docking_score>  (57) 
-2.44957

>  <r_i_glide_ligand_efficiency>  (57) 
-0.0816525

>  <r_i_glide_ligand_efficiency_sa>  (57) 
-0.253713

>  <r_i_glide_ligand_efficiency_ln>  (57) 
-0.55657

>  <r_i_glide_gscore>  (57) 
-2.44957

>  <r_i_glide_lipo>  (57) 
-0.370434

>  <r_i_glide_hbond>  (57) 
-0.0866149

>  <r_i_glide_metal>  (57) 
-0

>  <r_i_glide_rewards>  (57) 
-0.656352

>  <r_i_glide_evdw>  (57) 
-23.0363

>  <r_i_glide_ecoul>  (57) 
-1.98157

>  <r_i_glide_erotb>  (57) 
0.112875

>  <r_i_glide_esite>  (57) 
0

>  <r_i_glide_emodel>  (57) 
-27.9461

>  <r_i_glide_energy>  (57) 
-25.0178

>  <r_i_glide_einternal>  (57) 
1.99768

>  <r_i_glide_intrahb_reward>  (57) 
-0

>  <i_i_glide_confnum>  (57) 
3

>  <i_i_glide_posenum>  (57) 
11

>  <r_i_glide_eff_state_penalty>  (57) 
0

>  <ligand_id>  (57) 
14

>  <original_smiles>  (57) 
CC1CC(O)C23COC4(O)C5C(CC(=O)C4C4(C)C(CO)(CC1(C)C2)C34C)C5(C)C

>  <smiles>  (57) 
[H]OC([H])([H])C12C([H])([H])C3(C([H])([H])[H])C([H])([H])C4(C([H])([H])OC5(O[H])C([H])(C(=O)C([H])([H])C6([H])C5([H])C6(C([H])([H])[H])C([H])([H])[H])C1(C([H])([H])[H])C42C([H])([H])[H])C([H])(O[H])C([H])([H])C3([H])C([H])([H])[H]

$$$$
15:0:0
     RDKit          3D

 42 46  0  0  1  0  0  0  0  0999 V2000
    8.3682   -3.0518    0.0668 Cl  0  0  0  0  0  0  0  0  0  0  0  0
    6.7661   -2.6508   -0.4274 C   0  0  0  0  0  0  0  0  0  0  0  0
    5.8160   -2.2568    0.5330 C   0  0  0  0  0  0  0  0  0  0  0  0
    4.4968   -1.9302    0.1435 C   0  0  0  0  0  0  0  0  0  0  0  0
    3.4596   -1.5927    1.2017 C   0  0  0  0  0  0  0  0  0  0  0  0
    2.6413   -0.3569    0.9262 N   0  0  0  0  0  0  0  0  0  0  0  0
    1.7806    0.2234    2.0160 C   0  0  2  0  0  0  0  0  0  0  0  0
    2.4319    1.3525    2.8655 C   0  0  1  0  0  0  0  0  0  0  0  0
    1.3623    1.9651    3.8332 C   0  0  0  0  0  0  0  0  0  0  0  0
    0.7010    0.8521    4.7099 C   0  0  2  0  0  0  0  0  0  0  0  0
    1.7724    0.0239    5.4272 C   0  0  0  0  0  0  0  0  0  0  0  0
    2.5242   -0.5608    4.2207 C   0  0  2  0  0  0  0  0  0  0  0  0
    3.4368    0.5943    3.7266 C   0  0  0  0  0  0  0  0  0  0  0  0
    1.3978   -0.7664    3.1379 C   0  0  1  0  0  0  0  0  0  0  0  0
    0.1182   -0.2253    3.8057 C   0  0  0  0  0  0  0  0  0  0  0  0
    4.1639   -1.9872   -1.2250 C   0  0  0  0  0  0  0  0  0  0  0  0
    3.0194   -1.7483   -1.9482 N   0  0  0  0  0  0  0  0  0  0  0  0
    3.3010   -1.9819   -3.2415 C   0  0  0  0  0  0  0  0  0  0  0  0
    4.5519   -2.3716   -3.4877 N   0  0  0  0  0  0  0  0  0  0  0  0
    5.1084   -2.3862   -2.2148 C   0  0  0  0  0  0  0  0  0  0  0  0
    6.4122   -2.7169   -1.7907 C   0  0  0  0  0  0  0  0  0  0  0  0
    6.0993   -2.2314    1.5809 H   0  0  0  0  0  0  0  0  0  0  0  0
    2.8207   -2.4584    1.3815 H   0  0  0  0  0  0  0  0  0  0  0  0
    4.0672   -1.4881    2.1091 H   0  0  0  0  0  0  0  0  0  0  0  0
    3.2135    0.3883    0.5479 H   0  0  0  0  0  0  0  0  0  0  0  0
    0.8857    0.6217    1.5062 H   0  0  0  0  0  0  0  0  0  0  0  0
    2.9006    2.1189    2.2467 H   0  0  0  0  0  0  0  0  0  0  0  0
    1.8488    2.6907    4.4815 H   0  0  0  0  0  0  0  0  0  0  0  0
    0.5992    2.5106    3.2751 H   0  0  0  0  0  0  0  0  0  0  0  0
   -0.0327    1.2594    5.4011 H   0  0  0  0  0  0  0  0  0  0  0  0
    2.4073    0.6235    6.0832 H   0  0  0  0  0  0  0  0  0  0  0  0
    1.3189   -0.7566    6.0464 H   0  0  0  0  0  0  0  0  0  0  0  0
    3.0554   -1.4774    4.4748 H   0  0  0  0  0  0  0  0  0  0  0  0
    4.3009    0.3006    3.1183 H   0  0  0  0  0  0  0  0  0  0  0  0
    3.8476    1.1887    4.5466 H   0  0  0  0  0  0  0  0  0  0  0  0
    1.2179   -1.7954    2.8107 H   0  0  0  0  0  0  0  0  0  0  0  0
   -0.3598   -1.0067    4.3967 H   0  0  0  0  0  0  0  0  0  0  0  0
   -0.6281    0.1576    3.1072 H   0  0  0  0  0  0  0  0  0  0  0  0
    2.5574   -1.8743   -4.0168 H   0  0  0  0  0  0  0  0  0  0  0  0
    7.1427   -3.0173   -2.5257 H   0  0  0  0  0  0  0  0  0  0  0  0
    2.0794   -1.4897   -1.6051 H   0  0  0  0  0  0  0  0  0  0  0  0
    1.9576   -0.6247    0.2145 H   0  0  0  0  0  0  0  0  0  0  0  0
  1  2  1  0
  2 21  1  0
  2  3  2  0
  3  4  1  0
  3 22  1  0
  4  5  1  0
  4 16  2  0
  5  6  1  0
  5 23  1  0
  5 24  1  0
  6  7  1  0
  6 25  1  0
  6 42  1  0
  7 14  1  0
  7  8  1  0
  7 26  1  6
  8 13  1  0
  8  9  1  0
  8 27  1  6
  9 10  1  0
  9 28  1  0
  9 29  1  0
 10 15  1  0
 10 11  1  0
 10 30  1  1
 11 12  1  0
 11 31  1  0
 11 32  1  0
 12 13  1  0
 12 14  1  0
 12 33  1  1
 13 34  1  0
 13 35  1  0
 14 15  1  0
 14 36  1  6
 15 37  1  0
 15 38  1  0
 16 20  1  0
 16 17  1  0
 17 18  1  0
 17 41  1  0
 18 19  2  0
 18 39  1  0
 19 20  1  0
 20 21  2  0
 21 40  1  0
M  CHG  1   6   1
M  END
>  <i_m_ct_stereo_status>  (58) 
1

>  <s_m_source_file>  (58) 
/var/tmp/pbs.5076255.sched01/tmpt68d_85j/0g9mu2vg5.sdf

>  <i_m_source_file_index>  (58) 
22

>  <i_lp_mmshare_version>  (58) 
48012

>  <i_f3d_flags>  (58) 
0

>  <s_epik_input>  (58) 
bjFbY0hdW25IXWMoYzEyKVtjSF1jKENsKVtjSF1jMltDSDJdW05IXVtDQEhdKFtDQEBIXTM0KVtDQEhdNVtDQEBIXShbQ0gyXTQpW0NIMl1bQ0BASF0oW0NIMl0zKVtDSDJdNQ==

>  <s_epik_cmdline>  (58) 
J2VwaWtfcHl0aG9uJywgJy1waHQnLCAnMi4wJywgJy1waCcsICc3LjAnLCAnLXRuJywgJzgnLCAnLW1hJywgJzIwMCcsICctaW1hZScsICc8aW5maWxlLm1hZT4nLCAnLW9tYWUnLCAnPG91dGZpbGUubWFlPic=

>  <r_epik_Ionization_Penalty>  (58) 
0.0130437

>  <r_epik_Ionization_Penalty_Charging>  (58) 
0.0093103

>  <r_epik_Ionization_Penalty_Neutral>  (58) 
0.00373338

>  <r_epik_State_Penalty>  (58) 
0.241222

>  <r_epik_Charging_Adjusted_Penalty>  (58) 
0.250532

>  <i_epik_Tot_Q>  (58) 
1

>  <i_epik_Tot_abs_Q>  (58) 
1

>  <s_lp_Force_Field>  (58) 
OPLS3e

>  <r_lp_Energy>  (58) 
49.017

>  <b_lp_Chiralities_Consistent>  (58) 
1

>  <s_lp_Variant>  (58) 
15:0-1

>  <s_i_glide_gridfile>  (58) 
pfpi4k_grid

>  <i_i_glide_lignum>  (58) 
22

>  <i_i_glide_rotatable_bonds>  (58) 
3

>  <r_i_docking_score>  (58) 
-5.04918

>  <r_i_glide_ligand_efficiency>  (58) 
-0.240437

>  <r_i_glide_ligand_efficiency_sa>  (58) 
-0.663348

>  <r_i_glide_ligand_efficiency_ln>  (58) 
-1.2484

>  <r_i_glide_gscore>  (58) 
-5.04918

>  <r_i_glide_lipo>  (58) 
-0.279225

>  <r_i_glide_hbond>  (58) 
-0.36

>  <r_i_glide_metal>  (58) 
-0

>  <r_i_glide_rewards>  (58) 
-1.48093

>  <r_i_glide_evdw>  (58) 
-26.2162

>  <r_i_glide_ecoul>  (58) 
-13.7668

>  <r_i_glide_erotb>  (58) 
0.602543

>  <r_i_glide_esite>  (58) 
-0.155744

>  <r_i_glide_emodel>  (58) 
-51.2571

>  <r_i_glide_energy>  (58) 
-39.983

>  <r_i_glide_einternal>  (58) 
6.61974

>  <r_i_glide_intrahb_reward>  (58) 
-0

>  <i_i_glide_confnum>  (58) 
5

>  <i_i_glide_posenum>  (58) 
39

>  <r_i_glide_eff_state_penalty>  (58) 
0

>  <ligand_id>  (58) 
15

>  <original_smiles>  (58) 
Clc1cc(CNC2C3CC4CC(C3)C2C4)c2nc[nH]c2c1

>  <smiles>  (58) 
[H]c1c(Cl)c([H])c2nc([H])n([H])c2c1C([H])([H])[N+]([H])([H])C1([H])C2([H])C([H])([H])C3([H])C([H])([H])C([H])(C2([H])[H])C1([H])C3([H])[H]

$$$$
15:0:1
     RDKit          3D

 42 46  0  0  1  0  0  0  0  0999 V2000
    3.2873   -3.0638   -3.9436 Cl  0  0  0  0  0  0  0  0  0  0  0  0
    4.1974   -2.7584   -2.5238 C   0  0  0  0  0  0  0  0  0  0  0  0
    3.5211   -2.3743   -1.3568 C   0  0  0  0  0  0  0  0  0  0  0  0
    4.2348   -2.0889   -0.1833 C   0  0  0  0  0  0  0  0  0  0  0  0
    3.4612   -1.7231    1.0675 C   0  0  0  0  0  0  0  0  0  0  0  0
    2.6454   -0.4734    0.9287 N   0  0  0  0  0  0  0  0  0  0  0  0
    1.8507    0.0173    2.1015 C   0  0  2  0  0  0  0  0  0  0  0  0
    2.5809    1.0235    3.0325 C   0  0  1  0  0  0  0  0  0  0  0  0
    1.5856    1.5712    4.1173 C   0  0  0  0  0  0  0  0  0  0  0  0
    0.9150    0.3951    4.9050 C   0  0  2  0  0  0  0  0  0  0  0  0
    1.9803   -0.5444    5.4791 C   0  0  0  0  0  0  0  0  0  0  0  0
    2.6482   -1.0301    4.1839 C   0  0  2  0  0  0  0  0  0  0  0  0
    3.5876    0.1284    3.7547 C   0  0  0  0  0  0  0  0  0  0  0  0
    1.4761   -1.0689    3.1364 C   0  0  1  0  0  0  0  0  0  0  0  0
    0.2497   -0.5587    3.9198 C   0  0  0  0  0  0  0  0  0  0  0  0
    5.6474   -2.2138   -0.1891 C   0  0  0  0  0  0  0  0  0  0  0  0
    6.6677   -2.0512    0.7427 N   0  0  0  0  0  0  0  0  0  0  0  0
    7.8229   -2.3211    0.1167 C   0  0  0  0  0  0  0  0  0  0  0  0
    7.7163   -2.6584   -1.1660 N   0  0  0  0  0  0  0  0  0  0  0  0
    6.3464   -2.6153   -1.3728 C   0  0  0  0  0  0  0  0  0  0  0  0
    5.6018   -2.8781   -2.5398 C   0  0  0  0  0  0  0  0  0  0  0  0
    2.4423   -2.3124   -1.3764 H   0  0  0  0  0  0  0  0  0  0  0  0
    2.8154   -2.5741    1.2984 H   0  0  0  0  0  0  0  0  0  0  0  0
    4.2018   -1.6847    1.8609 H   0  0  0  0  0  0  0  0  0  0  0  0
    3.2208    0.2803    0.5881 H   0  0  0  0  0  0  0  0  0  0  0  0
    0.9616    0.4938    1.6775 H   0  0  0  0  0  0  0  0  0  0  0  0
    3.0533    1.8389    2.4866 H   0  0  0  0  0  0  0  0  0  0  0  0
    2.1257    2.2093    4.8177 H   0  0  0  0  0  0  0  0  0  0  0  0
    0.8200    2.1989    3.6570 H   0  0  0  0  0  0  0  0  0  0  0  0
    0.2249    0.7543    5.6707 H   0  0  0  0  0  0  0  0  0  0  0  0
    2.6663   -0.0430    6.1630 H   0  0  0  0  0  0  0  0  0  0  0  0
    1.5245   -1.3689    6.0313 H   0  0  0  0  0  0  0  0  0  0  0  0
    3.1595   -1.9828    4.3109 H   0  0  0  0  0  0  0  0  0  0  0  0
    4.3970   -0.1470    3.0855 H   0  0  0  0  0  0  0  0  0  0  0  0
    4.0748    0.6179    4.6022 H   0  0  0  0  0  0  0  0  0  0  0  0
    1.2420   -2.0472    2.7125 H   0  0  0  0  0  0  0  0  0  0  0  0
   -0.2367   -1.3829    4.4459 H   0  0  0  0  0  0  0  0  0  0  0  0
   -0.5103   -0.0778    3.3003 H   0  0  0  0  0  0  0  0  0  0  0  0
    8.7909   -2.2686    0.5998 H   0  0  0  0  0  0  0  0  0  0  0  0
    6.1256   -3.1569   -3.4435 H   0  0  0  0  0  0  0  0  0  0  0  0
    6.6068   -1.7973    1.7195 H   0  0  0  0  0  0  0  0  0  0  0  0
    1.9436   -0.6605    0.1948 H   0  0  0  0  0  0  0  0  0  0  0  0
  1  2  1  0
  2 21  1  0
  2  3  2  0
  3  4  1  0
  3 22  1  0
  4  5  1  0
  4 16  2  0
  5  6  1  0
  5 23  1  0
  5 24  1  0
  6  7  1  0
  6 25  1  0
  6 42  1  0
  7 14  1  0
  7  8  1  0
  7 26  1  6
  8 13  1  0
  8  9  1  0
  8 27  1  6
  9 10  1  0
  9 28  1  0
  9 29  1  0
 10 15  1  0
 10 11  1  0
 10 30  1  1
 11 12  1  0
 11 31  1  0
 11 32  1  0
 12 13  1  0
 12 14  1  0
 12 33  1  1
 13 34  1  0
 13 35  1  0
 14 15  1  0
 14 36  1  6
 15 37  1  0
 15 38  1  0
 16 20  1  0
 16 17  1  0
 17 18  1  0
 17 41  1  0
 18 19  2  0
 18 39  1  0
 19 20  1  0
 20 21  2  0
 21 40  1  0
M  CHG  1   6   1
M  END
>  <i_m_ct_stereo_status>  (59) 
1

>  <s_m_source_file>  (59) 
/var/tmp/pbs.5076255.sched01/tmpt68d_85j/0g9mu2vg5.sdf

>  <i_m_source_file_index>  (59) 
22

>  <i_lp_mmshare_version>  (59) 
48012

>  <i_f3d_flags>  (59) 
0

>  <s_epik_input>  (59) 
bjFbY0hdW25IXWMoYzEyKVtjSF1jKENsKVtjSF1jMltDSDJdW05IXVtDQEhdKFtDQEBIXTM0KVtDQEhdNVtDQEBIXShbQ0gyXTQpW0NIMl1bQ0BASF0oW0NIMl0zKVtDSDJdNQ==

>  <s_epik_cmdline>  (59) 
J2VwaWtfcHl0aG9uJywgJy1waHQnLCAnMi4wJywgJy1waCcsICc3LjAnLCAnLXRuJywgJzgnLCAnLW1hJywgJzIwMCcsICctaW1hZScsICc8aW5maWxlLm1hZT4nLCAnLW9tYWUnLCAnPG91dGZpbGUubWFlPic=

>  <r_epik_Ionization_Penalty>  (59) 
0.0130437

>  <r_epik_Ionization_Penalty_Charging>  (59) 
0.0093103

>  <r_epik_Ionization_Penalty_Neutral>  (59) 
0.00373338

>  <r_epik_State_Penalty>  (59) 
0.241222

>  <r_epik_Charging_Adjusted_Penalty>  (59) 
0.250532

>  <i_epik_Tot_Q>  (59) 
1

>  <i_epik_Tot_abs_Q>  (59) 
1

>  <s_lp_Force_Field>  (59) 
OPLS3e

>  <r_lp_Energy>  (59) 
49.017

>  <b_lp_Chiralities_Consistent>  (59) 
1

>  <s_lp_Variant>  (59) 
15:0-1

>  <s_i_glide_gridfile>  (59) 
pfpi4k_grid

>  <i_i_glide_lignum>  (59) 
22

>  <i_i_glide_rotatable_bonds>  (59) 
3

>  <r_i_docking_score>  (59) 
-4.03304

>  <r_i_glide_ligand_efficiency>  (59) 
-0.19205

>  <r_i_glide_ligand_efficiency_sa>  (59) 
-0.52985

>  <r_i_glide_ligand_efficiency_ln>  (59) 
-0.997161

>  <r_i_glide_gscore>  (59) 
-4.03304

>  <r_i_glide_lipo>  (59) 
-0.259371

>  <r_i_glide_hbond>  (59) 
-0.332218

>  <r_i_glide_metal>  (59) 
-0

>  <r_i_glide_rewards>  (59) 
-1.47189

>  <r_i_glide_evdw>  (59) 
-27.1638

>  <r_i_glide_ecoul>  (59) 
-7.64648

>  <r_i_glide_erotb>  (59) 
0.602543

>  <r_i_glide_esite>  (59) 
-0.066944

>  <r_i_glide_emodel>  (59) 
-43.7121

>  <r_i_glide_energy>  (59) 
-34.8103

>  <r_i_glide_einternal>  (59) 
5.79995

>  <r_i_glide_intrahb_reward>  (59) 
-0

>  <i_i_glide_confnum>  (59) 
5

>  <i_i_glide_posenum>  (59) 
1

>  <r_i_glide_eff_state_penalty>  (59) 
0

>  <ligand_id>  (59) 
15

>  <original_smiles>  (59) 
Clc1cc(CNC2C3CC4CC(C3)C2C4)c2nc[nH]c2c1

>  <smiles>  (59) 
[H]c1c(Cl)c([H])c2nc([H])n([H])c2c1C([H])([H])[N+]([H])([H])C1([H])C2([H])C([H])([H])C3([H])C([H])([H])C([H])(C2([H])[H])C1([H])C3([H])[H]

$$$$
15:0:2
     RDKit          3D

 42 46  0  0  1  0  0  0  0  0999 V2000
    0.2125   -2.9061    5.1790 Cl  0  0  0  0  0  0  0  0  0  0  0  0
    0.2212   -1.3301    4.4722 C   0  0  0  0  0  0  0  0  0  0  0  0
    1.3123   -0.9449    3.6670 C   0  0  0  0  0  0  0  0  0  0  0  0
    1.3005    0.2971    2.9813 C   0  0  0  0  0  0  0  0  0  0  0  0
    2.4595    0.6491    2.0599 C   0  0  0  0  0  0  0  0  0  0  0  0
    2.6223   -0.2858    0.8914 N   0  0  0  0  0  0  0  0  0  0  0  0
    3.2115   -1.6404    1.1938 C   0  0  2  0  0  0  0  0  0  0  0  0
    4.6724   -1.6108    1.7153 C   0  0  1  0  0  0  0  0  0  0  0  0
    5.0899   -3.0501    2.1623 C   0  0  0  0  0  0  0  0  0  0  0  0
    4.8758   -4.0693    0.9979 C   0  0  2  0  0  0  0  0  0  0  0  0
    5.6149   -3.6009   -0.2540 C   0  0  0  0  0  0  0  0  0  0  0  0
    4.8732   -2.2786   -0.5434 C   0  0  2  0  0  0  0  0  0  0  0  0
    5.4443   -1.2410    0.4430 C   0  0  0  0  0  0  0  0  0  0  0  0
    3.4076   -2.5283   -0.0568 C   0  0  1  0  0  0  0  0  0  0  0  0
    3.4412   -3.9776    0.4809 C   0  0  0  0  0  0  0  0  0  0  0  0
    0.2328    1.1891    3.2446 C   0  0  0  0  0  0  0  0  0  0  0  0
   -0.0948    2.5011    2.8751 N   0  0  0  0  0  0  0  0  0  0  0  0
   -1.2652    2.8064    3.4727 C   0  0  0  0  0  0  0  0  0  0  0  0
   -1.7711    1.8568    4.2491 N   0  0  0  0  0  0  0  0  0  0  0  0
   -0.8562    0.8275    4.1090 C   0  0  0  0  0  0  0  0  0  0  0  0
   -0.8563   -0.4599    4.6894 C   0  0  0  0  0  0  0  0  0  0  0  0
    2.1549   -1.6151    3.5887 H   0  0  0  0  0  0  0  0  0  0  0  0
    2.3278    1.6542    1.6744 H   0  0  0  0  0  0  0  0  0  0  0  0
    3.3738    0.7035    2.6477 H   0  0  0  0  0  0  0  0  0  0  0  0
    1.7241   -0.4428    0.4322 H   0  0  0  0  0  0  0  0  0  0  0  0
    2.5212   -2.1498    1.8621 H   0  0  0  0  0  0  0  0  0  0  0  0
    4.8568   -0.9036    2.5201 H   0  0  0  0  0  0  0  0  0  0  0  0
    6.1370   -3.0631    2.4657 H   0  0  0  0  0  0  0  0  0  0  0  0
    4.5114   -3.3524    3.0353 H   0  0  0  0  0  0  0  0  0  0  0  0
    5.1489   -5.0805    1.2933 H   0  0  0  0  0  0  0  0  0  0  0  0
    6.6908   -3.4891   -0.0934 H   0  0  0  0  0  0  0  0  0  0  0  0
    5.4759   -4.3155   -1.0660 H   0  0  0  0  0  0  0  0  0  0  0  0
    4.9627   -1.9745   -1.5904 H   0  0  0  0  0  0  0  0  0  0  0  0
    5.2148   -0.2272    0.1125 H   0  0  0  0  0  0  0  0  0  0  0  0
    6.5326   -1.2994    0.5653 H   0  0  0  0  0  0  0  0  0  0  0  0
    2.6444   -2.3874   -0.8215 H   0  0  0  0  0  0  0  0  0  0  0  0
    3.2715   -4.7023   -0.3168 H   0  0  0  0  0  0  0  0  0  0  0  0
    2.7074   -4.1928    1.2597 H   0  0  0  0  0  0  0  0  0  0  0  0
   -1.7751    3.7476    3.3136 H   0  0  0  0  0  0  0  0  0  0  0  0
   -1.6783   -0.7509    5.3213 H   0  0  0  0  0  0  0  0  0  0  0  0
    0.3305    3.1489    2.2023 H   0  0  0  0  0  0  0  0  0  0  0  0
    3.2105    0.1619    0.2059 H   0  0  0  0  0  0  0  0  0  0  0  0
  1  2  1  0
  2 21  1  0
  2  3  2  0
  3  4  1  0
  3 22  1  0
  4  5  1  0
  4 16  2  0
  5  6  1  0
  5 23  1  0
  5 24  1  0
  6  7  1  0
  6 25  1  0
  6 42  1  0
  7 14  1  0
  7  8  1  0
  7 26  1  1
  8 13  1  0
  8  9  1  0
  8 27  1  1
  9 10  1  0
  9 28  1  0
  9 29  1  0
 10 15  1  0
 10 11  1  0
 10 30  1  1
 11 12  1  0
 11 31  1  0
 11 32  1  0
 12 13  1  0
 12 14  1  0
 12 33  1  6
 13 34  1  0
 13 35  1  0
 14 15  1  0
 14 36  1  6
 15 37  1  0
 15 38  1  0
 16 20  1  0
 16 17  1  0
 17 18  1  0
 17 41  1  0
 18 19  2  0
 18 39  1  0
 19 20  1  0
 20 21  2  0
 21 40  1  0
M  CHG  1   6   1
M  END
>  <i_m_ct_stereo_status>  (60) 
1

>  <s_m_source_file>  (60) 
/var/tmp/pbs.5076255.sched01/tmpt68d_85j/0g9mu2vg5.sdf

>  <i_m_source_file_index>  (60) 
22

>  <i_lp_mmshare_version>  (60) 
48012

>  <i_f3d_flags>  (60) 
0

>  <s_epik_input>  (60) 
bjFbY0hdW25IXWMoYzEyKVtjSF1jKENsKVtjSF1jMltDSDJdW05IXVtDQEhdKFtDQEBIXTM0KVtDQEhdNVtDQEBIXShbQ0gyXTQpW0NIMl1bQ0BASF0oW0NIMl0zKVtDSDJdNQ==

>  <s_epik_cmdline>  (60) 
J2VwaWtfcHl0aG9uJywgJy1waHQnLCAnMi4wJywgJy1waCcsICc3LjAnLCAnLXRuJywgJzgnLCAnLW1hJywgJzIwMCcsICctaW1hZScsICc8aW5maWxlLm1hZT4nLCAnLW9tYWUnLCAnPG91dGZpbGUubWFlPic=

>  <r_epik_Ionization_Penalty>  (60) 
0.0130437

>  <r_epik_Ionization_Penalty_Charging>  (60) 
0.0093103

>  <r_epik_Ionization_Penalty_Neutral>  (60) 
0.00373338

>  <r_epik_State_Penalty>  (60) 
0.241222

>  <r_epik_Charging_Adjusted_Penalty>  (60) 
0.250532

>  <i_epik_Tot_Q>  (60) 
1

>  <i_epik_Tot_abs_Q>  (60) 
1

>  <s_lp_Force_Field>  (60) 
OPLS3e

>  <r_lp_Energy>  (60) 
49.017

>  <b_lp_Chiralities_Consistent>  (60) 
1

>  <s_lp_Variant>  (60) 
15:0-1

>  <s_i_glide_gridfile>  (60) 
pfpi4k_grid

>  <i_i_glide_lignum>  (60) 
22

>  <i_i_glide_rotatable_bonds>  (60) 
3

>  <r_i_docking_score>  (60) 
-3.93048

>  <r_i_glide_ligand_efficiency>  (60) 
-0.187166

>  <r_i_glide_ligand_efficiency_sa>  (60) 
-0.516376

>  <r_i_glide_ligand_efficiency_ln>  (60) 
-0.971803

>  <r_i_glide_gscore>  (60) 
-3.93048

>  <r_i_glide_lipo>  (60) 
-0.277385

>  <r_i_glide_hbond>  (60) 
-0.352931

>  <r_i_glide_metal>  (60) 
-0

>  <r_i_glide_rewards>  (60) 
-1.3444

>  <r_i_glide_evdw>  (60) 
-23.5786

>  <r_i_glide_ecoul>  (60) 
-7.75581

>  <r_i_glide_erotb>  (60) 
0.602543

>  <r_i_glide_esite>  (60) 
-0.216006

>  <r_i_glide_emodel>  (60) 
-41.7985

>  <r_i_glide_energy>  (60) 
-31.3344

>  <r_i_glide_einternal>  (60) 
1.61961

>  <r_i_glide_intrahb_reward>  (60) 
-0

>  <i_i_glide_confnum>  (60) 
4

>  <i_i_glide_posenum>  (60) 
13

>  <r_i_glide_eff_state_penalty>  (60) 
0

>  <ligand_id>  (60) 
15

>  <original_smiles>  (60) 
Clc1cc(CNC2C3CC4CC(C3)C2C4)c2nc[nH]c2c1

>  <smiles>  (60) 
[H]c1c(Cl)c([H])c2nc([H])n([H])c2c1C([H])([H])[N+]([H])([H])C1([H])C2([H])C([H])([H])C3([H])C([H])([H])C([H])(C2([H])[H])C1([H])C3([H])[H]

$$$$
15:1:0
     RDKit          3D

 42 46  0  0  1  0  0  0  0  0999 V2000
    4.0864   -1.5818   -4.2273 Cl  0  0  0  0  0  0  0  0  0  0  0  0
    4.2737   -2.1443   -2.6083 C   0  0  0  0  0  0  0  0  0  0  0  0
    4.0488   -1.2533   -1.5526 C   0  0  0  0  0  0  0  0  0  0  0  0
    4.1290   -1.6584   -0.2001 C   0  0  0  0  0  0  0  0  0  0  0  0
    3.8783   -0.6389    0.9091 C   0  0  0  0  0  0  0  0  0  0  0  0
    2.4449   -0.5272    1.2937 N   0  0  0  0  0  0  0  0  0  0  0  0
    2.1214    0.5954    2.2361 C   0  0  2  0  0  0  0  0  0  0  0  0
    2.6498    0.4101    3.6778 C   0  0  1  0  0  0  0  0  0  0  0  0
    2.3667    1.7087    4.5147 C   0  0  0  0  0  0  0  0  0  0  0  0
    0.8481    2.0697    4.4818 C   0  0  2  0  0  0  0  0  0  0  0  0
    0.0107    0.8824    4.9436 C   0  0  0  0  0  0  0  0  0  0  0  0
    0.3588   -0.1381    3.8441 C   0  0  2  0  0  0  0  0  0  0  0  0
    1.7387   -0.7079    4.2000 C   0  0  0  0  0  0  0  0  0  0  0  0
    0.6069    0.7136    2.5475 C   0  0  1  0  0  0  0  0  0  0  0  0
    0.3774    2.1595    3.0345 C   0  0  0  0  0  0  0  0  0  0  0  0
    4.4814   -3.0046    0.0955 C   0  0  0  0  0  0  0  0  0  0  0  0
    4.6562   -3.6475    1.3160 N   0  0  0  0  0  0  0  0  0  0  0  0
    4.9728   -4.8862    0.9374 C   0  0  0  0  0  0  0  0  0  0  0  0
    5.0170   -5.0988   -0.3854 N   0  0  0  0  0  0  0  0  0  0  0  0
    4.7177   -3.8923   -0.9961 C   0  0  0  0  0  0  0  0  0  0  0  0
    4.6176   -3.4776   -2.3341 C   0  0  0  0  0  0  0  0  0  0  0  0
    5.2046   -5.9824   -0.8403 H   0  0  0  0  0  0  0  0  0  0  0  0
    3.8131   -0.2489   -1.8221 H   0  0  0  0  0  0  0  0  0  0  0  0
    4.4857   -0.8931    1.7783 H   0  0  0  0  0  0  0  0  0  0  0  0
    4.2299    0.3361    0.5691 H   0  0  0  0  0  0  0  0  0  0  0  0
    1.8959   -0.4153    0.4401 H   0  0  0  0  0  0  0  0  0  0  0  0
    2.5075    1.5202    1.7971 H   0  0  0  0  0  0  0  0  0  0  0  0
    3.7051    0.1413    3.7314 H   0  0  0  0  0  0  0  0  0  0  0  0
    2.6815    1.5695    5.5491 H   0  0  0  0  0  0  0  0  0  0  0  0
    2.9510    2.5423    4.1255 H   0  0  0  0  0  0  0  0  0  0  0  0
    0.6308    2.9741    5.0460 H   0  0  0  0  0  0  0  0  0  0  0  0
    0.2554    0.5580    5.9560 H   0  0  0  0  0  0  0  0  0  0  0  0
   -1.0508    1.1326    4.9332 H   0  0  0  0  0  0  0  0  0  0  0  0
   -0.4061   -0.9081    3.7470 H   0  0  0  0  0  0  0  0  0  0  0  0
    1.9181   -1.6497    3.6826 H   0  0  0  0  0  0  0  0  0  0  0  0
    1.8647   -0.8986    5.2680 H   0  0  0  0  0  0  0  0  0  0  0  0
   -0.0401    0.4598    1.7050 H   0  0  0  0  0  0  0  0  0  0  0  0
   -0.6796    2.4233    2.9892 H   0  0  0  0  0  0  0  0  0  0  0  0
    0.9213    2.9178    2.4717 H   0  0  0  0  0  0  0  0  0  0  0  0
    5.1732   -5.6735    1.6515 H   0  0  0  0  0  0  0  0  0  0  0  0
    4.7678   -4.1891   -3.1261 H   0  0  0  0  0  0  0  0  0  0  0  0
    2.1588   -1.4023    1.7083 H   0  0  0  0  0  0  0  0  0  0  0  0
  1  2  1  0
  2 21  1  0
  2  3  2  0
  3  4  1  0
  3 23  1  0
  4  5  1  0
  4 16  2  0
  5  6  1  0
  5 24  1  0
  5 25  1  0
  6  7  1  0
  6 26  1  0
  6 42  1  0
  7 14  1  0
  7  8  1  0
  7 27  1  6
  8 13  1  0
  8  9  1  0
  8 28  1  6
  9 10  1  0
  9 29  1  0
  9 30  1  0
 10 15  1  0
 10 11  1  0
 10 31  1  1
 11 12  1  0
 11 32  1  0
 11 33  1  0
 12 13  1  0
 12 14  1  0
 12 34  1  6
 13 35  1  0
 13 36  1  0
 14 15  1  0
 14 37  1  6
 15 38  1  0
 15 39  1  0
 16 20  1  0
 16 17  1  0
 17 18  2  0
 18 19  1  0
 18 40  1  0
 19 22  1  0
 19 20  1  0
 20 21  2  0
 21 41  1  0
M  CHG  1   6   1
M  END
>  <i_m_ct_stereo_status>  (61) 
1

>  <s_m_source_file>  (61) 
/var/tmp/pbs.5076255.sched01/tmpt68d_85j/0g9mu2vg5.sdf

>  <i_m_source_file_index>  (61) 
23

>  <i_lp_mmshare_version>  (61) 
48012

>  <i_f3d_flags>  (61) 
0

>  <s_epik_input>  (61) 
bjFbY0hdW25IXWMoYzEyKVtjSF1jKENsKVtjSF1jMltDSDJdW05IXVtDQEhdKFtDQEBIXTM0KVtDQEhdNVtDQEBIXShbQ0gyXTQpW0NIMl1bQ0BASF0oW0NIMl0zKVtDSDJdNQ==

>  <s_epik_cmdline>  (61) 
J2VwaWtfcHl0aG9uJywgJy1waHQnLCAnMi4wJywgJy1waCcsICc3LjAnLCAnLXRuJywgJzgnLCAnLW1hJywgJzIwMCcsICctaW1hZScsICc8aW5maWxlLm1hZT4nLCAnLW9tYWUnLCAnPG91dGZpbGUubWFlPic=

>  <r_epik_Ionization_Penalty>  (61) 
0.0195193

>  <r_epik_Ionization_Penalty_Charging>  (61) 
0.0173854

>  <r_epik_Ionization_Penalty_Neutral>  (61) 
0.00213394

>  <r_epik_State_Penalty>  (61) 
0.663251

>  <r_epik_Charging_Adjusted_Penalty>  (61) 
0.680636

>  <i_epik_Tot_Q>  (61) 
1

>  <i_epik_Tot_abs_Q>  (61) 
1

>  <s_lp_Force_Field>  (61) 
OPLS3e

>  <r_lp_Energy>  (61) 
48.5804

>  <b_lp_Chiralities_Consistent>  (61) 
1

>  <s_lp_Variant>  (61) 
15:0-2

>  <s_i_glide_gridfile>  (61) 
pfpi4k_grid

>  <i_i_glide_lignum>  (61) 
23

>  <i_i_glide_rotatable_bonds>  (61) 
3

>  <r_i_docking_score>  (61) 
-3.46896

>  <r_i_glide_ligand_efficiency>  (61) 
-0.165189

>  <r_i_glide_ligand_efficiency_sa>  (61) 
-0.455743

>  <r_i_glide_ligand_efficiency_ln>  (61) 
-0.857694

>  <r_i_glide_gscore>  (61) 
-3.46896

>  <r_i_glide_lipo>  (61) 
-0.0952096

>  <r_i_glide_hbond>  (61) 
-0.2

>  <r_i_glide_metal>  (61) 
-0

>  <r_i_glide_rewards>  (61) 
-1.41629

>  <r_i_glide_evdw>  (61) 
-24.868

>  <r_i_glide_ecoul>  (61) 
-6.85919

>  <r_i_glide_erotb>  (61) 
0.602543

>  <r_i_glide_esite>  (61) 
-0.0877302

>  <r_i_glide_emodel>  (61) 
-39.5199

>  <r_i_glide_energy>  (61) 
-31.7272

>  <r_i_glide_einternal>  (61) 
0.0565026

>  <r_i_glide_intrahb_reward>  (61) 
-0

>  <i_i_glide_confnum>  (61) 
2

>  <i_i_glide_posenum>  (61) 
30

>  <r_i_glide_eff_state_penalty>  (61) 
0

>  <ligand_id>  (61) 
15

>  <original_smiles>  (61) 
Clc1cc(CNC2C3CC4CC(C3)C2C4)c2nc[nH]c2c1

>  <smiles>  (61) 
[H]c1c(Cl)c([H])c2c(nc([H])n2[H])c1C([H])([H])[N+]([H])([H])C1([H])C2([H])C([H])([H])C3([H])C([H])([H])C([H])(C2([H])[H])C1([H])C3([H])[H]

$$$$
15:1:1
     RDKit          3D

 42 46  0  0  1  0  0  0  0  0999 V2000
   -1.8240    2.6329    2.9047 Cl  0  0  0  0  0  0  0  0  0  0  0  0
   -0.2292    2.0432    3.1871 C   0  0  0  0  0  0  0  0  0  0  0  0
    0.2349    0.8915    2.5197 C   0  0  0  0  0  0  0  0  0  0  0  0
    1.5442    0.3934    2.7473 C   0  0  0  0  0  0  0  0  0  0  0  0
    2.0159   -0.8829    2.0528 C   0  0  0  0  0  0  0  0  0  0  0  0
    2.9138   -0.6310    0.8891 N   0  0  0  0  0  0  0  0  0  0  0  0
    4.0109   -1.6225    0.7022 C   0  0  2  0  0  0  0  0  0  0  0  0
    5.1945   -1.1107   -0.1392 C   0  0  1  0  0  0  0  0  0  0  0  0
    6.3382   -2.1867   -0.1157 C   0  0  0  0  0  0  0  0  0  0  0  0
    5.8037   -3.5700   -0.6039 C   0  0  2  0  0  0  0  0  0  0  0  0
    5.1575   -3.4325   -1.9795 C   0  0  0  0  0  0  0  0  0  0  0  0
    3.9934   -2.4863   -1.6346 C   0  0  2  0  0  0  0  0  0  0  0  0
    4.5955   -1.0780   -1.5491 C   0  0  0  0  0  0  0  0  0  0  0  0
    3.5965   -2.8423   -0.1572 C   0  0  1  0  0  0  0  0  0  0  0  0
    4.5772   -3.9712    0.2137 C   0  0  0  0  0  0  0  0  0  0  0  0
    2.3915    1.0616    3.6757 C   0  0  0  0  0  0  0  0  0  0  0  0
    3.6837    0.7591    4.0942 N   0  0  0  0  0  0  0  0  0  0  0  0
    3.9358    1.7469    4.9546 C   0  0  0  0  0  0  0  0  0  0  0  0
    2.9514    2.6359    5.1369 N   0  0  0  0  0  0  0  0  0  0  0  0
    1.8993    2.2290    4.3267 C   0  0  0  0  0  0  0  0  0  0  0  0
    0.6088    2.7213    4.0876 C   0  0  0  0  0  0  0  0  0  0  0  0
    2.9979    3.4498    5.7365 H   0  0  0  0  0  0  0  0  0  0  0  0
   -0.4342    0.3856    1.8395 H   0  0  0  0  0  0  0  0  0  0  0  0
    2.4838   -1.5240    2.8018 H   0  0  0  0  0  0  0  0  0  0  0  0
    1.1520   -1.4396    1.6896 H   0  0  0  0  0  0  0  0  0  0  0  0
    2.3142   -0.6231    0.0664 H   0  0  0  0  0  0  0  0  0  0  0  0
    4.3911   -1.9054    1.6855 H   0  0  0  0  0  0  0  0  0  0  0  0
    5.5631   -0.1368    0.1856 H   0  0  0  0  0  0  0  0  0  0  0  0
    7.1690   -1.8816   -0.7524 H   0  0  0  0  0  0  0  0  0  0  0  0
    6.7483   -2.2874    0.8904 H   0  0  0  0  0  0  0  0  0  0  0  0
    6.5810   -4.3283   -0.5843 H   0  0  0  0  0  0  0  0  0  0  0  0
    5.8409   -3.0521   -2.7408 H   0  0  0  0  0  0  0  0  0  0  0  0
    4.7895   -4.3964   -2.3332 H   0  0  0  0  0  0  0  0  0  0  0  0
    3.1778   -2.5535   -2.3549 H   0  0  0  0  0  0  0  0  0  0  0  0
    3.8211   -0.3222   -1.6439 H   0  0  0  0  0  0  0  0  0  0  0  0
    5.3382   -0.8702   -2.3221 H   0  0  0  0  0  0  0  0  0  0  0  0
    2.5542   -3.1440   -0.0356 H   0  0  0  0  0  0  0  0  0  0  0  0
    4.2022   -4.9417   -0.1141 H   0  0  0  0  0  0  0  0  0  0  0  0
    4.7908   -4.0475    1.2814 H   0  0  0  0  0  0  0  0  0  0  0  0
    4.8884    1.8343    5.4627 H   0  0  0  0  0  0  0  0  0  0  0  0
    0.2740    3.6174    4.5753 H   0  0  0  0  0  0  0  0  0  0  0  0
    3.3143    0.2870    1.0207 H   0  0  0  0  0  0  0  0  0  0  0  0
  1  2  1  0
  2 21  1  0
  2  3  2  0
  3  4  1  0
  3 23  1  0
  4  5  1  0
  4 16  2  0
  5  6  1  0
  5 24  1  0
  5 25  1  0
  6  7  1  0
  6 26  1  0
  6 42  1  0
  7 14  1  0
  7  8  1  0
  7 27  1  1
  8 13  1  0
  8  9  1  0
  8 28  1  1
  9 10  1  0
  9 29  1  0
  9 30  1  0
 10 15  1  0
 10 11  1  0
 10 31  1  6
 11 12  1  0
 11 32  1  0
 11 33  1  0
 12 13  1  0
 12 14  1  0
 12 34  1  6
 13 35  1  0
 13 36  1  0
 14 15  1  0
 14 37  1  6
 15 38  1  0
 15 39  1  0
 16 20  1  0
 16 17  1  0
 17 18  2  0
 18 19  1  0
 18 40  1  0
 19 22  1  0
 19 20  1  0
 20 21  2  0
 21 41  1  0
M  CHG  1   6   1
M  END
>  <i_m_ct_stereo_status>  (62) 
1

>  <s_m_source_file>  (62) 
/var/tmp/pbs.5076255.sched01/tmpt68d_85j/0g9mu2vg5.sdf

>  <i_m_source_file_index>  (62) 
23

>  <i_lp_mmshare_version>  (62) 
48012

>  <i_f3d_flags>  (62) 
0

>  <s_epik_input>  (62) 
bjFbY0hdW25IXWMoYzEyKVtjSF1jKENsKVtjSF1jMltDSDJdW05IXVtDQEhdKFtDQEBIXTM0KVtDQEhdNVtDQEBIXShbQ0gyXTQpW0NIMl1bQ0BASF0oW0NIMl0zKVtDSDJdNQ==

>  <s_epik_cmdline>  (62) 
J2VwaWtfcHl0aG9uJywgJy1waHQnLCAnMi4wJywgJy1waCcsICc3LjAnLCAnLXRuJywgJzgnLCAnLW1hJywgJzIwMCcsICctaW1hZScsICc8aW5maWxlLm1hZT4nLCAnLW9tYWUnLCAnPG91dGZpbGUubWFlPic=

>  <r_epik_Ionization_Penalty>  (62) 
0.0195193

>  <r_epik_Ionization_Penalty_Charging>  (62) 
0.0173854

>  <r_epik_Ionization_Penalty_Neutral>  (62) 
0.00213394

>  <r_epik_State_Penalty>  (62) 
0.663251

>  <r_epik_Charging_Adjusted_Penalty>  (62) 
0.680636

>  <i_epik_Tot_Q>  (62) 
1

>  <i_epik_Tot_abs_Q>  (62) 
1

>  <s_lp_Force_Field>  (62) 
OPLS3e

>  <r_lp_Energy>  (62) 
48.5804

>  <b_lp_Chiralities_Consistent>  (62) 
1

>  <s_lp_Variant>  (62) 
15:0-2

>  <s_i_glide_gridfile>  (62) 
pfpi4k_grid

>  <i_i_glide_lignum>  (62) 
23

>  <i_i_glide_rotatable_bonds>  (62) 
3

>  <r_i_docking_score>  (62) 
-3.16898

>  <r_i_glide_ligand_efficiency>  (62) 
-0.150904

>  <r_i_glide_ligand_efficiency_sa>  (62) 
-0.416332

>  <r_i_glide_ligand_efficiency_ln>  (62) 
-0.783524

>  <r_i_glide_gscore>  (62) 
-3.16898

>  <r_i_glide_lipo>  (62) 
-0.216324

>  <r_i_glide_hbond>  (62) 
-0.2

>  <r_i_glide_metal>  (62) 
-0

>  <r_i_glide_rewards>  (62) 
-1.3444

>  <r_i_glide_evdw>  (62) 
-25.7887

>  <r_i_glide_ecoul>  (62) 
-4.32127

>  <r_i_glide_erotb>  (62) 
0.602543

>  <r_i_glide_esite>  (62) 
-0.0731757

>  <r_i_glide_emodel>  (62) 
-35.7108

>  <r_i_glide_energy>  (62) 
-30.11

>  <r_i_glide_einternal>  (62) 
2.78275

>  <r_i_glide_intrahb_reward>  (62) 
-0

>  <i_i_glide_confnum>  (62) 
6

>  <i_i_glide_posenum>  (62) 
31

>  <r_i_glide_eff_state_penalty>  (62) 
0

>  <ligand_id>  (62) 
15

>  <original_smiles>  (62) 
Clc1cc(CNC2C3CC4CC(C3)C2C4)c2nc[nH]c2c1

>  <smiles>  (62) 
[H]c1c(Cl)c([H])c2c(nc([H])n2[H])c1C([H])([H])[N+]([H])([H])C1([H])C2([H])C([H])([H])C3([H])C([H])([H])C([H])(C2([H])[H])C1([H])C3([H])[H]

$$$$
15:1:2
     RDKit          3D

 42 46  0  0  1  0  0  0  0  0999 V2000
    8.1892   -3.0394   -0.7194 Cl  0  0  0  0  0  0  0  0  0  0  0  0
    6.4978   -3.3680   -0.6240 C   0  0  0  0  0  0  0  0  0  0  0  0
    5.9771   -4.0783    0.4780 C   0  0  0  0  0  0  0  0  0  0  0  0
    4.5931   -4.3763    0.5614 C   0  0  0  0  0  0  0  0  0  0  0  0
    4.0505   -5.1219    1.7813 C   0  0  0  0  0  0  0  0  0  0  0  0
    4.1591   -6.6042    1.6796 N   0  0  0  0  0  0  0  0  0  0  0  0
    3.6216   -7.3490    2.8587 C   0  0  2  0  0  0  0  0  0  0  0  0
    3.9381   -8.8586    2.8585 C   0  0  1  0  0  0  0  0  0  0  0  0
    3.4306   -9.5046    4.2010 C   0  0  0  0  0  0  0  0  0  0  0  0
    1.9139   -9.2051    4.4244 C   0  0  2  0  0  0  0  0  0  0  0  0
    1.1044   -9.6603    3.2140 C   0  0  0  0  0  0  0  0  0  0  0  0
    1.6987   -8.7415    2.1306 C   0  0  2  0  0  0  0  0  0  0  0  0
    3.0424   -9.3597    1.7236 C   0  0  0  0  0  0  0  0  0  0  0  0
    2.0759   -7.4179    2.8790 C   0  0  1  0  0  0  0  0  0  0  0  0
    1.6735   -7.6991    4.3397 C   0  0  0  0  0  0  0  0  0  0  0  0
    3.7167   -3.9233   -0.4580 C   0  0  0  0  0  0  0  0  0  0  0  0
    2.3344   -4.0438   -0.5867 N   0  0  0  0  0  0  0  0  0  0  0  0
    2.1073   -3.4491   -1.7647 C   0  0  0  0  0  0  0  0  0  0  0  0
    3.1830   -2.9442   -2.3859 N   0  0  0  0  0  0  0  0  0  0  0  0
    4.2708   -3.2148   -1.5705 C   0  0  0  0  0  0  0  0  0  0  0  0
    5.6472   -2.9424   -1.6560 C   0  0  0  0  0  0  0  0  0  0  0  0
    3.1514   -2.4544   -3.2652 H   0  0  0  0  0  0  0  0  0  0  0  0
    6.6540   -4.3766    1.2665 H   0  0  0  0  0  0  0  0  0  0  0  0
    4.5945   -4.7823    2.6615 H   0  0  0  0  0  0  0  0  0  0  0  0
    3.0127   -4.8329    1.9471 H   0  0  0  0  0  0  0  0  0  0  0  0
    3.6915   -6.9141    0.8384 H   0  0  0  0  0  0  0  0  0  0  0  0
    4.0350   -6.8959    3.7628 H   0  0  0  0  0  0  0  0  0  0  0  0
    4.9903   -9.0908    2.6862 H   0  0  0  0  0  0  0  0  0  0  0  0
    3.5824  -10.5867    4.1854 H   0  0  0  0  0  0  0  0  0  0  0  0
    4.0075   -9.1297    5.0469 H   0  0  0  0  0  0  0  0  0  0  0  0
    1.5429   -9.6371    5.3519 H   0  0  0  0  0  0  0  0  0  0  0  0
    1.2065  -10.7267    3.0058 H   0  0  0  0  0  0  0  0  0  0  0  0
    0.0419   -9.4650    3.3626 H   0  0  0  0  0  0  0  0  0  0  0  0
    1.0237   -8.6103    1.2868 H   0  0  0  0  0  0  0  0  0  0  0  0
    3.3778   -8.9932    0.7552 H   0  0  0  0  0  0  0  0  0  0  0  0
    3.0160  -10.4501    1.6649 H   0  0  0  0  0  0  0  0  0  0  0  0
    1.5769   -6.5326    2.4839 H   0  0  0  0  0  0  0  0  0  0  0  0
    0.6193   -7.4738    4.5022 H   0  0  0  0  0  0  0  0  0  0  0  0
    2.2469   -7.1374    5.0788 H   0  0  0  0  0  0  0  0  0  0  0  0
    1.1193   -3.3798   -2.1934 H   0  0  0  0  0  0  0  0  0  0  0  0
    6.0310   -2.4298   -2.5172 H   0  0  0  0  0  0  0  0  0  0  0  0
    5.1413   -6.8221    1.5970 H   0  0  0  0  0  0  0  0  0  0  0  0
  1  2  1  0
  2 21  1  0
  2  3  2  0
  3  4  1  0
  3 23  1  0
  4  5  1  0
  4 16  2  0
  5  6  1  0
  5 24  1  0
  5 25  1  0
  6  7  1  0
  6 26  1  0
  6 42  1  0
  7 14  1  0
  7  8  1  0
  7 27  1  1
  8 13  1  0
  8  9  1  0
  8 28  1  6
  9 10  1  0
  9 29  1  0
  9 30  1  0
 10 15  1  0
 10 11  1  0
 10 31  1  1
 11 12  1  0
 11 32  1  0
 11 33  1  0
 12 13  1  0
 12 14  1  0
 12 34  1  6
 13 35  1  0
 13 36  1  0
 14 15  1  0
 14 37  1  6
 15 38  1  0
 15 39  1  0
 16 20  1  0
 16 17  1  0
 17 18  2  0
 18 19  1  0
 18 40  1  0
 19 22  1  0
 19 20  1  0
 20 21  2  0
 21 41  1  0
M  CHG  1   6   1
M  END
>  <i_m_ct_stereo_status>  (63) 
1

>  <s_m_source_file>  (63) 
/var/tmp/pbs.5076255.sched01/tmpt68d_85j/0g9mu2vg5.sdf

>  <i_m_source_file_index>  (63) 
23

>  <i_lp_mmshare_version>  (63) 
48012

>  <i_f3d_flags>  (63) 
0

>  <s_epik_input>  (63) 
bjFbY0hdW25IXWMoYzEyKVtjSF1jKENsKVtjSF1jMltDSDJdW05IXVtDQEhdKFtDQEBIXTM0KVtDQEhdNVtDQEBIXShbQ0gyXTQpW0NIMl1bQ0BASF0oW0NIMl0zKVtDSDJdNQ==

>  <s_epik_cmdline>  (63) 
J2VwaWtfcHl0aG9uJywgJy1waHQnLCAnMi4wJywgJy1waCcsICc3LjAnLCAnLXRuJywgJzgnLCAnLW1hJywgJzIwMCcsICctaW1hZScsICc8aW5maWxlLm1hZT4nLCAnLW9tYWUnLCAnPG91dGZpbGUubWFlPic=

>  <r_epik_Ionization_Penalty>  (63) 
0.0195193

>  <r_epik_Ionization_Penalty_Charging>  (63) 
0.0173854

>  <r_epik_Ionization_Penalty_Neutral>  (63) 
0.00213394

>  <r_epik_State_Penalty>  (63) 
0.663251

>  <r_epik_Charging_Adjusted_Penalty>  (63) 
0.680636

>  <i_epik_Tot_Q>  (63) 
1

>  <i_epik_Tot_abs_Q>  (63) 
1

>  <s_lp_Force_Field>  (63) 
OPLS3e

>  <r_lp_Energy>  (63) 
48.5804

>  <b_lp_Chiralities_Consistent>  (63) 
1

>  <s_lp_Variant>  (63) 
15:0-2

>  <s_i_glide_gridfile>  (63) 
pfpi4k_grid

>  <i_i_glide_lignum>  (63) 
23

>  <i_i_glide_rotatable_bonds>  (63) 
3

>  <r_i_docking_score>  (63) 
-2.87692

>  <r_i_glide_ligand_efficiency>  (63) 
-0.136996

>  <r_i_glide_ligand_efficiency_sa>  (63) 
-0.377963

>  <r_i_glide_ligand_efficiency_ln>  (63) 
-0.711314

>  <r_i_glide_gscore>  (63) 
-2.87692

>  <r_i_glide_lipo>  (63) 
-0.343732

>  <r_i_glide_hbond>  (63) 
0

>  <r_i_glide_metal>  (63) 
-0

>  <r_i_glide_rewards>  (63) 
-1.56257

>  <r_i_glide_evdw>  (63) 
-24.2169

>  <r_i_glide_ecoul>  (63) 
-2.20373

>  <r_i_glide_erotb>  (63) 
0.602543

>  <r_i_glide_esite>  (63) 
-0.0317572

>  <r_i_glide_emodel>  (63) 
-32.7393

>  <r_i_glide_energy>  (63) 
-26.4207

>  <r_i_glide_einternal>  (63) 
0.326161

>  <r_i_glide_intrahb_reward>  (63) 
-0

>  <i_i_glide_confnum>  (63) 
6

>  <i_i_glide_posenum>  (63) 
3

>  <r_i_glide_eff_state_penalty>  (63) 
0

>  <ligand_id>  (63) 
15

>  <original_smiles>  (63) 
Clc1cc(CNC2C3CC4CC(C3)C2C4)c2nc[nH]c2c1

>  <smiles>  (63) 
[H]c1c(Cl)c([H])c2c(nc([H])n2[H])c1C([H])([H])[N+]([H])([H])C1([H])C2([H])C([H])([H])C3([H])C([H])([H])C([H])(C2([H])[H])C1([H])C3([H])[H]

$$$$
16:0:0
     RDKit          3D

 57 64  0  0  1  0  0  0  0  0999 V2000
    6.5058   -7.5168    2.1493 C   0  0  0  0  0  0  0  0  0  0  0  0
    6.7148   -6.2648    2.7988 O   0  0  0  0  0  0  0  0  0  0  0  0
    5.6271   -5.4504    2.9204 C   0  0  0  0  0  0  0  0  0  0  0  0
    5.4561   -4.7316    4.1408 C   0  0  0  0  0  0  0  0  0  0  0  0
    4.5846   -3.6214    4.2865 C   0  0  0  0  0  0  0  0  0  0  0  0
    3.8074   -3.3938    3.1383 C   0  0  0  0  0  0  0  0  0  0  0  0
    3.7244   -4.3388    2.1118 C   0  0  0  0  0  0  0  0  0  0  0  0
    4.7589   -5.2007    1.8158 C   0  0  0  0  0  0  0  0  0  0  0  0
    5.3815   -4.8830    0.4327 C   0  0  1  0  0  0  0  0  0  0  0  0
    4.6386   -4.9474   -0.8901 C   0  0  0  0  0  0  0  0  0  0  0  0
    5.2276   -3.5816   -1.3339 C   0  0  1  0  0  0  0  0  0  0  0  0
    5.9328   -3.4493   -2.6535 C   0  0  0  0  0  0  0  0  0  0  0  0
    4.9072   -3.6553   -3.7792 C   0  0  0  0  0  0  0  0  0  0  0  0
    5.1706   -4.2631   -4.7613 O   0  0  0  0  0  0  0  0  0  0  0  0
    3.5479   -3.0514   -3.6622 C   0  0  1  0  0  0  0  0  0  0  0  0
    3.1929   -2.4097   -2.3520 C   0  0  1  0  0  0  0  0  0  0  0  0
    4.1799   -2.4723   -1.2085 C   0  0  0  0  0  0  0  0  0  0  0  0
    4.2455   -1.8865    0.0093 C   0  0  0  0  0  0  0  0  0  0  0  0
    3.1488   -2.0208    0.9979 C   0  0  0  0  0  0  0  0  0  0  0  0
    2.2543   -2.9417    0.7012 C   0  0  0  0  0  0  0  0  0  0  0  0
    2.3400   -4.2215    1.4659 C   0  0  0  0  0  0  0  0  0  0  0  0
    3.5470   -2.0008    2.5033 C   0  0  2  0  0  0  0  0  0  0  0  0
    4.7940   -1.1239    2.6790 C   0  0  0  0  0  0  0  0  0  0  0  0
    5.9862   -1.7652    1.9617 C   0  0  0  0  0  0  0  0  0  0  0  0
    5.6568   -2.1196    0.5111 C   0  0  1  0  0  0  0  0  0  0  0  0
    5.9942   -3.5095   -0.0134 C   0  0  1  0  0  0  0  0  0  0  0  0
    3.4343   -1.5667   -3.5935 C   0  0  0  0  0  0  0  0  0  0  0  0
    4.5720   -0.6080   -3.6485 C   0  0  0  0  0  0  0  0  0  0  0  0
    2.3408   -0.9580   -4.3699 C   0  0  0  0  0  0  0  0  0  0  0  0
    7.4616   -8.0132    1.9658 H   0  0  0  0  0  0  0  0  0  0  0  0
    5.9817   -7.4771    1.1981 H   0  0  0  0  0  0  0  0  0  0  0  0
    5.9011   -8.1276    2.8114 H   0  0  0  0  0  0  0  0  0  0  0  0
    6.1563   -4.9497    4.9308 H   0  0  0  0  0  0  0  0  0  0  0  0
    4.6734   -2.9163    5.1011 H   0  0  0  0  0  0  0  0  0  0  0  0
    6.2108   -5.5677    0.2901 H   0  0  0  0  0  0  0  0  0  0  0  0
    4.9852   -5.7962   -1.4925 H   0  0  0  0  0  0  0  0  0  0  0  0
    3.5606   -4.9215   -0.7917 H   0  0  0  0  0  0  0  0  0  0  0  0
    6.5689   -2.5707   -2.7680 H   0  0  0  0  0  0  0  0  0  0  0  0
    6.7111   -4.2038   -2.7532 H   0  0  0  0  0  0  0  0  0  0  0  0
    2.7825   -3.6268   -4.1808 H   0  0  0  0  0  0  0  0  0  0  0  0
    2.1632   -2.4355   -2.0695 H   0  0  0  0  0  0  0  0  0  0  0  0
    1.9101   -3.1711   -0.3025 H   0  0  0  0  0  0  0  0  0  0  0  0
    2.2035   -5.0618    0.7968 H   0  0  0  0  0  0  0  0  0  0  0  0
    1.5478   -4.3116    2.1977 H   0  0  0  0  0  0  0  0  0  0  0  0
    2.7163   -1.5450    3.0374 H   0  0  0  0  0  0  0  0  0  0  0  0
    4.5946   -0.1504    2.2444 H   0  0  0  0  0  0  0  0  0  0  0  0
    5.0232   -0.9385    3.7263 H   0  0  0  0  0  0  0  0  0  0  0  0
    6.8227   -1.0667    1.9830 H   0  0  0  0  0  0  0  0  0  0  0  0
    6.3275   -2.6517    2.4880 H   0  0  0  0  0  0  0  0  0  0  0  0
    6.2523   -1.4106   -0.0736 H   0  0  0  0  0  0  0  0  0  0  0  0
    7.0604   -3.6571   -0.1794 H   0  0  0  0  0  0  0  0  0  0  0  0
    4.2440    0.3824   -3.3109 H   0  0  0  0  0  0  0  0  0  0  0  0
    4.9200   -0.5222   -4.6746 H   0  0  0  0  0  0  0  0  0  0  0  0
    5.3704   -0.9494   -2.9971 H   0  0  0  0  0  0  0  0  0  0  0  0
    2.1128    0.0133   -3.9470 H   0  0  0  0  0  0  0  0  0  0  0  0
    1.5474   -1.7230   -4.4025 H   0  0  0  0  0  0  0  0  0  0  0  0
    2.6672   -0.6444   -5.3546 H   0  0  0  0  0  0  0  0  0  0  0  0
  1  2  1  0
  1 30  1  0
  1 31  1  0
  1 32  1  0
  2  3  1  0
  3  8  2  0
  3  4  1  0
  4  5  2  0
  4 33  1  0
  5  6  1  0
  5 34  1  0
  6 22  1  0
  6  7  2  0
  7 21  1  0
  7  8  1  0
  8  9  1  0
  9 26  1  0
  9 10  1  0
  9 35  1  6
 11 10  1  6
 10 36  1  0
 10 37  1  0
 11 17  1  0
 11 26  1  0
 11 12  1  0
 12 13  1  0
 12 38  1  0
 12 39  1  0
 13 14  2  0
 13 15  1  0
 15 27  1  0
 15 16  1  0
 15 40  1  6
 16 17  1  0
 16 27  1  0
 16 41  1  1
 17 18  2  0
 18 25  1  0
 18 19  1  0
 19 20  2  0
 19 22  1  0
 20 21  1  0
 20 42  1  0
 21 43  1  0
 21 44  1  0
 22 23  1  0
 22 45  1  1
 23 24  1  0
 23 46  1  0
 23 47  1  0
 24 25  1  0
 24 48  1  0
 24 49  1  0
 25 26  1  0
 25 50  1  6
 26 51  1  6
 27 28  1  0
 27 29  1  0
 28 52  1  0
 28 53  1  0
 28 54  1  0
 29 55  1  0
 29 56  1  0
 29 57  1  0
M  END
>  <i_m_ct_stereo_status>  (64) 
1

>  <s_m_source_file>  (64) 
/var/tmp/pbs.5076255.sched01/tmpt68d_85j/0g9mu2vg5.sdf

>  <i_m_source_file_index>  (64) 
24

>  <i_lp_mmshare_version>  (64) 
48012

>  <i_f3d_flags>  (64) 
0

>  <s_epik_input>  (64) 
W0NIMl0xW0NIMl1bQ0BIXTJbQ0BIXTNbQ0BIXShbQ0gyXTQpYyhjKE9bQ0gzXSlbY0hdW2NIXTUpYyhbQ0gyXVtDSF02KWM1W0NIXTFDPTZDMj1DKFtDQEBdMzQ3KVtDQEBIXThbQ0BIXShDKD1PKVtDSDJdNylDOChbQ0gzXSlbQ0gzXQ==

>  <s_epik_cmdline>  (64) 
J2VwaWtfcHl0aG9uJywgJy1waHQnLCAnMi4wJywgJy1waCcsICc3LjAnLCAnLXRuJywgJzgnLCAnLW1hJywgJzIwMCcsICctaW1hZScsICc8aW5maWxlLm1hZT4nLCAnLW9tYWUnLCAnPG91dGZpbGUubWFlPic=

>  <r_lp_tautomer_probability>  (64) 
1

>  <r_epik_Ionization_Penalty>  (64) 
1.53265e-13

>  <r_epik_Ionization_Penalty_Charging>  (64) 
0

>  <r_epik_Ionization_Penalty_Neutral>  (64) 
1.53265e-13

>  <r_epik_State_Penalty>  (64) 
-0

>  <r_epik_Charging_Adjusted_Penalty>  (64) 
0

>  <i_epik_Tot_Q>  (64) 
0

>  <i_epik_Tot_abs_Q>  (64) 
0

>  <s_lp_Force_Field>  (64) 
OPLS3e

>  <r_lp_Energy>  (64) 
200.616

>  <b_lp_Chiralities_Consistent>  (64) 
1

>  <s_lp_Variant>  (64) 
16:0-1

>  <s_i_glide_gridfile>  (64) 
pfpi4k_grid

>  <i_i_glide_lignum>  (64) 
24

>  <i_i_glide_rotatable_bonds>  (64) 
1

>  <r_i_docking_score>  (64) 
-3.0137

>  <r_i_glide_ligand_efficiency>  (64) 
-0.103921

>  <r_i_glide_ligand_efficiency_sa>  (64) 
-0.319277

>  <r_i_glide_ligand_efficiency_ln>  (64) 
-0.69006

>  <r_i_glide_gscore>  (64) 
-3.0137

>  <r_i_glide_lipo>  (64) 
-1.43655

>  <r_i_glide_hbond>  (64) 
-0.0118576

>  <r_i_glide_metal>  (64) 
-0

>  <r_i_glide_rewards>  (64) 
-0.941392

>  <r_i_glide_evdw>  (64) 
-5.49159

>  <r_i_glide_ecoul>  (64) 
-2.32878

>  <r_i_glide_erotb>  (64) 
0

>  <r_i_glide_esite>  (64) 
0

>  <r_i_glide_emodel>  (64) 
-10.8823

>  <r_i_glide_energy>  (64) 
-7.82036

>  <r_i_glide_einternal>  (64) 
4.88146

>  <r_i_glide_intrahb_reward>  (64) 
-0

>  <i_i_glide_confnum>  (64) 
1

>  <i_i_glide_posenum>  (64) 
1

>  <r_i_glide_eff_state_penalty>  (64) 
0

>  <ligand_id>  (64) 
16

>  <original_smiles>  (64) 
COc1ccc2c3c1C1CC45CC(=O)C6C(C4=C4C(=CC3)C2CCC4C15)C6(C)C

>  <smiles>  (64) 
[H]C1=C2C3=C4C5([H])C([H])(C(=O)C([H])([H])C46C([H])([H])C4([H])c7c(OC([H])([H])[H])c([H])c([H])c(c7C1([H])[H])C2([H])C([H])([H])C([H])([H])C3([H])C46[H])C5(C([H])([H])[H])C([H])([H])[H]

$$$$
17:0:0
     RDKit          3D

 54 60  0  0  1  0  0  0  0  0999 V2000
    6.6062   -6.6517    2.2334 C   0  0  0  0  0  0  0  0  0  0  0  0
    5.6082   -5.6496    2.0870 O   0  0  0  0  0  0  0  0  0  0  0  0
    5.2083   -5.0195    3.3004 C   0  0  2  0  0  0  0  0  0  0  0  0
    4.2638   -5.9458    4.0862 C   0  0  0  0  0  0  0  0  0  0  0  0
    3.7194   -5.2447    5.3395 C   0  0  0  0  0  0  0  0  0  0  0  0
    3.0196   -3.9220    4.9904 C   0  0  1  0  0  0  0  0  0  0  0  0
    2.5890   -3.2744    6.1640 O   0  0  0  0  0  0  0  0  0  0  0  0
    3.9733   -2.9947    4.2281 C   0  0  0  0  0  0  0  0  0  0  0  0
    4.4855   -3.6950    2.9605 C   0  0  1  0  0  0  0  0  0  0  0  0
    5.4070   -2.7487    2.1496 C   0  0  0  0  0  0  0  0  0  0  0  0
    5.2013   -2.7764    0.6400 C   0  0  2  0  0  0  0  0  0  0  0  0
    4.8042   -1.4643   -0.0308 C   0  0  2  0  0  0  0  0  0  0  0  0
    3.3525   -1.9078    0.2157 C   0  0  0  0  0  0  0  0  0  0  0  0
    3.8775   -3.3227    0.0122 C   0  0  1  0  0  0  0  0  0  0  0  0
    3.9452   -3.8139   -1.4225 N   0  0  2  0  0  0  0  0  0  0  0  0
    5.2379   -4.4878   -1.7848 C   0  0  0  0  0  0  0  0  0  0  0  0
    6.0861   -3.4740   -2.6234 C   0  0  0  0  0  0  0  0  0  0  0  0
    5.1295   -2.3331   -2.5519 C   0  0  1  0  0  0  0  0  0  0  0  0
    5.2694   -1.2209   -1.4597 C   0  0  1  0  0  0  0  0  0  0  0  0
    4.3442   -0.4241   -2.3335 C   0  0  1  0  0  0  0  0  0  0  0  0
    4.6662   -1.2783   -3.4802 C   0  0  2  0  0  0  0  0  0  0  0  0
    3.3031   -1.4258   -2.8185 C   0  0  1  0  0  0  0  0  0  0  0  0
    3.7366   -2.8667   -2.5749 C   0  0  2  0  0  0  0  0  0  0  0  0
    3.3346   -3.6842   -3.6764 O   0  0  0  0  0  0  0  0  0  0  0  0
    6.9275   -7.0379    1.2629 H   0  0  0  0  0  0  0  0  0  0  0  0
    6.2429   -7.4985    2.8139 H   0  0  0  0  0  0  0  0  0  0  0  0
    7.4848   -6.2485    2.7363 H   0  0  0  0  0  0  0  0  0  0  0  0
    6.1039   -4.8143    3.9112 H   0  0  0  0  0  0  0  0  0  0  0  0
    3.4329   -6.2502    3.4425 H   0  0  0  0  0  0  0  0  0  0  0  0
    4.7653   -6.8620    4.3933 H   0  0  0  0  0  0  0  0  0  0  0  0
    3.0325   -5.9085    5.8627 H   0  0  0  0  0  0  0  0  0  0  0  0
    4.5507   -5.0466    6.0156 H   0  0  0  0  0  0  0  0  0  0  0  0
    2.1381   -4.1352    4.3757 H   0  0  0  0  0  0  0  0  0  0  0  0
    3.3533   -3.0860    6.6868 H   0  0  0  0  0  0  0  0  0  0  0  0
    3.4227   -2.1073    3.9211 H   0  0  0  0  0  0  0  0  0  0  0  0
    4.8016   -2.6475    4.8736 H   0  0  0  0  0  0  0  0  0  0  0  0
    3.5781   -3.9354    2.4135 H   0  0  0  0  0  0  0  0  0  0  0  0
    5.3342   -1.7155    2.5195 H   0  0  0  0  0  0  0  0  0  0  0  0
    6.4612   -2.9664    2.3595 H   0  0  0  0  0  0  0  0  0  0  0  0
    6.1158   -3.1290    0.1595 H   0  0  0  0  0  0  0  0  0  0  0  0
    5.0572   -0.6053    0.5882 H   0  0  0  0  0  0  0  0  0  0  0  0
    3.0540   -1.7193    1.2404 H   0  0  0  0  0  0  0  0  0  0  0  0
    2.6283   -1.5373   -0.4832 H   0  0  0  0  0  0  0  0  0  0  0  0
    3.3581   -4.0840    0.5902 H   0  0  0  0  0  0  0  0  0  0  0  0
    5.7205   -4.8974   -0.8952 H   0  0  0  0  0  0  0  0  0  0  0  0
    4.9845   -5.3451   -2.4153 H   0  0  0  0  0  0  0  0  0  0  0  0
    7.0520   -3.2865   -2.1257 H   0  0  0  0  0  0  0  0  0  0  0  0
    6.2239   -3.8479   -3.6336 H   0  0  0  0  0  0  0  0  0  0  0  0
    6.3051   -0.8852   -1.4222 H   0  0  0  0  0  0  0  0  0  0  0  0
    4.2692    0.6482   -2.4091 H   0  0  0  0  0  0  0  0  0  0  0  0
    4.8758   -1.0695   -4.5278 H   0  0  0  0  0  0  0  0  0  0  0  0
    2.4125   -1.1438   -3.3784 H   0  0  0  0  0  0  0  0  0  0  0  0
    3.1668   -4.5442   -3.3311 H   0  0  0  0  0  0  0  0  0  0  0  0
    3.1960   -4.4880   -1.4988 H   0  0  0  0  0  0  0  0  0  0  0  0
  1  2  1  0
  1 25  1  0
  1 26  1  0
  1 27  1  0
  2  3  1  0
  3  9  1  0
  3  4  1  0
  3 28  1  1
  4  5  1  0
  4 29  1  0
  4 30  1  0
  5  6  1  0
  5 31  1  0
  5 32  1  0
  6  7  1  0
  6  8  1  0
  6 33  1  6
  7 34  1  0
  8  9  1  0
  8 35  1  0
  8 36  1  0
  9 10  1  0
  9 37  1  6
 10 11  1  0
 10 38  1  0
 10 39  1  0
 11 14  1  0
 11 12  1  0
 11 40  1  6
 12 19  1  0
 12 13  1  0
 12 41  1  1
 13 14  1  0
 13 42  1  0
 13 43  1  0
 14 15  1  0
 14 44  1  1
 15 23  1  0
 15 16  1  0
 15 54  1  1
 16 17  1  0
 16 45  1  0
 16 46  1  0
 18 17  1  6
 17 47  1  0
 17 48  1  0
 18 21  1  0
 18 23  1  0
 18 19  1  0
 19 20  1  0
 19 49  1  1
 20 22  1  0
 20 21  1  0
 20 50  1  6
 21 22  1  0
 21 51  1  6
 22 23  1  0
 22 52  1  6
 23 24  1  6
 24 53  1  0
M  CHG  1  15   1
M  END
>  <i_m_ct_stereo_status>  (65) 
1

>  <s_m_source_file>  (65) 
/var/tmp/pbs.5076255.sched01/tmpt68d_85j/0g9mu2vg5.sdf

>  <i_m_source_file_index>  (65) 
25

>  <i_lp_mmshare_version>  (65) 
48012

>  <i_f3d_flags>  (65) 
0

>  <s_epik_input>  (65) 
W0NIM11PW0NAQEhdMVtDSDJdW0NIMl1bQ0BASF0oW09IXSlbQ0gyXVtDQEhdMVtDSDJdW0NASF0oW0NASF0yW0NASF0zW0NAXTQ1NilbQ0BASF0oW0NIMl0yKU4oW0NIMl1bQ0gyXTQpW0NAQF02KFtPSF0pW0NASF03W0NAQEhdM1tDQEBIXTU3

>  <s_epik_cmdline>  (65) 
J2VwaWtfcHl0aG9uJywgJy1waHQnLCAnMi4wJywgJy1waCcsICc3LjAnLCAnLXRuJywgJzgnLCAnLW1hJywgJzIwMCcsICctaW1hZScsICc8aW5maWxlLm1hZT4nLCAnLW9tYWUnLCAnPG91dGZpbGUubWFlPic=

>  <r_epik_Ionization_Penalty>  (65) 
0.010107

>  <r_epik_Ionization_Penalty_Charging>  (65) 
0.00956775

>  <r_epik_Ionization_Penalty_Neutral>  (65) 
0.000539252

>  <r_epik_State_Penalty>  (65) 
0.0076053

>  <r_epik_Charging_Adjusted_Penalty>  (65) 
0.0171731

>  <i_epik_Tot_Q>  (65) 
1

>  <i_epik_Tot_abs_Q>  (65) 
1

>  <s_lp_Force_Field>  (65) 
OPLS3e

>  <r_lp_Energy>  (65) 
110.382

>  <b_lp_Chiralities_Consistent>  (65) 
1

>  <s_lp_Variant>  (65) 
17:0-1

>  <s_i_glide_gridfile>  (65) 
pfpi4k_grid

>  <i_i_glide_lignum>  (65) 
25

>  <i_i_glide_rotatable_bonds>  (65) 
5

>  <r_i_docking_score>  (65) 
-3.93358

>  <r_i_glide_ligand_efficiency>  (65) 
-0.163899

>  <r_i_glide_ligand_efficiency_sa>  (65) 
-0.472767

>  <r_i_glide_ligand_efficiency_ln>  (65) 
-0.941485

>  <r_i_glide_gscore>  (65) 
-3.93358

>  <r_i_glide_lipo>  (65) 
-0.740263

>  <r_i_glide_hbond>  (65) 
-0.32

>  <r_i_glide_metal>  (65) 
-0

>  <r_i_glide_rewards>  (65) 
-1.14234

>  <r_i_glide_evdw>  (65) 
-10.211

>  <r_i_glide_ecoul>  (65) 
-10.0988

>  <r_i_glide_erotb>  (65) 
0.340814

>  <r_i_glide_esite>  (65) 
-0.0464266

>  <r_i_glide_emodel>  (65) 
-22.0505

>  <r_i_glide_energy>  (65) 
-20.3098

>  <r_i_glide_einternal>  (65) 
9.38837

>  <r_i_glide_intrahb_reward>  (65) 
-0

>  <i_i_glide_confnum>  (65) 
6

>  <i_i_glide_posenum>  (65) 
1

>  <r_i_glide_eff_state_penalty>  (65) 
0

>  <ligand_id>  (65) 
17

>  <original_smiles>  (65) 
COC1CCC(O)CC1CC1C2CC1N1CCC34C2C2C3C2C14O

>  <smiles>  (65) 
[H]OC1([H])C([H])([H])C([H])([H])C([H])(OC([H])([H])[H])C([H])(C([H])([H])C2([H])C3([H])C([H])([H])C2([H])[N+]2([H])C([H])([H])C([H])([H])C45C3([H])C3([H])C4([H])C3([H])C52O[H])C1([H])[H]

$$$$
17:0:1
     RDKit          3D

 54 60  0  0  1  0  0  0  0  0999 V2000
    0.2960    5.8278    3.2169 C   0  0  0  0  0  0  0  0  0  0  0  0
   -0.1568    6.1965    4.5152 O   0  0  0  0  0  0  0  0  0  0  0  0
    0.7664    6.4140    5.5652 C   0  0  2  0  0  0  0  0  0  0  0  0
    1.6367    7.6641    5.2874 C   0  0  0  0  0  0  0  0  0  0  0  0
    2.7119    7.8605    6.3652 C   0  0  0  0  0  0  0  0  0  0  0  0
    3.5797    6.6016    6.5100 C   0  0  1  0  0  0  0  0  0  0  0  0
    4.5204    6.7877    7.5426 O   0  0  0  0  0  0  0  0  0  0  0  0
    2.7185    5.3904    6.8748 C   0  0  0  0  0  0  0  0  0  0  0  0
    1.6596    5.1572    5.7755 C   0  0  1  0  0  0  0  0  0  0  0  0
    0.7939    3.8934    6.0848 C   0  0  0  0  0  0  0  0  0  0  0  0
    0.9195    2.7611    5.0632 C   0  0  2  0  0  0  0  0  0  0  0  0
    1.3905    1.4039    5.5799 C   0  0  2  0  0  0  0  0  0  0  0  0
    2.8139    1.8917    5.1921 C   0  0  0  0  0  0  0  0  0  0  0  0
    2.1231    2.6620    4.0552 C   0  0  1  0  0  0  0  0  0  0  0  0
    1.8755    1.8763    2.8074 N   0  0  2  0  0  0  0  0  0  0  0  0
    0.4880    2.0120    2.2042 C   0  0  0  0  0  0  0  0  0  0  0  0
   -0.2915    0.7055    2.5442 C   0  0  0  0  0  0  0  0  0  0  0  0
    0.7501    0.0216    3.3597 C   0  0  1  0  0  0  0  0  0  0  0  0
    0.8388    0.1303    4.9520 C   0  0  1  0  0  0  0  0  0  0  0  0
    1.8044   -1.0108    4.8309 C   0  0  1  0  0  0  0  0  0  0  0  0
    1.3203   -1.3473    3.5200 C   0  0  2  0  0  0  0  0  0  0  0  0
    2.6691   -0.7020    3.6201 C   0  0  1  0  0  0  0  0  0  0  0  0
    2.0813    0.3965    2.7285 C   0  0  2  0  0  0  0  0  0  0  0  0
    2.3678    0.2158    1.3612 O   0  0  0  0  0  0  0  0  0  0  0  0
   -0.5400    5.7848    2.5131 H   0  0  0  0  0  0  0  0  0  0  0  0
    0.7532    4.8421    3.2104 H   0  0  0  0  0  0  0  0  0  0  0  0
    1.0219    6.5264    2.7988 H   0  0  0  0  0  0  0  0  0  0  0  0
    0.1878    6.6174    6.4734 H   0  0  0  0  0  0  0  0  0  0  0  0
    2.1552    7.5698    4.3340 H   0  0  0  0  0  0  0  0  0  0  0  0
    0.9956    8.5456    5.2044 H   0  0  0  0  0  0  0  0  0  0  0  0
    3.3335    8.7120    6.0856 H   0  0  0  0  0  0  0  0  0  0  0  0
    2.2287    8.0916    7.3103 H   0  0  0  0  0  0  0  0  0  0  0  0
    4.1160    6.4076    5.5801 H   0  0  0  0  0  0  0  0  0  0  0  0
    4.0483    6.8468    8.3462 H   0  0  0  0  0  0  0  0  0  0  0  0
    3.3603    4.5191    6.9150 H   0  0  0  0  0  0  0  0  0  0  0  0
    2.2761    5.4942    7.8630 H   0  0  0  0  0  0  0  0  0  0  0  0
    2.2325    5.0681    4.8966 H   0  0  0  0  0  0  0  0  0  0  0  0
    0.9956    3.5255    7.0921 H   0  0  0  0  0  0  0  0  0  0  0  0
   -0.2566    4.1517    6.1838 H   0  0  0  0  0  0  0  0  0  0  0  0
   -0.0488    2.5995    4.6058 H   0  0  0  0  0  0  0  0  0  0  0  0
    1.3108    1.3412    6.6646 H   0  0  0  0  0  0  0  0  0  0  0  0
    3.2105    2.5623    5.9426 H   0  0  0  0  0  0  0  0  0  0  0  0
    3.5868    1.1521    4.9317 H   0  0  0  0  0  0  0  0  0  0  0  0
    2.6689    3.5565    3.8107 H   0  0  0  0  0  0  0  0  0  0  0  0
   -0.0318    2.9121    2.5155 H   0  0  0  0  0  0  0  0  0  0  0  0
    0.5874    2.0846    1.1349 H   0  0  0  0  0  0  0  0  0  0  0  0
   -1.1989    0.9339    3.1298 H   0  0  0  0  0  0  0  0  0  0  0  0
   -0.5782    0.1422    1.6320 H   0  0  0  0  0  0  0  0  0  0  0  0
   -0.1347   -0.1452    5.3849 H   0  0  0  0  0  0  0  0  0  0  0  0
    2.0147   -1.7385    5.6306 H   0  0  0  0  0  0  0  0  0  0  0  0
    1.1014   -2.2860    2.9791 H   0  0  0  0  0  0  0  0  0  0  0  0
    3.5749   -1.2502    3.3202 H   0  0  0  0  0  0  0  0  0  0  0  0
    1.6747   -0.3064    0.9778 H   0  0  0  0  0  0  0  0  0  0  0  0
    2.5419    2.2365    2.1229 H   0  0  0  0  0  0  0  0  0  0  0  0
  1  2  1  0
  1 25  1  0
  1 26  1  0
  1 27  1  0
  2  3  1  0
  3  9  1  0
  3  4  1  0
  3 28  1  1
  4  5  1  0
  4 29  1  0
  4 30  1  0
  5  6  1  0
  5 31  1  0
  5 32  1  0
  6  7  1  0
  6  8  1  0
  6 33  1  6
  7 34  1  0
  8  9  1  0
  8 35  1  0
  8 36  1  0
  9 10  1  0
  9 37  1  6
 10 11  1  0
 10 38  1  0
 10 39  1  0
 11 14  1  0
 11 12  1  0
 11 40  1  6
 12 19  1  0
 12 13  1  0
 12 41  1  1
 13 14  1  0
 13 42  1  0
 13 43  1  0
 14 15  1  0
 14 44  1  6
 15 23  1  0
 15 16  1  0
 15 54  1  6
 16 17  1  0
 16 45  1  0
 16 46  1  0
 18 17  1  6
 17 47  1  0
 17 48  1  0
 18 21  1  0
 18 23  1  0
 18 19  1  0
 19 20  1  0
 19 49  1  1
 20 22  1  0
 20 21  1  0
 20 50  1  1
 21 22  1  0
 21 51  1  1
 22 23  1  0
 22 52  1  1
 23 24  1  6
 24 53  1  0
M  CHG  1  15   1
M  END
>  <i_m_ct_stereo_status>  (66) 
1

>  <s_m_source_file>  (66) 
/var/tmp/pbs.5076255.sched01/tmpt68d_85j/0g9mu2vg5.sdf

>  <i_m_source_file_index>  (66) 
25

>  <i_lp_mmshare_version>  (66) 
48012

>  <i_f3d_flags>  (66) 
0

>  <s_epik_input>  (66) 
W0NIM11PW0NAQEhdMVtDSDJdW0NIMl1bQ0BASF0oW09IXSlbQ0gyXVtDQEhdMVtDSDJdW0NASF0oW0NASF0yW0NASF0zW0NAXTQ1NilbQ0BASF0oW0NIMl0yKU4oW0NIMl1bQ0gyXTQpW0NAQF02KFtPSF0pW0NASF03W0NAQEhdM1tDQEBIXTU3

>  <s_epik_cmdline>  (66) 
J2VwaWtfcHl0aG9uJywgJy1waHQnLCAnMi4wJywgJy1waCcsICc3LjAnLCAnLXRuJywgJzgnLCAnLW1hJywgJzIwMCcsICctaW1hZScsICc8aW5maWxlLm1hZT4nLCAnLW9tYWUnLCAnPG91dGZpbGUubWFlPic=

>  <r_epik_Ionization_Penalty>  (66) 
0.010107

>  <r_epik_Ionization_Penalty_Charging>  (66) 
0.00956775

>  <r_epik_Ionization_Penalty_Neutral>  (66) 
0.000539252

>  <r_epik_State_Penalty>  (66) 
0.0076053

>  <r_epik_Charging_Adjusted_Penalty>  (66) 
0.0171731

>  <i_epik_Tot_Q>  (66) 
1

>  <i_epik_Tot_abs_Q>  (66) 
1

>  <s_lp_Force_Field>  (66) 
OPLS3e

>  <r_lp_Energy>  (66) 
110.382

>  <b_lp_Chiralities_Consistent>  (66) 
1

>  <s_lp_Variant>  (66) 
17:0-1

>  <s_i_glide_gridfile>  (66) 
pfpi4k_grid

>  <i_i_glide_lignum>  (66) 
25

>  <i_i_glide_rotatable_bonds>  (66) 
5

>  <r_i_docking_score>  (66) 
-2.75509

>  <r_i_glide_ligand_efficiency>  (66) 
-0.114795

>  <r_i_glide_ligand_efficiency_sa>  (66) 
-0.331127

>  <r_i_glide_ligand_efficiency_ln>  (66) 
-0.659418

>  <r_i_glide_gscore>  (66) 
-2.75509

>  <r_i_glide_lipo>  (66) 
-0.0102925

>  <r_i_glide_hbond>  (66) 
-0.132008

>  <r_i_glide_metal>  (66) 
-0

>  <r_i_glide_rewards>  (66) 
-1.14234

>  <r_i_glide_evdw>  (66) 
-12.9531

>  <r_i_glide_ecoul>  (66) 
-7.58812

>  <r_i_glide_erotb>  (66) 
0.340814

>  <r_i_glide_esite>  (66) 
-0.0253899

>  <r_i_glide_emodel>  (66) 
-18.0727

>  <r_i_glide_energy>  (66) 
-20.5412

>  <r_i_glide_einternal>  (66) 
13.1766

>  <r_i_glide_intrahb_reward>  (66) 
-0

>  <i_i_glide_confnum>  (66) 
1

>  <i_i_glide_posenum>  (66) 
15

>  <r_i_glide_eff_state_penalty>  (66) 
0

>  <ligand_id>  (66) 
17

>  <original_smiles>  (66) 
COC1CCC(O)CC1CC1C2CC1N1CCC34C2C2C3C2C14O

>  <smiles>  (66) 
[H]OC1([H])C([H])([H])C([H])([H])C([H])(OC([H])([H])[H])C([H])(C([H])([H])C2([H])C3([H])C([H])([H])C2([H])[N+]2([H])C([H])([H])C([H])([H])C45C3([H])C3([H])C4([H])C3([H])C52O[H])C1([H])[H]

$$$$
21:0:0
     RDKit          3D

 26 27  0  0  1  0  0  0  0  0999 V2000
   -3.1967    2.9437   10.4522 C   0  0  0  0  0  0  0  0  0  0  0  0
   -2.9267    4.1041    9.4930 C   0  0  0  0  0  0  0  0  0  0  0  0
   -2.0999    3.6981    8.2675 C   0  0  0  0  0  0  0  0  0  0  0  0
   -2.8145    2.6933    7.3459 C   0  0  0  0  0  0  0  0  0  0  0  0
   -2.1943    2.6281    6.0391 N   0  0  0  0  0  0  0  0  0  0  0  0
   -2.1849    3.7385    5.2466 N   0  0  0  0  0  0  0  0  0  0  0  0
   -1.5712    3.4615    4.1393 N   0  0  0  0  0  0  0  0  0  0  0  0
   -1.1771    2.1365    4.1986 C   0  0  0  0  0  0  0  0  0  0  0  0
   -0.4684    1.2884    3.3204 C   0  0  0  0  0  0  0  0  0  0  0  0
    0.0317    1.7032    2.0847 N   0  0  0  0  0  0  0  0  0  0  0  0
   -0.2531    0.0094    3.7125 N   0  0  0  0  0  0  0  0  0  0  0  0
   -0.7142   -0.4134    4.8976 C   0  0  0  0  0  0  0  0  0  0  0  0
   -1.4019    0.2639    5.8291 N   0  0  0  0  0  0  0  0  0  0  0  0
   -1.5903    1.5548    5.4166 C   0  0  0  0  0  0  0  0  0  0  0  0
   -3.7870    3.2791   11.3039 H   0  0  0  0  0  0  0  0  0  0  0  0
   -2.2693    2.5200   10.8394 H   0  0  0  0  0  0  0  0  0  0  0  0
   -3.7519    2.1478    9.9609 H   0  0  0  0  0  0  0  0  0  0  0  0
   -3.8701    4.5452    9.1713 H   0  0  0  0  0  0  0  0  0  0  0  0
   -2.3959    4.8894   10.0297 H   0  0  0  0  0  0  0  0  0  0  0  0
   -1.8687    4.6070    7.7144 H   0  0  0  0  0  0  0  0  0  0  0  0
   -1.1401    3.2826    8.5767 H   0  0  0  0  0  0  0  0  0  0  0  0
   -2.7900    1.6999    7.7938 H   0  0  0  0  0  0  0  0  0  0  0  0
   -3.8658    2.9486    7.2155 H   0  0  0  0  0  0  0  0  0  0  0  0
   -0.0920    2.6546    1.7312 H   0  0  0  0  0  0  0  0  0  0  0  0
   -0.4988   -1.4445    5.1370 H   0  0  0  0  0  0  0  0  0  0  0  0
    0.5002    1.0626    1.4584 H   0  0  0  0  0  0  0  0  0  0  0  0
  1  2  1  0
  1 15  1  0
  1 16  1  0
  1 17  1  0
  2  3  1  0
  2 18  1  0
  2 19  1  0
  3  4  1  0
  3 20  1  0
  3 21  1  0
  4  5  1  0
  4 22  1  0
  4 23  1  0
  5 14  1  0
  5  6  1  0
  6  7  2  0
  7  8  1  0
  8 14  2  0
  8  9  1  0
  9 10  1  0
  9 11  2  0
 10 24  1  0
 10 26  1  0
 11 12  1  0
 12 13  2  0
 12 25  1  0
 13 14  1  0
M  END
>  <i_m_ct_stereo_status>  (67) 
1

>  <s_m_source_file>  (67) 
/var/tmp/pbs.5076255.sched01/tmpt68d_85j/0g9mu2vg5.sdf

>  <i_m_source_file_index>  (67) 
30

>  <i_lp_mmshare_version>  (67) 
48012

>  <i_f3d_flags>  (67) 
0

>  <s_epik_input>  (67) 
W0NIM11bQ0gyXVtDSDJdW0NIMl1uKG5uMSljKGMxMiluW2NIXVtuSF1jXDI9TlxbSF0=

>  <s_epik_cmdline>  (67) 
J2VwaWtfcHl0aG9uJywgJy1waHQnLCAnMi4wJywgJy1waCcsICc3LjAnLCAnLXRuJywgJzgnLCAnLW1hJywgJzIwMCcsICctaW1hZScsICc8aW5maWxlLm1hZT4nLCAnLW9tYWUnLCAnPG91dGZpbGUubWFlPic=

>  <r_lp_tautomer_probability>  (67) 
1

>  <r_epik_Ionization_Penalty>  (67) 
2.47443e-05

>  <r_epik_Ionization_Penalty_Charging>  (67) 
0

>  <r_epik_Ionization_Penalty_Neutral>  (67) 
2.47443e-05

>  <r_epik_State_Penalty>  (67) 
-0

>  <r_epik_Charging_Adjusted_Penalty>  (67) 
0

>  <i_epik_Tot_Q>  (67) 
0

>  <i_epik_Tot_abs_Q>  (67) 
0

>  <s_lp_Force_Field>  (67) 
OPLS3e

>  <r_lp_Energy>  (67) 
13.188

>  <b_lp_Chiralities_Consistent>  (67) 
1

>  <s_lp_Variant>  (67) 
21:0-1

>  <s_i_glide_gridfile>  (67) 
pfpi4k_grid

>  <i_i_glide_lignum>  (67) 
30

>  <i_i_glide_rotatable_bonds>  (67) 
3

>  <r_i_docking_score>  (67) 
-3.39397

>  <r_i_glide_ligand_efficiency>  (67) 
-0.242427

>  <r_i_glide_ligand_efficiency_sa>  (67) 
-0.584283

>  <r_i_glide_ligand_efficiency_ln>  (67) 
-0.932652

>  <r_i_glide_gscore>  (67) 
-3.39397

>  <r_i_glide_lipo>  (67) 
-0.211887

>  <r_i_glide_hbond>  (67) 
-0.16

>  <r_i_glide_metal>  (67) 
-0

>  <r_i_glide_rewards>  (67) 
-2.21586

>  <r_i_glide_evdw>  (67) 
-19.0748

>  <r_i_glide_ecoul>  (67) 
-3.53265

>  <r_i_glide_erotb>  (67) 
0.872335

>  <r_i_glide_esite>  (67) 
-0.194925

>  <r_i_glide_emodel>  (67) 
-26.8515

>  <r_i_glide_energy>  (67) 
-22.6074

>  <r_i_glide_einternal>  (67) 
1.97131

>  <r_i_glide_intrahb_reward>  (67) 
-0

>  <i_i_glide_confnum>  (67) 
1

>  <i_i_glide_posenum>  (67) 
37

>  <r_i_glide_eff_state_penalty>  (67) 
0

>  <ligand_id>  (67) 
21

>  <original_smiles>  (67) 
CCCCn1nnc2c(=N)[nH]cnc21

>  <smiles>  (67) 
[H]c1nc(N([H])[H])c2nnn(C([H])([H])C([H])([H])C([H])([H])C([H])([H])[H])c2n1

$$$$
21:0:1
     RDKit          3D

 26 27  0  0  1  0  0  0  0  0999 V2000
   -2.1857    4.4575   10.7668 C   0  0  0  0  0  0  0  0  0  0  0  0
   -2.8816    3.4821    9.8098 C   0  0  0  0  0  0  0  0  0  0  0  0
   -2.2668    3.5096    8.4041 C   0  0  0  0  0  0  0  0  0  0  0  0
   -2.9654    2.5627    7.4133 C   0  0  0  0  0  0  0  0  0  0  0  0
   -2.2982    2.5515    6.1269 N   0  0  0  0  0  0  0  0  0  0  0  0
   -2.1902    3.7092    5.4111 N   0  0  0  0  0  0  0  0  0  0  0  0
   -1.5379    3.4682    4.3127 N   0  0  0  0  0  0  0  0  0  0  0  0
   -1.2206    2.1217    4.2999 C   0  0  0  0  0  0  0  0  0  0  0  0
   -0.5185    1.2880    3.3991 C   0  0  0  0  0  0  0  0  0  0  0  0
    0.0639    1.7458    2.2174 N   0  0  0  0  0  0  0  0  0  0  0  0
   -0.3895   -0.0204    3.7159 N   0  0  0  0  0  0  0  0  0  0  0  0
   -0.9262   -0.4886    4.8524 C   0  0  0  0  0  0  0  0  0  0  0  0
   -1.6147    0.1696    5.7959 N   0  0  0  0  0  0  0  0  0  0  0  0
   -1.7193    1.4917    5.4584 C   0  0  0  0  0  0  0  0  0  0  0  0
   -2.6278    4.4045   11.7616 H   0  0  0  0  0  0  0  0  0  0  0  0
   -2.2699    5.4882   10.4200 H   0  0  0  0  0  0  0  0  0  0  0  0
   -1.1254    4.2248   10.8714 H   0  0  0  0  0  0  0  0  0  0  0  0
   -2.8219    2.4753   10.2246 H   0  0  0  0  0  0  0  0  0  0  0  0
   -3.9403    3.7307    9.7477 H   0  0  0  0  0  0  0  0  0  0  0  0
   -2.3080    4.5270    8.0166 H   0  0  0  0  0  0  0  0  0  0  0  0
   -1.2124    3.2395    8.4630 H   0  0  0  0  0  0  0  0  0  0  0  0
   -2.9667    1.5472    7.8039 H   0  0  0  0  0  0  0  0  0  0  0  0
   -4.0092    2.8458    7.2681 H   0  0  0  0  0  0  0  0  0  0  0  0
   -0.0120    2.7169    1.9048 H   0  0  0  0  0  0  0  0  0  0  0  0
   -0.7810   -1.5468    5.0275 H   0  0  0  0  0  0  0  0  0  0  0  0
    0.5217    1.1185    1.5685 H   0  0  0  0  0  0  0  0  0  0  0  0
  1  2  1  0
  1 15  1  0
  1 16  1  0
  1 17  1  0
  2  3  1  0
  2 18  1  0
  2 19  1  0
  3  4  1  0
  3 20  1  0
  3 21  1  0
  4  5  1  0
  4 22  1  0
  4 23  1  0
  5 14  1  0
  5  6  1  0
  6  7  2  0
  7  8  1  0
  8 14  2  0
  8  9  1  0
  9 10  1  0
  9 11  2  0
 10 24  1  0
 10 26  1  0
 11 12  1  0
 12 13  2  0
 12 25  1  0
 13 14  1  0
M  END
>  <i_m_ct_stereo_status>  (68) 
1

>  <s_m_source_file>  (68) 
/var/tmp/pbs.5076255.sched01/tmpt68d_85j/0g9mu2vg5.sdf

>  <i_m_source_file_index>  (68) 
30

>  <i_lp_mmshare_version>  (68) 
48012

>  <i_f3d_flags>  (68) 
0

>  <s_epik_input>  (68) 
W0NIM11bQ0gyXVtDSDJdW0NIMl1uKG5uMSljKGMxMiluW2NIXVtuSF1jXDI9TlxbSF0=

>  <s_epik_cmdline>  (68) 
J2VwaWtfcHl0aG9uJywgJy1waHQnLCAnMi4wJywgJy1waCcsICc3LjAnLCAnLXRuJywgJzgnLCAnLW1hJywgJzIwMCcsICctaW1hZScsICc8aW5maWxlLm1hZT4nLCAnLW9tYWUnLCAnPG91dGZpbGUubWFlPic=

>  <r_lp_tautomer_probability>  (68) 
1

>  <r_epik_Ionization_Penalty>  (68) 
2.47443e-05

>  <r_epik_Ionization_Penalty_Charging>  (68) 
0

>  <r_epik_Ionization_Penalty_Neutral>  (68) 
2.47443e-05

>  <r_epik_State_Penalty>  (68) 
-0

>  <r_epik_Charging_Adjusted_Penalty>  (68) 
0

>  <i_epik_Tot_Q>  (68) 
0

>  <i_epik_Tot_abs_Q>  (68) 
0

>  <s_lp_Force_Field>  (68) 
OPLS3e

>  <r_lp_Energy>  (68) 
13.188

>  <b_lp_Chiralities_Consistent>  (68) 
1

>  <s_lp_Variant>  (68) 
21:0-1

>  <s_i_glide_gridfile>  (68) 
pfpi4k_grid

>  <i_i_glide_lignum>  (68) 
30

>  <i_i_glide_rotatable_bonds>  (68) 
3

>  <r_i_docking_score>  (68) 
-3.35595

>  <r_i_glide_ligand_efficiency>  (68) 
-0.239711

>  <r_i_glide_ligand_efficiency_sa>  (68) 
-0.577736

>  <r_i_glide_ligand_efficiency_ln>  (68) 
-0.922202

>  <r_i_glide_gscore>  (68) 
-3.35595

>  <r_i_glide_lipo>  (68) 
-0.197322

>  <r_i_glide_hbond>  (68) 
-0.182683

>  <r_i_glide_metal>  (68) 
-0

>  <r_i_glide_rewards>  (68) 
-2.22184

>  <r_i_glide_evdw>  (68) 
-18.093

>  <r_i_glide_ecoul>  (68) 
-3.52578

>  <r_i_glide_erotb>  (68) 
0.872335

>  <r_i_glide_esite>  (68) 
-0.192915

>  <r_i_glide_emodel>  (68) 
-26.6534

>  <r_i_glide_energy>  (68) 
-21.6188

>  <r_i_glide_einternal>  (68) 
0.448915

>  <r_i_glide_intrahb_reward>  (68) 
-0

>  <i_i_glide_confnum>  (68) 
1

>  <i_i_glide_posenum>  (68) 
15

>  <r_i_glide_eff_state_penalty>  (68) 
0

>  <ligand_id>  (68) 
21

>  <original_smiles>  (68) 
CCCCn1nnc2c(=N)[nH]cnc21

>  <smiles>  (68) 
[H]c1nc(N([H])[H])c2nnn(C([H])([H])C([H])([H])C([H])([H])C([H])([H])[H])c2n1

$$$$
21:0:2
     RDKit          3D

 26 27  0  0  1  0  0  0  0  0999 V2000
   -3.7674    3.3883    9.6716 C   0  0  0  0  0  0  0  0  0  0  0  0
   -2.3731    2.8122    9.4032 C   0  0  0  0  0  0  0  0  0  0  0  0
   -1.8672    3.0803    7.9773 C   0  0  0  0  0  0  0  0  0  0  0  0
   -2.7362    2.4316    6.8883 C   0  0  0  0  0  0  0  0  0  0  0  0
   -2.0729    2.4477    5.6057 N   0  0  0  0  0  0  0  0  0  0  0  0
   -2.0785    3.5879    4.8588 N   0  0  0  0  0  0  0  0  0  0  0  0
   -1.3902    3.3781    3.7725 N   0  0  0  0  0  0  0  0  0  0  0  0
   -0.9291    2.0721    3.8089 C   0  0  0  0  0  0  0  0  0  0  0  0
   -0.1265    1.2827    2.9525 C   0  0  0  0  0  0  0  0  0  0  0  0
    0.4211    1.7417    1.7596 N   0  0  0  0  0  0  0  0  0  0  0  0
    0.1454    0.0110    3.3237 N   0  0  0  0  0  0  0  0  0  0  0  0
   -0.3479   -0.4682    4.4741 C   0  0  0  0  0  0  0  0  0  0  0  0
   -1.1227    0.1479    5.3781 N   0  0  0  0  0  0  0  0  0  0  0  0
   -1.3717    1.4331    4.9866 C   0  0  0  0  0  0  0  0  0  0  0  0
   -4.0690    3.1960   10.7017 H   0  0  0  0  0  0  0  0  0  0  0  0
   -4.5207    2.9444    9.0229 H   0  0  0  0  0  0  0  0  0  0  0  0
   -3.7802    4.4664    9.5092 H   0  0  0  0  0  0  0  0  0  0  0  0
   -1.6703    3.2487   10.1145 H   0  0  0  0  0  0  0  0  0  0  0  0
   -2.3694    1.7448    9.6027 H   0  0  0  0  0  0  0  0  0  0  0  0
   -1.8023    4.1532    7.7998 H   0  0  0  0  0  0  0  0  0  0  0  0
   -0.8507    2.6959    7.8968 H   0  0  0  0  0  0  0  0  0  0  0  0
   -2.9593    1.3973    7.1423 H   0  0  0  0  0  0  0  0  0  0  0  0
   -3.6927    2.9461    6.7902 H   0  0  0  0  0  0  0  0  0  0  0  0
    0.2323    2.6959    1.4158 H   0  0  0  0  0  0  0  0  0  0  0  0
   -0.0898   -1.4965    4.6939 H   0  0  0  0  0  0  0  0  0  0  0  0
    0.9278    1.1390    1.1292 H   0  0  0  0  0  0  0  0  0  0  0  0
  1  2  1  0
  1 15  1  0
  1 16  1  0
  1 17  1  0
  2  3  1  0
  2 18  1  0
  2 19  1  0
  3  4  1  0
  3 20  1  0
  3 21  1  0
  4  5  1  0
  4 22  1  0
  4 23  1  0
  5 14  1  0
  5  6  1  0
  6  7  2  0
  7  8  1  0
  8 14  2  0
  8  9  1  0
  9 10  1  0
  9 11  2  0
 10 24  1  0
 10 26  1  0
 11 12  1  0
 12 13  2  0
 12 25  1  0
 13 14  1  0
M  END
>  <i_m_ct_stereo_status>  (69) 
1

>  <s_m_source_file>  (69) 
/var/tmp/pbs.5076255.sched01/tmpt68d_85j/0g9mu2vg5.sdf

>  <i_m_source_file_index>  (69) 
30

>  <i_lp_mmshare_version>  (69) 
48012

>  <i_f3d_flags>  (69) 
0

>  <s_epik_input>  (69) 
W0NIM11bQ0gyXVtDSDJdW0NIMl1uKG5uMSljKGMxMiluW2NIXVtuSF1jXDI9TlxbSF0=

>  <s_epik_cmdline>  (69) 
J2VwaWtfcHl0aG9uJywgJy1waHQnLCAnMi4wJywgJy1waCcsICc3LjAnLCAnLXRuJywgJzgnLCAnLW1hJywgJzIwMCcsICctaW1hZScsICc8aW5maWxlLm1hZT4nLCAnLW9tYWUnLCAnPG91dGZpbGUubWFlPic=

>  <r_lp_tautomer_probability>  (69) 
1

>  <r_epik_Ionization_Penalty>  (69) 
2.47443e-05

>  <r_epik_Ionization_Penalty_Charging>  (69) 
0

>  <r_epik_Ionization_Penalty_Neutral>  (69) 
2.47443e-05

>  <r_epik_State_Penalty>  (69) 
-0

>  <r_epik_Charging_Adjusted_Penalty>  (69) 
0

>  <i_epik_Tot_Q>  (69) 
0

>  <i_epik_Tot_abs_Q>  (69) 
0

>  <s_lp_Force_Field>  (69) 
OPLS3e

>  <r_lp_Energy>  (69) 
13.188

>  <b_lp_Chiralities_Consistent>  (69) 
1

>  <s_lp_Variant>  (69) 
21:0-1

>  <s_i_glide_gridfile>  (69) 
pfpi4k_grid

>  <i_i_glide_lignum>  (69) 
30

>  <i_i_glide_rotatable_bonds>  (69) 
3

>  <r_i_docking_score>  (69) 
-3.28227

>  <r_i_glide_ligand_efficiency>  (69) 
-0.234448

>  <r_i_glide_ligand_efficiency_sa>  (69) 
-0.565052

>  <r_i_glide_ligand_efficiency_ln>  (69) 
-0.901955

>  <r_i_glide_gscore>  (69) 
-3.28227

>  <r_i_glide_lipo>  (69) 
-0.181909

>  <r_i_glide_hbond>  (69) 
-0.16

>  <r_i_glide_metal>  (69) 
-0

>  <r_i_glide_rewards>  (69) 
-2.1436

>  <r_i_glide_evdw>  (69) 
-18.5591

>  <r_i_glide_ecoul>  (69) 
-3.55231

>  <r_i_glide_erotb>  (69) 
0.872335

>  <r_i_glide_esite>  (69) 
-0.208295

>  <r_i_glide_emodel>  (69) 
-26.6092

>  <r_i_glide_energy>  (69) 
-22.1114

>  <r_i_glide_einternal>  (69) 
1.26198

>  <r_i_glide_intrahb_reward>  (69) 
-0

>  <i_i_glide_confnum>  (69) 
1

>  <i_i_glide_posenum>  (69) 
12

>  <r_i_glide_eff_state_penalty>  (69) 
0

>  <ligand_id>  (69) 
21

>  <original_smiles>  (69) 
CCCCn1nnc2c(=N)[nH]cnc21

>  <smiles>  (69) 
[H]c1nc(N([H])[H])c2nnn(C([H])([H])C([H])([H])C([H])([H])C([H])([H])[H])c2n1

$$$$
22:0:0
     RDKit          3D

 59 61  0  0  1  0  0  0  0  0999 V2000
   -0.4916   -8.7438    2.4869 C   0  0  0  0  0  0  0  0  0  0  0  0
    0.1078   -7.5705    1.7148 C   0  0  0  0  0  0  0  0  0  0  0  0
    1.4606   -7.4311    2.1043 O   0  0  0  0  0  0  0  0  0  0  0  0
    2.1765   -6.3819    1.6571 C   0  0  0  0  0  0  0  0  0  0  0  0
    1.7184   -5.4891    0.9436 O   0  0  0  0  0  0  0  0  0  0  0  0
    3.5644   -6.3678    2.1800 C   0  0  0  0  0  0  0  0  0  0  0  0
    4.6216   -6.0531    1.3830 C   0  0  0  0  0  0  0  0  0  0  0  0
    4.5154   -5.6378   -0.0790 C   0  0  0  0  0  0  0  0  0  0  0  0
    4.7849   -4.2607   -0.1797 O   0  0  0  0  0  0  0  0  0  0  0  0
    4.1559   -3.6108   -1.2710 C   0  0  0  0  0  0  0  0  0  0  0  0
    4.7628   -2.1985   -1.4007 C   0  0  0  0  0  0  0  0  0  0  0  0
    4.7066   -1.4815   -0.1396 N   0  0  0  0  0  0  0  0  0  0  0  0
    3.6013   -0.9586    0.4832 C   0  0  0  0  0  0  0  0  0  0  0  0
    4.0936   -0.4526    1.6528 C   0  0  0  0  0  0  0  0  0  0  0  0
    5.4684   -0.6699    1.6741 N   0  0  0  0  0  0  0  0  0  0  0  0
    5.8211   -1.2940    0.6009 N   0  0  0  0  0  0  0  0  0  0  0  0
    5.9334   -6.1094    1.8798 N   0  0  0  0  0  0  0  0  0  0  0  0
    6.2006   -6.1940    3.1257 C   0  0  0  0  0  0  0  0  0  0  0  0
    7.6354   -6.2700    3.6440 C   0  0  0  0  0  0  0  0  0  0  0  0
    5.1319   -6.2153    4.2169 C   0  0  1  0  0  0  0  0  0  0  0  0
    5.1309   -4.8340    4.9030 C   0  0  0  0  0  0  0  0  0  0  0  0
    5.0720   -3.7791    4.2696 O   0  0  0  0  0  0  0  0  0  0  0  0
    5.2181   -4.9258    6.2337 O   0  0  0  0  0  0  0  0  0  0  0  0
    5.0707   -3.7441    7.0023 C   0  0  0  0  0  0  0  0  0  0  0  0
    3.7386   -6.6582    3.6806 C   0  0  1  0  0  0  0  0  0  0  0  0
    2.5923   -6.1167    4.5451 C   0  0  0  0  0  0  0  0  0  0  0  0
    2.0441   -6.8748    5.5944 C   0  0  0  0  0  0  0  0  0  0  0  0
    0.9942   -6.3442    6.3745 C   0  0  0  0  0  0  0  0  0  0  0  0
    0.4879   -5.0447    6.1135 C   0  0  0  0  0  0  0  0  0  0  0  0
   -0.5973   -4.4702    6.9305 N   0  0  0  0  0  0  0  0  0  0  0  0
   -1.0385   -3.3600    6.6272 O   0  0  0  0  0  0  0  0  0  0  0  0
   -1.0205   -5.1124    7.8753 O   0  0  0  0  0  0  0  0  0  0  0  0
    1.0481   -4.2916    5.0668 C   0  0  0  0  0  0  0  0  0  0  0  0
    2.0903   -4.8198    4.2993 C   0  0  0  0  0  0  0  0  0  0  0  0
   -1.5135   -8.9392    2.1536 H   0  0  0  0  0  0  0  0  0  0  0  0
   -0.5026   -8.5401    3.5621 H   0  0  0  0  0  0  0  0  0  0  0  0
    0.1069   -9.6432    2.3185 H   0  0  0  0  0  0  0  0  0  0  0  0
    0.0992   -7.7602    0.6429 H   0  0  0  0  0  0  0  0  0  0  0  0
   -0.4653   -6.6580    1.9026 H   0  0  0  0  0  0  0  0  0  0  0  0
    5.2754   -6.1573   -0.6638 H   0  0  0  0  0  0  0  0  0  0  0  0
    3.5214   -5.8418   -0.4655 H   0  0  0  0  0  0  0  0  0  0  0  0
    4.3199   -4.1616   -2.1987 H   0  0  0  0  0  0  0  0  0  0  0  0
    3.0766   -3.5442   -1.1144 H   0  0  0  0  0  0  0  0  0  0  0  0
    5.8129   -2.2904   -1.7104 H   0  0  0  0  0  0  0  0  0  0  0  0
    4.2407   -1.6076   -2.1655 H   0  0  0  0  0  0  0  0  0  0  0  0
    2.6146   -0.9996    0.0681 H   0  0  0  0  0  0  0  0  0  0  0  0
    3.5813    0.0416    2.4493 H   0  0  0  0  0  0  0  0  0  0  0  0
    7.8175   -7.2177    4.1496 H   0  0  0  0  0  0  0  0  0  0  0  0
    7.8470   -5.4759    4.3617 H   0  0  0  0  0  0  0  0  0  0  0  0
    8.3571   -6.1718    2.8336 H   0  0  0  0  0  0  0  0  0  0  0  0
    5.4500   -6.9381    4.9668 H   0  0  0  0  0  0  0  0  0  0  0  0
    5.1745   -3.9807    8.0622 H   0  0  0  0  0  0  0  0  0  0  0  0
    4.0831   -3.3011    6.8416 H   0  0  0  0  0  0  0  0  0  0  0  0
    5.8306   -3.0112    6.7233 H   0  0  0  0  0  0  0  0  0  0  0  0
    3.7164   -7.7454    3.7550 H   0  0  0  0  0  0  0  0  0  0  0  0
    2.4181   -7.8600    5.8117 H   0  0  0  0  0  0  0  0  0  0  0  0
    0.5903   -6.9284    7.1848 H   0  0  0  0  0  0  0  0  0  0  0  0
    0.7064   -3.2921    4.8420 H   0  0  0  0  0  0  0  0  0  0  0  0
    2.4867   -4.2222    3.4915 H   0  0  0  0  0  0  0  0  0  0  0  0
  1  2  1  0
  1 35  1  0
  1 36  1  0
  1 37  1  0
  2  3  1  0
  2 38  1  0
  2 39  1  0
  3  4  1  0
  4  5  2  0
  4  6  1  0
  6 25  1  0
  6  7  2  0
  7  8  1  0
  7 17  1  0
  8  9  1  0
  8 40  1  0
  8 41  1  0
  9 10  1  0
 10 11  1  0
 10 42  1  0
 10 43  1  0
 11 12  1  0
 11 44  1  0
 11 45  1  0
 12 16  1  0
 12 13  1  0
 13 14  2  0
 13 46  1  0
 14 15  1  0
 14 47  1  0
 15 16  2  0
 17 18  2  0
 18 19  1  0
 18 20  1  0
 19 48  1  0
 19 49  1  0
 19 50  1  0
 20 21  1  0
 20 25  1  0
 20 51  1  1
 21 22  2  0
 21 23  1  0
 23 24  1  0
 24 52  1  0
 24 53  1  0
 24 54  1  0
 25 26  1  0
 25 55  1  6
 26 34  1  0
 26 27  2  0
 27 28  1  0
 27 56  1  0
 28 29  2  0
 28 57  1  0
 29 30  1  0
 29 33  1  0
 30 31  2  0
 30 32  1  0
 33 34  2  0
 33 58  1  0
 34 59  1  0
M  CHG  2  30   1  32  -1
M  END
>  <i_m_ct_stereo_status>  (70) 
1

>  <s_m_source_file>  (70) 
/var/tmp/pbs.5076255.sched01/tmpt68d_85j/0g9mu2vg5.sdf

>  <i_m_source_file_index>  (70) 
31

>  <i_lp_mmshare_version>  (70) 
48012

>  <i_f3d_flags>  (70) 
0

>  <s_epik_input>  (70) 
bjFuW2NIXVtjSF1uMVtDSDJdW0NIMl1PW0NIMl1DKD1DMkMoPU8pT1tDSDJdW0NIM10pTj1DKFtDSDNdKVtDQEBIXShDKD1PKU9bQ0gzXSlbQ0BIXTJjM1tjSF1bY0hdYyhbTitdKD1PKVtPLV0pW2NIXVtjSF0z

>  <s_epik_cmdline>  (70) 
J2VwaWtfcHl0aG9uJywgJy1waHQnLCAnMi4wJywgJy1waCcsICc3LjAnLCAnLXRuJywgJzgnLCAnLW1hJywgJzIwMCcsICctaW1hZScsICc8aW5maWxlLm1hZT4nLCAnLW9tYWUnLCAnPG91dGZpbGUubWFlPic=

>  <r_lp_tautomer_probability>  (70) 
0.499993

>  <r_epik_Ionization_Penalty>  (70) 
1.73905e-05

>  <r_epik_Ionization_Penalty_Charging>  (70) 
0

>  <r_epik_Ionization_Penalty_Neutral>  (70) 
1.73905e-05

>  <r_epik_State_Penalty>  (70) 
0.41068

>  <r_epik_Charging_Adjusted_Penalty>  (70) 
0.41068

>  <i_epik_Tot_Q>  (70) 
0

>  <i_epik_Tot_abs_Q>  (70) 
2

>  <s_epik_Chemistry_Notes>  (70) 
This compound has an ester and may undergo hydrolysis at high or low pH. This compound has an imine and may undergo hydrolysis.

>  <s_lp_Force_Field>  (70) 
OPLS3e

>  <r_lp_Energy>  (70) 
38.422

>  <b_lp_Chiralities_Consistent>  (70) 
1

>  <s_lp_Variant>  (70) 
22:0-1

>  <s_i_glide_gridfile>  (70) 
pfpi4k_grid

>  <i_i_glide_lignum>  (70) 
31

>  <i_i_glide_rotatable_bonds>  (70) 
12

>  <r_i_docking_score>  (70) 
-2.12373

>  <r_i_glide_ligand_efficiency>  (70) 
-0.0624626

>  <r_i_glide_ligand_efficiency_sa>  (70) 
-0.202354

>  <r_i_glide_ligand_efficiency_ln>  (70) 
-0.469191

>  <r_i_glide_gscore>  (70) 
-2.12373

>  <r_i_glide_lipo>  (70) 
-0.170018

>  <r_i_glide_hbond>  (70) 
-0.111208

>  <r_i_glide_metal>  (70) 
-0

>  <r_i_glide_rewards>  (70) 
-0.203018

>  <r_i_glide_evdw>  (70) 
-30.5235

>  <r_i_glide_ecoul>  (70) 
-5.0242

>  <r_i_glide_erotb>  (70) 
0.727478

>  <r_i_glide_esite>  (70) 
-0.0871543

>  <r_i_glide_emodel>  (70) 
-37.5825

>  <r_i_glide_energy>  (70) 
-35.5477

>  <r_i_glide_einternal>  (70) 
5.1223

>  <r_i_glide_intrahb_reward>  (70) 
-0

>  <i_i_glide_confnum>  (70) 
19

>  <i_i_glide_posenum>  (70) 
35

>  <r_i_glide_eff_state_penalty>  (70) 
0

>  <ligand_id>  (70) 
22

>  <original_smiles>  (70) 
CCOC(=O)C1=C(COCCn2ccnn2)N=C(C)C(C(=O)OC)C1c1ccc([N+](=O)[O-])cc1

>  <smiles>  (70) 
[H]c1nnn(C([H])([H])C([H])([H])OC([H])([H])C2=C(C(=O)OC([H])([H])C([H])([H])[H])C([H])(c3c([H])c([H])c([N+](=O)[O-])c([H])c3[H])C([H])(C(=O)OC([H])([H])[H])C(C([H])([H])[H])=N2)c1[H]

$$$$
22:0:1
     RDKit          3D

 59 61  0  0  1  0  0  0  0  0999 V2000
    1.4340    4.1129    3.1952 C   0  0  0  0  0  0  0  0  0  0  0  0
    2.1172    2.9121    2.5787 C   0  0  0  0  0  0  0  0  0  0  0  0
    1.8903    1.8346    3.4788 O   0  0  0  0  0  0  0  0  0  0  0  0
    0.7976    1.0424    3.3307 C   0  0  0  0  0  0  0  0  0  0  0  0
   -0.0167    1.1779    2.4251 O   0  0  0  0  0  0  0  0  0  0  0  0
    0.7708   -0.0842    4.3253 C   0  0  0  0  0  0  0  0  0  0  0  0
   -0.3964   -0.5411    4.8561 C   0  0  0  0  0  0  0  0  0  0  0  0
   -1.7549    0.0304    4.5064 C   0  0  0  0  0  0  0  0  0  0  0  0
   -1.9027    1.3206    5.0559 O   0  0  0  0  0  0  0  0  0  0  0  0
   -1.9590    1.3397    6.4733 C   0  0  0  0  0  0  0  0  0  0  0  0
   -2.3315    2.7560    6.9356 C   0  0  0  0  0  0  0  0  0  0  0  0
   -1.3901    3.7510    6.4958 N   0  0  0  0  0  0  0  0  0  0  0  0
   -0.3510    4.3309    7.1878 C   0  0  0  0  0  0  0  0  0  0  0  0
    0.2074    5.1687    6.2873 C   0  0  0  0  0  0  0  0  0  0  0  0
   -0.5362    5.1097    5.1106 N   0  0  0  0  0  0  0  0  0  0  0  0
   -1.4516    4.2595    5.2259 N   0  0  0  0  0  0  0  0  0  0  0  0
   -0.4253   -1.5588    5.8261 N   0  0  0  0  0  0  0  0  0  0  0  0
    0.6006   -2.2555    6.1091 C   0  0  0  0  0  0  0  0  0  0  0  0
    0.5705   -3.3077    7.2037 C   0  0  0  0  0  0  0  0  0  0  0  0
    1.9341   -2.1255    5.3775 C   0  0  1  0  0  0  0  0  0  0  0  0
    2.0363   -3.3069    4.3876 C   0  0  0  0  0  0  0  0  0  0  0  0
    1.0853   -3.6994    3.7112 O   0  0  0  0  0  0  0  0  0  0  0  0
    3.2846   -3.7829    4.3230 O   0  0  0  0  0  0  0  0  0  0  0  0
    3.5977   -4.7470    3.3359 C   0  0  0  0  0  0  0  0  0  0  0  0
    2.1105   -0.7425    4.6740 C   0  0  1  0  0  0  0  0  0  0  0  0
    3.0634   -0.8261    3.4766 C   0  0  0  0  0  0  0  0  0  0  0  0
    4.4403   -0.5885    3.6236 C   0  0  0  0  0  0  0  0  0  0  0  0
    5.2927   -0.6900    2.5031 C   0  0  0  0  0  0  0  0  0  0  0  0
    4.7649   -1.0266    1.2293 C   0  0  0  0  0  0  0  0  0  0  0  0
    5.6430   -1.1326    0.0591 N   0  0  0  0  0  0  0  0  0  0  0  0
    5.1372   -1.0608   -1.0595 O   0  0  0  0  0  0  0  0  0  0  0  0
    6.8412   -1.2873    0.2449 O   0  0  0  0  0  0  0  0  0  0  0  0
    3.3862   -1.2688    1.0903 C   0  0  0  0  0  0  0  0  0  0  0  0
    2.5502   -1.1827    2.2038 C   0  0  0  0  0  0  0  0  0  0  0  0
    1.5722    5.0141    2.5979 H   0  0  0  0  0  0  0  0  0  0  0  0
    1.8316    4.2826    4.2010 H   0  0  0  0  0  0  0  0  0  0  0  0
    0.3644    3.9203    3.2983 H   0  0  0  0  0  0  0  0  0  0  0  0
    1.6958    2.7150    1.5912 H   0  0  0  0  0  0  0  0  0  0  0  0
    3.1970    3.0699    2.4539 H   0  0  0  0  0  0  0  0  0  0  0  0
   -1.8115    0.1037    3.4214 H   0  0  0  0  0  0  0  0  0  0  0  0
   -2.5793   -0.6178    4.8238 H   0  0  0  0  0  0  0  0  0  0  0  0
   -2.7201    0.6252    6.8112 H   0  0  0  0  0  0  0  0  0  0  0  0
   -1.0041    1.0466    6.9164 H   0  0  0  0  0  0  0  0  0  0  0  0
   -3.3167    3.0103    6.5321 H   0  0  0  0  0  0  0  0  0  0  0  0
   -2.4025    2.7827    8.0198 H   0  0  0  0  0  0  0  0  0  0  0  0
   -0.1092    4.0830    8.2302 H   0  0  0  0  0  0  0  0  0  0  0  0
    1.0735    5.7862    6.3639 H   0  0  0  0  0  0  0  0  0  0  0  0
    1.2864   -3.0717    7.9930 H   0  0  0  0  0  0  0  0  0  0  0  0
    0.8306   -4.2840    6.7946 H   0  0  0  0  0  0  0  0  0  0  0  0
   -0.4238   -3.3911    7.6467 H   0  0  0  0  0  0  0  0  0  0  0  0
    2.7358   -2.2468    6.1097 H   0  0  0  0  0  0  0  0  0  0  0  0
    4.6585   -4.9893    3.3942 H   0  0  0  0  0  0  0  0  0  0  0  0
    3.3851   -4.3782    2.3285 H   0  0  0  0  0  0  0  0  0  0  0  0
    3.0162   -5.6507    3.5153 H   0  0  0  0  0  0  0  0  0  0  0  0
    2.5675   -0.0696    5.4023 H   0  0  0  0  0  0  0  0  0  0  0  0
    4.8499   -0.3329    4.5882 H   0  0  0  0  0  0  0  0  0  0  0  0
    6.3474   -0.5160    2.6219 H   0  0  0  0  0  0  0  0  0  0  0  0
    2.9461   -1.5367    0.1380 H   0  0  0  0  0  0  0  0  0  0  0  0
    1.5007   -1.3866    2.0750 H   0  0  0  0  0  0  0  0  0  0  0  0
  1  2  1  0
  1 35  1  0
  1 36  1  0
  1 37  1  0
  2  3  1  0
  2 38  1  0
  2 39  1  0
  3  4  1  0
  4  5  2  0
  4  6  1  0
  6 25  1  0
  6  7  2  0
  7  8  1  0
  7 17  1  0
  8  9  1  0
  8 40  1  0
  8 41  1  0
  9 10  1  0
 10 11  1  0
 10 42  1  0
 10 43  1  0
 11 12  1  0
 11 44  1  0
 11 45  1  0
 12 16  1  0
 12 13  1  0
 13 14  2  0
 13 46  1  0
 14 15  1  0
 14 47  1  0
 15 16  2  0
 17 18  2  0
 18 19  1  0
 18 20  1  0
 19 48  1  0
 19 49  1  0
 19 50  1  0
 20 21  1  0
 20 25  1  0
 20 51  1  1
 21 22  2  0
 21 23  1  0
 23 24  1  0
 24 52  1  0
 24 53  1  0
 24 54  1  0
 25 26  1  0
 25 55  1  1
 26 34  1  0
 26 27  2  0
 27 28  1  0
 27 56  1  0
 28 29  2  0
 28 57  1  0
 29 30  1  0
 29 33  1  0
 30 31  2  0
 30 32  1  0
 33 34  2  0
 33 58  1  0
 34 59  1  0
M  CHG  2  30   1  32  -1
M  END
>  <i_m_ct_stereo_status>  (71) 
1

>  <s_m_source_file>  (71) 
/var/tmp/pbs.5076255.sched01/tmpt68d_85j/0g9mu2vg5.sdf

>  <i_m_source_file_index>  (71) 
31

>  <i_lp_mmshare_version>  (71) 
48012

>  <i_f3d_flags>  (71) 
0

>  <s_epik_input>  (71) 
bjFuW2NIXVtjSF1uMVtDSDJdW0NIMl1PW0NIMl1DKD1DMkMoPU8pT1tDSDJdW0NIM10pTj1DKFtDSDNdKVtDQEBIXShDKD1PKU9bQ0gzXSlbQ0BIXTJjM1tjSF1bY0hdYyhbTitdKD1PKVtPLV0pW2NIXVtjSF0z

>  <s_epik_cmdline>  (71) 
J2VwaWtfcHl0aG9uJywgJy1waHQnLCAnMi4wJywgJy1waCcsICc3LjAnLCAnLXRuJywgJzgnLCAnLW1hJywgJzIwMCcsICctaW1hZScsICc8aW5maWxlLm1hZT4nLCAnLW9tYWUnLCAnPG91dGZpbGUubWFlPic=

>  <r_lp_tautomer_probability>  (71) 
0.499993

>  <r_epik_Ionization_Penalty>  (71) 
1.73905e-05

>  <r_epik_Ionization_Penalty_Charging>  (71) 
0

>  <r_epik_Ionization_Penalty_Neutral>  (71) 
1.73905e-05

>  <r_epik_State_Penalty>  (71) 
0.41068

>  <r_epik_Charging_Adjusted_Penalty>  (71) 
0.41068

>  <i_epik_Tot_Q>  (71) 
0

>  <i_epik_Tot_abs_Q>  (71) 
2

>  <s_epik_Chemistry_Notes>  (71) 
This compound has an ester and may undergo hydrolysis at high or low pH. This compound has an imine and may undergo hydrolysis.

>  <s_lp_Force_Field>  (71) 
OPLS3e

>  <r_lp_Energy>  (71) 
38.422

>  <b_lp_Chiralities_Consistent>  (71) 
1

>  <s_lp_Variant>  (71) 
22:0-1

>  <s_i_glide_gridfile>  (71) 
pfpi4k_grid

>  <i_i_glide_lignum>  (71) 
31

>  <i_i_glide_rotatable_bonds>  (71) 
12

>  <r_i_docking_score>  (71) 
-1.75822

>  <r_i_glide_ligand_efficiency>  (71) 
-0.0517124

>  <r_i_glide_ligand_efficiency_sa>  (71) 
-0.167528

>  <r_i_glide_ligand_efficiency_ln>  (71) 
-0.38844

>  <r_i_glide_gscore>  (71) 
-1.75822

>  <r_i_glide_lipo>  (71) 
-0.367043

>  <r_i_glide_hbond>  (71) 
0

>  <r_i_glide_metal>  (71) 
-0

>  <r_i_glide_rewards>  (71) 
-0.248556

>  <r_i_glide_evdw>  (71) 
-31.3665

>  <r_i_glide_ecoul>  (71) 
-0.654758

>  <r_i_glide_erotb>  (71) 
0.727478

>  <r_i_glide_esite>  (71) 
-0.203561

>  <r_i_glide_emodel>  (71) 
-32.9731

>  <r_i_glide_energy>  (71) 
-32.0213

>  <r_i_glide_einternal>  (71) 
2.7068

>  <r_i_glide_intrahb_reward>  (71) 
-0

>  <i_i_glide_confnum>  (71) 
2

>  <i_i_glide_posenum>  (71) 
23

>  <r_i_glide_eff_state_penalty>  (71) 
0

>  <ligand_id>  (71) 
22

>  <original_smiles>  (71) 
CCOC(=O)C1=C(COCCn2ccnn2)N=C(C)C(C(=O)OC)C1c1ccc([N+](=O)[O-])cc1

>  <smiles>  (71) 
[H]c1nnn(C([H])([H])C([H])([H])OC([H])([H])C2=C(C(=O)OC([H])([H])C([H])([H])[H])C([H])(c3c([H])c([H])c([N+](=O)[O-])c([H])c3[H])C([H])(C(=O)OC([H])([H])[H])C(C([H])([H])[H])=N2)c1[H]

$$$$
22:0:2
     RDKit          3D

 59 61  0  0  1  0  0  0  0  0999 V2000
    2.3933    1.5989    2.3189 C   0  0  0  0  0  0  0  0  0  0  0  0
    2.9382    0.4549    1.4531 C   0  0  0  0  0  0  0  0  0  0  0  0
    3.2168   -0.6368    2.3117 O   0  0  0  0  0  0  0  0  0  0  0  0
    2.2301   -1.4498    2.7582 C   0  0  0  0  0  0  0  0  0  0  0  0
    1.0189   -1.2241    2.5468 O   0  0  0  0  0  0  0  0  0  0  0  0
    2.7132   -2.6537    3.4385 C   0  0  0  0  0  0  0  0  0  0  0  0
    2.0725   -3.1847    4.5078 C   0  0  0  0  0  0  0  0  0  0  0  0
    0.7737   -2.6110    5.0786 C   0  0  0  0  0  0  0  0  0  0  0  0
    0.1053   -3.5787    5.8584 O   0  0  0  0  0  0  0  0  0  0  0  0
   -1.0961   -3.1044    6.4295 C   0  0  0  0  0  0  0  0  0  0  0  0
   -1.7542   -4.2990    7.1226 C   0  0  0  0  0  0  0  0  0  0  0  0
   -0.9309   -4.7422    8.2516 N   0  0  0  0  0  0  0  0  0  0  0  0
    0.1509   -5.5931    8.2183 C   0  0  0  0  0  0  0  0  0  0  0  0
    0.5527   -5.5874    9.5544 C   0  0  0  0  0  0  0  0  0  0  0  0
   -0.2761   -4.7911   10.2702 N   0  0  0  0  0  0  0  0  0  0  0  0
   -1.1787   -4.2562    9.4720 N   0  0  0  0  0  0  0  0  0  0  0  0
    2.5697   -4.3025    5.1867 N   0  0  0  0  0  0  0  0  0  0  0  0
    3.5073   -5.0370    4.7123 C   0  0  0  0  0  0  0  0  0  0  0  0
    4.0533   -6.2299    5.4758 C   0  0  0  0  0  0  0  0  0  0  0  0
    4.1361   -4.8012    3.3498 C   0  0  1  0  0  0  0  0  0  0  0  0
    3.5514   -5.8615    2.4008 C   0  0  0  0  0  0  0  0  0  0  0  0
    2.3409   -5.9233    2.1555 O   0  0  0  0  0  0  0  0  0  0  0  0
    4.4903   -6.6635    1.8859 O   0  0  0  0  0  0  0  0  0  0  0  0
    4.1273   -7.5755    0.8669 C   0  0  0  0  0  0  0  0  0  0  0  0
    3.9604   -3.3397    2.8437 C   0  0  1  0  0  0  0  0  0  0  0  0
    4.0007   -3.2675    1.3134 C   0  0  0  0  0  0  0  0  0  0  0  0
    5.2119   -2.9948    0.6305 C   0  0  0  0  0  0  0  0  0  0  0  0
    5.2173   -2.9361   -0.7742 C   0  0  0  0  0  0  0  0  0  0  0  0
    4.0201   -3.1424   -1.5062 C   0  0  0  0  0  0  0  0  0  0  0  0
    4.0139   -3.0797   -2.9814 N   0  0  0  0  0  0  0  0  0  0  0  0
    2.9375   -3.0490   -3.5733 O   0  0  0  0  0  0  0  0  0  0  0  0
    5.0942   -3.0542   -3.5392 O   0  0  0  0  0  0  0  0  0  0  0  0
    2.8304   -3.4177   -0.8265 C   0  0  0  0  0  0  0  0  0  0  0  0
    2.8296   -3.4757    0.5789 C   0  0  0  0  0  0  0  0  0  0  0  0
    2.1696    2.4753    1.7144 H   0  0  0  0  0  0  0  0  0  0  0  0
    3.1218    1.8659    3.0851 H   0  0  0  0  0  0  0  0  0  0  0  0
    1.4719    1.3191    2.8338 H   0  0  0  0  0  0  0  0  0  0  0  0
    2.2191    0.1469    0.6867 H   0  0  0  0  0  0  0  0  0  0  0  0
    3.8525    0.7539    0.9318 H   0  0  0  0  0  0  0  0  0  0  0  0
    1.0192   -1.7442    5.6965 H   0  0  0  0  0  0  0  0  0  0  0  0
    0.0902   -2.3076    4.3027 H   0  0  0  0  0  0  0  0  0  0  0  0
   -0.8639   -2.3070    7.1352 H   0  0  0  0  0  0  0  0  0  0  0  0
   -1.7729   -2.6785    5.6772 H   0  0  0  0  0  0  0  0  0  0  0  0
   -2.7529   -4.0619    7.4854 H   0  0  0  0  0  0  0  0  0  0  0  0
   -1.8388   -5.1415    6.4411 H   0  0  0  0  0  0  0  0  0  0  0  0
    0.5331   -6.0701    7.3504 H   0  0  0  0  0  0  0  0  0  0  0  0
    1.3837   -6.1131    9.9970 H   0  0  0  0  0  0  0  0  0  0  0  0
    5.1108   -6.0936    5.7073 H   0  0  0  0  0  0  0  0  0  0  0  0
    3.9597   -7.1512    4.8957 H   0  0  0  0  0  0  0  0  0  0  0  0
    3.5171   -6.3839    6.4125 H   0  0  0  0  0  0  0  0  0  0  0  0
    5.2042   -5.0059    3.4292 H   0  0  0  0  0  0  0  0  0  0  0  0
    4.9797   -8.2057    0.6088 H   0  0  0  0  0  0  0  0  0  0  0  0
    3.8207   -7.0163   -0.0191 H   0  0  0  0  0  0  0  0  0  0  0  0
    3.2960   -8.2087    1.1845 H   0  0  0  0  0  0  0  0  0  0  0  0
    4.8035   -2.7639    3.2214 H   0  0  0  0  0  0  0  0  0  0  0  0
    6.1234   -2.8393    1.1816 H   0  0  0  0  0  0  0  0  0  0  0  0
    6.1454   -2.7345   -1.2908 H   0  0  0  0  0  0  0  0  0  0  0  0
    1.9070   -3.5854   -1.3532 H   0  0  0  0  0  0  0  0  0  0  0  0
    1.8898   -3.6382    1.0827 H   0  0  0  0  0  0  0  0  0  0  0  0
  1  2  1  0
  1 35  1  0
  1 36  1  0
  1 37  1  0
  2  3  1  0
  2 38  1  0
  2 39  1  0
  3  4  1  0
  4  5  2  0
  4  6  1  0
  6 25  1  0
  6  7  2  0
  7  8  1  0
  7 17  1  0
  8  9  1  0
  8 40  1  0
  8 41  1  0
  9 10  1  0
 10 11  1  0
 10 42  1  0
 10 43  1  0
 11 12  1  0
 11 44  1  0
 11 45  1  0
 12 16  1  0
 12 13  1  0
 13 14  2  0
 13 46  1  0
 14 15  1  0
 14 47  1  0
 15 16  2  0
 17 18  2  0
 18 19  1  0
 18 20  1  0
 19 48  1  0
 19 49  1  0
 19 50  1  0
 20 21  1  0
 20 25  1  0
 20 51  1  1
 21 22  2  0
 21 23  1  0
 23 24  1  0
 24 52  1  0
 24 53  1  0
 24 54  1  0
 25 26  1  0
 25 55  1  1
 26 34  1  0
 26 27  2  0
 27 28  1  0
 27 56  1  0
 28 29  2  0
 28 57  1  0
 29 30  1  0
 29 33  1  0
 30 31  2  0
 30 32  1  0
 33 34  2  0
 33 58  1  0
 34 59  1  0
M  CHG  2  30   1  32  -1
M  END
>  <i_m_ct_stereo_status>  (72) 
1

>  <s_m_source_file>  (72) 
/var/tmp/pbs.5076255.sched01/tmpt68d_85j/0g9mu2vg5.sdf

>  <i_m_source_file_index>  (72) 
31

>  <i_lp_mmshare_version>  (72) 
48012

>  <i_f3d_flags>  (72) 
0

>  <s_epik_input>  (72) 
bjFuW2NIXVtjSF1uMVtDSDJdW0NIMl1PW0NIMl1DKD1DMkMoPU8pT1tDSDJdW0NIM10pTj1DKFtDSDNdKVtDQEBIXShDKD1PKU9bQ0gzXSlbQ0BIXTJjM1tjSF1bY0hdYyhbTitdKD1PKVtPLV0pW2NIXVtjSF0z

>  <s_epik_cmdline>  (72) 
J2VwaWtfcHl0aG9uJywgJy1waHQnLCAnMi4wJywgJy1waCcsICc3LjAnLCAnLXRuJywgJzgnLCAnLW1hJywgJzIwMCcsICctaW1hZScsICc8aW5maWxlLm1hZT4nLCAnLW9tYWUnLCAnPG91dGZpbGUubWFlPic=

>  <r_lp_tautomer_probability>  (72) 
0.499993

>  <r_epik_Ionization_Penalty>  (72) 
1.73905e-05

>  <r_epik_Ionization_Penalty_Charging>  (72) 
0

>  <r_epik_Ionization_Penalty_Neutral>  (72) 
1.73905e-05

>  <r_epik_State_Penalty>  (72) 
0.41068

>  <r_epik_Charging_Adjusted_Penalty>  (72) 
0.41068

>  <i_epik_Tot_Q>  (72) 
0

>  <i_epik_Tot_abs_Q>  (72) 
2

>  <s_epik_Chemistry_Notes>  (72) 
This compound has an ester and may undergo hydrolysis at high or low pH. This compound has an imine and may undergo hydrolysis.

>  <s_lp_Force_Field>  (72) 
OPLS3e

>  <r_lp_Energy>  (72) 
38.422

>  <b_lp_Chiralities_Consistent>  (72) 
1

>  <s_lp_Variant>  (72) 
22:0-1

>  <s_i_glide_gridfile>  (72) 
pfpi4k_grid

>  <i_i_glide_lignum>  (72) 
31

>  <i_i_glide_rotatable_bonds>  (72) 
12

>  <r_i_docking_score>  (72) 
-1.66987

>  <r_i_glide_ligand_efficiency>  (72) 
-0.0491137

>  <r_i_glide_ligand_efficiency_sa>  (72) 
-0.159109

>  <r_i_glide_ligand_efficiency_ln>  (72) 
-0.36892

>  <r_i_glide_gscore>  (72) 
-1.66987

>  <r_i_glide_lipo>  (72) 
-0.377966

>  <r_i_glide_hbond>  (72) 
0

>  <r_i_glide_metal>  (72) 
-0

>  <r_i_glide_rewards>  (72) 
-0.239148

>  <r_i_glide_evdw>  (72) 
-34.1745

>  <r_i_glide_ecoul>  (72) 
-0.0592278

>  <r_i_glide_erotb>  (72) 
0.727478

>  <r_i_glide_esite>  (72) 
-0.0626187

>  <r_i_glide_emodel>  (72) 
-35.2634

>  <r_i_glide_energy>  (72) 
-34.2338

>  <r_i_glide_einternal>  (72) 
3.8889

>  <r_i_glide_intrahb_reward>  (72) 
-0

>  <i_i_glide_confnum>  (72) 
6

>  <i_i_glide_posenum>  (72) 
26

>  <r_i_glide_eff_state_penalty>  (72) 
0

>  <ligand_id>  (72) 
22

>  <original_smiles>  (72) 
CCOC(=O)C1=C(COCCn2ccnn2)N=C(C)C(C(=O)OC)C1c1ccc([N+](=O)[O-])cc1

>  <smiles>  (72) 
[H]c1nnn(C([H])([H])C([H])([H])OC([H])([H])C2=C(C(=O)OC([H])([H])C([H])([H])[H])C([H])(c3c([H])c([H])c([N+](=O)[O-])c([H])c3[H])C([H])(C(=O)OC([H])([H])[H])C(C([H])([H])[H])=N2)c1[H]

$$$$
22:1:0
     RDKit          3D

 59 61  0  0  1  0  0  0  0  0999 V2000
    1.8336   -2.9396   -3.2402 C   0  0  0  0  0  0  0  0  0  0  0  0
    1.5146   -3.8415   -2.0310 C   0  0  0  0  0  0  0  0  0  0  0  0
    2.5976   -3.7511   -1.1138 O   0  0  0  0  0  0  0  0  0  0  0  0
    2.6289   -4.5825   -0.0750 C   0  0  0  0  0  0  0  0  0  0  0  0
    1.7520   -5.4702    0.1071 O   0  0  0  0  0  0  0  0  0  0  0  0
    3.8128   -4.3849    0.8878 C   0  0  1  0  0  0  0  0  0  0  0  0
    3.5063   -3.5932    2.1950 C   0  0  0  0  0  0  0  0  0  0  0  0
    2.2199   -2.8136    2.1931 C   0  0  0  0  0  0  0  0  0  0  0  0
    1.9959   -2.0982    3.3870 O   0  0  0  0  0  0  0  0  0  0  0  0
    1.6916   -2.9074    4.5203 C   0  0  0  0  0  0  0  0  0  0  0  0
    1.2807   -1.9579    5.6345 C   0  0  0  0  0  0  0  0  0  0  0  0
   -0.0493   -1.4628    5.4158 N   0  0  0  0  0  0  0  0  0  0  0  0
   -0.4761   -0.3911    4.6728 C   0  0  0  0  0  0  0  0  0  0  0  0
   -1.8063   -0.3695    4.8749 C   0  0  0  0  0  0  0  0  0  0  0  0
   -2.1544   -1.4345    5.7076 N   0  0  0  0  0  0  0  0  0  0  0  0
   -1.0949   -2.1028    5.9872 N   0  0  0  0  0  0  0  0  0  0  0  0
    4.2178   -3.6778    3.2627 N   0  0  0  0  0  0  0  0  0  0  0  0
    5.2787   -4.5824    3.3936 C   0  0  0  0  0  0  0  0  0  0  0  0
    5.8127   -4.6995    4.6215 C   0  0  0  0  0  0  0  0  0  0  0  0
    5.7535   -5.4130    2.1953 C   0  0  1  0  0  0  0  0  0  0  0  0
    6.4925   -6.7682    2.5280 C   0  0  0  0  0  0  0  0  0  0  0  0
    6.0885   -7.5470    3.3940 O   0  0  0  0  0  0  0  0  0  0  0  0
    7.5253   -7.1010    1.7394 O   0  0  0  0  0  0  0  0  0  0  0  0
    8.0041   -6.2288    0.7456 C   0  0  0  0  0  0  0  0  0  0  0  0
    4.5698   -5.6915    1.2302 C   0  0  1  0  0  0  0  0  0  0  0  0
    3.6349   -6.7968    1.7561 C   0  0  0  0  0  0  0  0  0  0  0  0
    3.4802   -7.9957    1.0214 C   0  0  0  0  0  0  0  0  0  0  0  0
    2.5461   -8.9978    1.4157 C   0  0  0  0  0  0  0  0  0  0  0  0
    1.8165   -8.7944    2.6173 C   0  0  0  0  0  0  0  0  0  0  0  0
    0.8258   -9.7906    3.0820 N   0  0  0  0  0  0  0  0  0  0  0  0
    0.6925  -10.8516    2.5091 O   0  0  0  0  0  0  0  0  0  0  0  0
    0.1701   -9.4981    4.0883 O   0  0  0  0  0  0  0  0  0  0  0  0
    2.0409   -7.6184    3.3899 C   0  0  0  0  0  0  0  0  0  0  0  0
    2.9279   -6.6106    2.9750 C   0  0  0  0  0  0  0  0  0  0  0  0
    1.0621   -3.0123   -4.0160 H   0  0  0  0  0  0  0  0  0  0  0  0
    2.7899   -3.1981   -3.7079 H   0  0  0  0  0  0  0  0  0  0  0  0
    1.8934   -1.8998   -2.9059 H   0  0  0  0  0  0  0  0  0  0  0  0
    0.5911   -3.4933   -1.5371 H   0  0  0  0  0  0  0  0  0  0  0  0
    1.3784   -4.8928   -2.3351 H   0  0  0  0  0  0  0  0  0  0  0  0
    1.4710   -3.5903    2.1582 H   0  0  0  0  0  0  0  0  0  0  0  0
    2.1176   -2.1710    1.3090 H   0  0  0  0  0  0  0  0  0  0  0  0
    0.9009   -3.6471    4.3401 H   0  0  0  0  0  0  0  0  0  0  0  0
    2.5938   -3.4162    4.8450 H   0  0  0  0  0  0  0  0  0  0  0  0
    1.3119   -2.4747    6.6042 H   0  0  0  0  0  0  0  0  0  0  0  0
    1.9647   -1.0999    5.6780 H   0  0  0  0  0  0  0  0  0  0  0  0
    0.1917    0.2225    4.0756 H   0  0  0  0  0  0  0  0  0  0  0  0
   -2.5624    0.2761    4.4823 H   0  0  0  0  0  0  0  0  0  0  0  0
    5.4286   -4.1281    5.4365 H   0  0  0  0  0  0  0  0  0  0  0  0
    4.5267   -3.8040    0.2881 H   0  0  0  0  0  0  0  0  0  0  0  0
    6.6115   -5.3978    4.8181 H   0  0  0  0  0  0  0  0  0  0  0  0
    6.4278   -4.7287    1.6665 H   0  0  0  0  0  0  0  0  0  0  0  0
    8.8454   -6.6650    0.2128 H   0  0  0  0  0  0  0  0  0  0  0  0
    8.2809   -5.2784    1.2090 H   0  0  0  0  0  0  0  0  0  0  0  0
    7.1945   -6.0432    0.0439 H   0  0  0  0  0  0  0  0  0  0  0  0
    4.9779   -6.0427    0.2787 H   0  0  0  0  0  0  0  0  0  0  0  0
    4.0322   -8.1339    0.1084 H   0  0  0  0  0  0  0  0  0  0  0  0
    2.3531   -9.8588    0.7702 H   0  0  0  0  0  0  0  0  0  0  0  0
    1.4870   -7.4865    4.3098 H   0  0  0  0  0  0  0  0  0  0  0  0
    3.0854   -5.7041    3.5699 H   0  0  0  0  0  0  0  0  0  0  0  0
  1  2  1  0
  1 35  1  0
  1 36  1  0
  1 37  1  0
  2  3  1  0
  2 38  1  0
  2 39  1  0
  3  4  1  0
  4  5  2  0
  4  6  1  0
  6 25  1  0
  6 49  1  6
  6  7  1  0
  7  8  1  0
  7 17  2  0
  8  9  1  0
  8 40  1  0
  8 41  1  0
  9 10  1  0
 10 11  1  0
 10 42  1  0
 10 43  1  0
 11 12  1  0
 11 44  1  0
 11 45  1  0
 12 16  1  0
 12 13  1  0
 13 14  2  0
 13 46  1  0
 14 15  1  0
 14 47  1  0
 15 16  2  0
 17 18  1  0
 18 20  1  0
 18 19  2  0
 19 48  1  0
 19 50  1  0
 20 21  1  0
 20 25  1  0
 20 51  1  6
 21 22  2  0
 21 23  1  0
 23 24  1  0
 24 52  1  0
 24 53  1  0
 24 54  1  0
 25 26  1  0
 25 55  1  6
 26 34  1  0
 26 27  2  0
 27 28  1  0
 27 56  1  0
 28 29  2  0
 28 57  1  0
 29 30  1  0
 29 33  1  0
 30 31  2  0
 30 32  1  0
 33 34  2  0
 33 58  1  0
 34 59  1  0
M  CHG  2  30   1  32  -1
M  END
>  <i_m_ct_stereo_status>  (73) 
1

>  <s_m_source_file>  (73) 
/var/tmp/pbs.5076255.sched01/tmpt68d_85j/0g9mu2vg5.sdf

>  <i_m_source_file_index>  (73) 
32

>  <i_lp_mmshare_version>  (73) 
48012

>  <i_f3d_flags>  (73) 
0

>  <s_epik_input>  (73) 
bjFuW2NIXVtjSF1uMVtDSDJdW0NIMl1PW0NIMl1DKD1DMkMoPU8pT1tDSDJdW0NIM10pTj1DKFtDSDNdKVtDQEBIXShDKD1PKU9bQ0gzXSlbQ0BIXTJjM1tjSF1bY0hdYyhbTitdKD1PKVtPLV0pW2NIXVtjSF0z

>  <s_epik_cmdline>  (73) 
J2VwaWtfcHl0aG9uJywgJy1waHQnLCAnMi4wJywgJy1waCcsICc3LjAnLCAnLXRuJywgJzgnLCAnLW1hJywgJzIwMCcsICctaW1hZScsICc8aW5maWxlLm1hZT4nLCAnLW9tYWUnLCAnPG91dGZpbGUubWFlPic=

>  <r_lp_tautomer_probability>  (73) 
0.499993

>  <r_epik_Ionization_Penalty>  (73) 
1.60835e-05

>  <r_epik_Ionization_Penalty_Charging>  (73) 
0

>  <r_epik_Ionization_Penalty_Neutral>  (73) 
1.60835e-05

>  <r_epik_State_Penalty>  (73) 
0.41068

>  <r_epik_Charging_Adjusted_Penalty>  (73) 
0.41068

>  <i_epik_Tot_Q>  (73) 
0

>  <i_epik_Tot_abs_Q>  (73) 
2

>  <s_epik_Chemistry_Notes>  (73) 
This compound has an ester and may undergo hydrolysis at high or low pH. This compound has an imine and may undergo hydrolysis.

>  <s_lp_Force_Field>  (73) 
OPLS3e

>  <r_lp_Energy>  (73) 
40.3232

>  <b_lp_Chiralities_Consistent>  (73) 
1

>  <s_lp_Variant>  (73) 
22:0-2

>  <s_i_glide_gridfile>  (73) 
pfpi4k_grid

>  <i_i_glide_lignum>  (73) 
32

>  <i_i_glide_rotatable_bonds>  (73) 
12

>  <r_i_docking_score>  (73) 
-2.21317

>  <r_i_glide_ligand_efficiency>  (73) 
-0.0650931

>  <r_i_glide_ligand_efficiency_sa>  (73) 
-0.210876

>  <r_i_glide_ligand_efficiency_ln>  (73) 
-0.48895

>  <r_i_glide_gscore>  (73) 
-2.21317

>  <r_i_glide_lipo>  (73) 
-0.287697

>  <r_i_glide_hbond>  (73) 
-0.0928289

>  <r_i_glide_metal>  (73) 
-0

>  <r_i_glide_rewards>  (73) 
-0.258951

>  <r_i_glide_evdw>  (73) 
-23.3721

>  <r_i_glide_ecoul>  (73) 
-5.98855

>  <r_i_glide_erotb>  (73) 
0.727478

>  <r_i_glide_esite>  (73) 
-0.234276

>  <r_i_glide_emodel>  (73) 
-28.149

>  <r_i_glide_energy>  (73) 
-29.3607

>  <r_i_glide_einternal>  (73) 
8.09328

>  <r_i_glide_intrahb_reward>  (73) 
-0

>  <i_i_glide_confnum>  (73) 
6

>  <i_i_glide_posenum>  (73) 
4

>  <r_i_glide_eff_state_penalty>  (73) 
0

>  <ligand_id>  (73) 
22

>  <original_smiles>  (73) 
CCOC(=O)C1=C(COCCn2ccnn2)N=C(C)C(C(=O)OC)C1c1ccc([N+](=O)[O-])cc1

>  <smiles>  (73) 
[H]C([H])=C1N=C(C([H])([H])OC([H])([H])C([H])([H])n2nnc([H])c2[H])C([H])(C(=O)OC([H])([H])C([H])([H])[H])C([H])(c2c([H])c([H])c([N+](=O)[O-])c([H])c2[H])C1([H])C(=O)OC([H])([H])[H]

$$$$
22:1:1
     RDKit          3D

 59 61  0  0  1  0  0  0  0  0999 V2000
    0.3617   -3.1041    5.6673 C   0  0  0  0  0  0  0  0  0  0  0  0
    1.0038   -3.2901    4.2852 C   0  0  0  0  0  0  0  0  0  0  0  0
    1.7446   -4.5015    4.2026 O   0  0  0  0  0  0  0  0  0  0  0  0
    2.2965   -4.8260    3.0233 C   0  0  0  0  0  0  0  0  0  0  0  0
    2.2186   -4.1330    2.0137 O   0  0  0  0  0  0  0  0  0  0  0  0
    3.0842   -6.1615    3.0226 C   0  0  1  0  0  0  0  0  0  0  0  0
    2.6441   -7.2065    1.9563 C   0  0  0  0  0  0  0  0  0  0  0  0
    1.2244   -7.0779    1.4121 C   0  0  0  0  0  0  0  0  0  0  0  0
    0.2534   -7.1475    2.4213 O   0  0  0  0  0  0  0  0  0  0  0  0
    0.0977   -8.4633    2.9353 C   0  0  0  0  0  0  0  0  0  0  0  0
   -0.7880   -8.4610    4.1879 C   0  0  0  0  0  0  0  0  0  0  0  0
   -0.1655   -7.7562    5.2804 N   0  0  0  0  0  0  0  0  0  0  0  0
   -0.1541   -6.4142    5.5028 C   0  0  0  0  0  0  0  0  0  0  0  0
    0.5644   -6.2789    6.6464 C   0  0  0  0  0  0  0  0  0  0  0  0
    0.9350   -7.5426    7.0853 N   0  0  0  0  0  0  0  0  0  0  0  0
    0.4997   -8.4365    6.2462 N   0  0  0  0  0  0  0  0  0  0  0  0
    3.4189   -8.1216    1.5310 N   0  0  0  0  0  0  0  0  0  0  0  0
    4.7886   -8.2695    1.9214 C   0  0  0  0  0  0  0  0  0  0  0  0
    5.4946   -9.2307    1.3207 C   0  0  0  0  0  0  0  0  0  0  0  0
    5.4117   -7.2685    2.9244 C   0  0  1  0  0  0  0  0  0  0  0  0
    6.9170   -7.0052    2.7163 C   0  0  0  0  0  0  0  0  0  0  0  0
    7.3978   -6.8526    1.5979 O   0  0  0  0  0  0  0  0  0  0  0  0
    7.5794   -6.9163    3.8623 O   0  0  0  0  0  0  0  0  0  0  0  0
    8.9760   -6.6961    3.8023 C   0  0  0  0  0  0  0  0  0  0  0  0
    4.6205   -5.9378    2.9042 C   0  0  1  0  0  0  0  0  0  0  0  0
    4.9678   -5.0577    1.6897 C   0  0  0  0  0  0  0  0  0  0  0  0
    5.4233   -3.7340    1.8880 C   0  0  0  0  0  0  0  0  0  0  0  0
    5.7024   -2.8891    0.7866 C   0  0  0  0  0  0  0  0  0  0  0  0
    5.4974   -3.4103   -0.5232 C   0  0  0  0  0  0  0  0  0  0  0  0
    5.7895   -2.5890   -1.7122 N   0  0  0  0  0  0  0  0  0  0  0  0
    6.0297   -1.4207   -1.5584 O   0  0  0  0  0  0  0  0  0  0  0  0
    5.7815   -3.1130   -2.8301 O   0  0  0  0  0  0  0  0  0  0  0  0
    5.0257   -4.7271   -0.7007 C   0  0  0  0  0  0  0  0  0  0  0  0
    4.7783   -5.5599    0.3902 C   0  0  0  0  0  0  0  0  0  0  0  0
   -0.0989   -2.1105    5.7541 H   0  0  0  0  0  0  0  0  0  0  0  0
    1.1407   -3.1929    6.4282 H   0  0  0  0  0  0  0  0  0  0  0  0
   -0.4102   -3.8573    5.8583 H   0  0  0  0  0  0  0  0  0  0  0  0
    0.2328   -3.2928    3.5188 H   0  0  0  0  0  0  0  0  0  0  0  0
    1.6626   -2.4515    4.0586 H   0  0  0  0  0  0  0  0  0  0  0  0
    1.0071   -7.8326    0.6617 H   0  0  0  0  0  0  0  0  0  0  0  0
    1.1480   -6.1204    0.9228 H   0  0  0  0  0  0  0  0  0  0  0  0
   -0.3520   -9.0799    2.1486 H   0  0  0  0  0  0  0  0  0  0  0  0
    1.0537   -8.9160    3.2117 H   0  0  0  0  0  0  0  0  0  0  0  0
   -1.7463   -7.9823    3.9603 H   0  0  0  0  0  0  0  0  0  0  0  0
   -0.9786   -9.4867    4.4957 H   0  0  0  0  0  0  0  0  0  0  0  0
   -0.6103   -5.7149    4.8158 H   0  0  0  0  0  0  0  0  0  0  0  0
    0.8582   -5.3991    7.1891 H   0  0  0  0  0  0  0  0  0  0  0  0
    5.0409   -9.8960    0.5861 H   0  0  0  0  0  0  0  0  0  0  0  0
    2.9089   -6.6303    3.9886 H   0  0  0  0  0  0  0  0  0  0  0  0
    6.5575   -9.3550    1.5054 H   0  0  0  0  0  0  0  0  0  0  0  0
    5.2887   -7.7178    3.9112 H   0  0  0  0  0  0  0  0  0  0  0  0
    9.3835   -6.6564    4.8154 H   0  0  0  0  0  0  0  0  0  0  0  0
    9.2042   -5.7591    3.2844 H   0  0  0  0  0  0  0  0  0  0  0  0
    9.4577   -7.5156    3.2603 H   0  0  0  0  0  0  0  0  0  0  0  0
    4.9040   -5.4156    3.8152 H   0  0  0  0  0  0  0  0  0  0  0  0
    5.5519   -3.3302    2.8788 H   0  0  0  0  0  0  0  0  0  0  0  0
    6.0526   -1.8728    0.9450 H   0  0  0  0  0  0  0  0  0  0  0  0
    4.8968   -5.0893   -1.7103 H   0  0  0  0  0  0  0  0  0  0  0  0
    4.4369   -6.5720    0.2079 H   0  0  0  0  0  0  0  0  0  0  0  0
  1  2  1  0
  1 35  1  0
  1 36  1  0
  1 37  1  0
  2  3  1  0
  2 38  1  0
  2 39  1  0
  3  4  1  0
  4  5  2  0
  4  6  1  0
  6 25  1  0
  6 49  1  1
  6  7  1  0
  7  8  1  0
  7 17  2  0
  8  9  1  0
  8 40  1  0
  8 41  1  0
  9 10  1  0
 10 11  1  0
 10 42  1  0
 10 43  1  0
 11 12  1  0
 11 44  1  0
 11 45  1  0
 12 16  1  0
 12 13  1  0
 13 14  2  0
 13 46  1  0
 14 15  1  0
 14 47  1  0
 15 16  2  0
 17 18  1  0
 18 20  1  0
 18 19  2  0
 19 48  1  0
 19 50  1  0
 20 21  1  0
 20 25  1  0
 20 51  1  1
 21 22  2  0
 21 23  1  0
 23 24  1  0
 24 52  1  0
 24 53  1  0
 24 54  1  0
 25 26  1  0
 25 55  1  1
 26 34  1  0
 26 27  2  0
 27 28  1  0
 27 56  1  0
 28 29  2  0
 28 57  1  0
 29 30  1  0
 29 33  1  0
 30 31  2  0
 30 32  1  0
 33 34  2  0
 33 58  1  0
 34 59  1  0
M  CHG  2  30   1  32  -1
M  END
>  <i_m_ct_stereo_status>  (74) 
1

>  <s_m_source_file>  (74) 
/var/tmp/pbs.5076255.sched01/tmpt68d_85j/0g9mu2vg5.sdf

>  <i_m_source_file_index>  (74) 
32

>  <i_lp_mmshare_version>  (74) 
48012

>  <i_f3d_flags>  (74) 
0

>  <s_epik_input>  (74) 
bjFuW2NIXVtjSF1uMVtDSDJdW0NIMl1PW0NIMl1DKD1DMkMoPU8pT1tDSDJdW0NIM10pTj1DKFtDSDNdKVtDQEBIXShDKD1PKU9bQ0gzXSlbQ0BIXTJjM1tjSF1bY0hdYyhbTitdKD1PKVtPLV0pW2NIXVtjSF0z

>  <s_epik_cmdline>  (74) 
J2VwaWtfcHl0aG9uJywgJy1waHQnLCAnMi4wJywgJy1waCcsICc3LjAnLCAnLXRuJywgJzgnLCAnLW1hJywgJzIwMCcsICctaW1hZScsICc8aW5maWxlLm1hZT4nLCAnLW9tYWUnLCAnPG91dGZpbGUubWFlPic=

>  <r_lp_tautomer_probability>  (74) 
0.499993

>  <r_epik_Ionization_Penalty>  (74) 
1.60835e-05

>  <r_epik_Ionization_Penalty_Charging>  (74) 
0

>  <r_epik_Ionization_Penalty_Neutral>  (74) 
1.60835e-05

>  <r_epik_State_Penalty>  (74) 
0.41068

>  <r_epik_Charging_Adjusted_Penalty>  (74) 
0.41068

>  <i_epik_Tot_Q>  (74) 
0

>  <i_epik_Tot_abs_Q>  (74) 
2

>  <s_epik_Chemistry_Notes>  (74) 
This compound has an ester and may undergo hydrolysis at high or low pH. This compound has an imine and may undergo hydrolysis.

>  <s_lp_Force_Field>  (74) 
OPLS3e

>  <r_lp_Energy>  (74) 
40.3232

>  <b_lp_Chiralities_Consistent>  (74) 
1

>  <s_lp_Variant>  (74) 
22:0-2

>  <s_i_glide_gridfile>  (74) 
pfpi4k_grid

>  <i_i_glide_lignum>  (74) 
32

>  <i_i_glide_rotatable_bonds>  (74) 
12

>  <r_i_docking_score>  (74) 
-2.17535

>  <r_i_glide_ligand_efficiency>  (74) 
-0.0639808

>  <r_i_glide_ligand_efficiency_sa>  (74) 
-0.207273

>  <r_i_glide_ligand_efficiency_ln>  (74) 
-0.480595

>  <r_i_glide_gscore>  (74) 
-2.17535

>  <r_i_glide_lipo>  (74) 
-0.335874

>  <r_i_glide_hbond>  (74) 
0

>  <r_i_glide_metal>  (74) 
-0

>  <r_i_glide_rewards>  (74) 
-0.214794

>  <r_i_glide_evdw>  (74) 
-32.1733

>  <r_i_glide_ecoul>  (74) 
-3.6217

>  <r_i_glide_erotb>  (74) 
0.727478

>  <r_i_glide_esite>  (74) 
-0.200237

>  <r_i_glide_emodel>  (74) 
-36.4984

>  <r_i_glide_energy>  (74) 
-35.795

>  <r_i_glide_einternal>  (74) 
1.31919

>  <r_i_glide_intrahb_reward>  (74) 
-0

>  <i_i_glide_confnum>  (74) 
22

>  <i_i_glide_posenum>  (74) 
6

>  <r_i_glide_eff_state_penalty>  (74) 
0

>  <ligand_id>  (74) 
22

>  <original_smiles>  (74) 
CCOC(=O)C1=C(COCCn2ccnn2)N=C(C)C(C(=O)OC)C1c1ccc([N+](=O)[O-])cc1

>  <smiles>  (74) 
[H]C([H])=C1N=C(C([H])([H])OC([H])([H])C([H])([H])n2nnc([H])c2[H])C([H])(C(=O)OC([H])([H])C([H])([H])[H])C([H])(c2c([H])c([H])c([N+](=O)[O-])c([H])c2[H])C1([H])C(=O)OC([H])([H])[H]

$$$$
22:1:2
     RDKit          3D

 59 61  0  0  1  0  0  0  0  0999 V2000
    6.4976   -7.3124    3.4304 C   0  0  0  0  0  0  0  0  0  0  0  0
    5.7416   -8.5263    3.9949 C   0  0  0  0  0  0  0  0  0  0  0  0
    5.1469   -8.2009    5.2467 O   0  0  0  0  0  0  0  0  0  0  0  0
    3.9644   -7.5711    5.2517 C   0  0  0  0  0  0  0  0  0  0  0  0
    3.3146   -7.3222    4.2302 O   0  0  0  0  0  0  0  0  0  0  0  0
    3.4089   -7.3012    6.6756 C   0  0  1  0  0  0  0  0  0  0  0  0
    2.9356   -5.8599    6.9767 C   0  0  0  0  0  0  0  0  0  0  0  0
    3.4881   -4.8106    6.0469 C   0  0  0  0  0  0  0  0  0  0  0  0
    3.2514   -3.5058    6.5076 O   0  0  0  0  0  0  0  0  0  0  0  0
    3.0633   -2.5989    5.4416 C   0  0  0  0  0  0  0  0  0  0  0  0
    2.8647   -1.2286    6.0765 C   0  0  0  0  0  0  0  0  0  0  0  0
    1.8180   -1.2864    7.1035 N   0  0  0  0  0  0  0  0  0  0  0  0
    1.9862   -1.3501    8.4739 C   0  0  0  0  0  0  0  0  0  0  0  0
    0.7082   -1.4165    8.9354 C   0  0  0  0  0  0  0  0  0  0  0  0
   -0.1585   -1.3964    7.8516 N   0  0  0  0  0  0  0  0  0  0  0  0
    0.5477   -1.3265    6.7588 N   0  0  0  0  0  0  0  0  0  0  0  0
    2.1288   -5.5633    7.9301 N   0  0  0  0  0  0  0  0  0  0  0  0
    1.4460   -6.5265    8.6881 C   0  0  0  0  0  0  0  0  0  0  0  0
    0.4852   -6.1183    9.5331 C   0  0  0  0  0  0  0  0  0  0  0  0
    1.7971   -8.0308    8.5033 C   0  0  1  0  0  0  0  0  0  0  0  0
    0.6591   -9.0359    8.8483 C   0  0  0  0  0  0  0  0  0  0  0  0
   -0.5057   -8.7772    8.5746 O   0  0  0  0  0  0  0  0  0  0  0  0
    1.0396  -10.2248    9.3978 O   0  0  0  0  0  0  0  0  0  0  0  0
    2.3928  -10.6741    9.4091 C   0  0  0  0  0  0  0  0  0  0  0  0
    2.3146   -8.2907    7.0582 C   0  0  1  0  0  0  0  0  0  0  0  0
    1.2122   -8.3697    6.0119 C   0  0  0  0  0  0  0  0  0  0  0  0
    1.0892   -9.5348    5.1959 C   0  0  0  0  0  0  0  0  0  0  0  0
    0.1082   -9.5824    4.1814 C   0  0  0  0  0  0  0  0  0  0  0  0
   -0.7642   -8.4812    4.0005 C   0  0  0  0  0  0  0  0  0  0  0  0
   -1.8192   -8.4781    2.9869 N   0  0  0  0  0  0  0  0  0  0  0  0
   -1.9595   -9.4825    2.2898 O   0  0  0  0  0  0  0  0  0  0  0  0
   -2.4773   -7.4660    2.8878 O   0  0  0  0  0  0  0  0  0  0  0  0
   -0.6435   -7.3393    4.8313 C   0  0  0  0  0  0  0  0  0  0  0  0
    0.3243   -7.3002    5.8212 C   0  0  0  0  0  0  0  0  0  0  0  0
    7.0101   -7.5805    2.5048 H   0  0  0  0  0  0  0  0  0  0  0  0
    7.2454   -6.9575    4.1399 H   0  0  0  0  0  0  0  0  0  0  0  0
    5.8321   -6.4746    3.2053 H   0  0  0  0  0  0  0  0  0  0  0  0
    4.9880   -8.8614    3.2769 H   0  0  0  0  0  0  0  0  0  0  0  0
    6.4269   -9.3600    4.1440 H   0  0  0  0  0  0  0  0  0  0  0  0
    2.9778   -4.9537    5.1007 H   0  0  0  0  0  0  0  0  0  0  0  0
    4.5552   -4.9230    5.8741 H   0  0  0  0  0  0  0  0  0  0  0  0
    3.9414   -2.5955    4.7798 H   0  0  0  0  0  0  0  0  0  0  0  0
    2.1892   -2.8755    4.8374 H   0  0  0  0  0  0  0  0  0  0  0  0
    3.7819   -0.9217    6.5600 H   0  0  0  0  0  0  0  0  0  0  0  0
    2.5715   -0.4839    5.3338 H   0  0  0  0  0  0  0  0  0  0  0  0
    2.9360   -1.3471    8.9841 H   0  0  0  0  0  0  0  0  0  0  0  0
    0.3431   -1.4799    9.9408 H   0  0  0  0  0  0  0  0  0  0  0  0
    0.1691   -5.0786    9.5967 H   0  0  0  0  0  0  0  0  0  0  0  0
    4.2371   -7.4775    7.3628 H   0  0  0  0  0  0  0  0  0  0  0  0
   -0.0614   -6.8069   10.1664 H   0  0  0  0  0  0  0  0  0  0  0  0
    2.6188   -8.1343    9.2114 H   0  0  0  0  0  0  0  0  0  0  0  0
    2.4590  -11.6438    9.9068 H   0  0  0  0  0  0  0  0  0  0  0  0
    3.0438   -9.9804    9.9318 H   0  0  0  0  0  0  0  0  0  0  0  0
    2.7683  -10.7991    8.3918 H   0  0  0  0  0  0  0  0  0  0  0  0
    2.8383   -9.2423    7.0337 H   0  0  0  0  0  0  0  0  0  0  0  0
    1.7240  -10.4009    5.3469 H   0  0  0  0  0  0  0  0  0  0  0  0
   -0.0087  -10.4888    3.5704 H   0  0  0  0  0  0  0  0  0  0  0  0
   -1.3044   -6.4875    4.7194 H   0  0  0  0  0  0  0  0  0  0  0  0
    0.3196   -6.3902    6.4158 H   0  0  0  0  0  0  0  0  0  0  0  0
  1  2  1  0
  1 35  1  0
  1 36  1  0
  1 37  1  0
  2  3  1  0
  2 38  1  0
  2 39  1  0
  3  4  1  0
  4  5  2  0
  4  6  1  0
  6 25  1  0
  6 49  1  1
  6  7  1  0
  7  8  1  0
  7 17  2  0
  8  9  1  0
  8 40  1  0
  8 41  1  0
  9 10  1  0
 10 11  1  0
 10 42  1  0
 10 43  1  0
 11 12  1  0
 11 44  1  0
 11 45  1  0
 12 16  1  0
 12 13  1  0
 13 14  2  0
 13 46  1  0
 14 15  1  0
 14 47  1  0
 15 16  2  0
 17 18  1  0
 18 20  1  0
 18 19  2  0
 19 48  1  0
 19 50  1  0
 20 21  1  0
 20 25  1  0
 20 51  1  1
 21 22  2  0
 21 23  1  0
 23 24  1  0
 24 52  1  0
 24 53  1  0
 24 54  1  0
 25 26  1  0
 25 55  1  1
 26 34  1  0
 26 27  2  0
 27 28  1  0
 27 56  1  0
 28 29  2  0
 28 57  1  0
 29 30  1  0
 29 33  1  0
 30 31  2  0
 30 32  1  0
 33 34  2  0
 33 58  1  0
 34 59  1  0
M  CHG  2  30   1  32  -1
M  END
>  <i_m_ct_stereo_status>  (75) 
1

>  <s_m_source_file>  (75) 
/var/tmp/pbs.5076255.sched01/tmpt68d_85j/0g9mu2vg5.sdf

>  <i_m_source_file_index>  (75) 
32

>  <i_lp_mmshare_version>  (75) 
48012

>  <i_f3d_flags>  (75) 
0

>  <s_epik_input>  (75) 
bjFuW2NIXVtjSF1uMVtDSDJdW0NIMl1PW0NIMl1DKD1DMkMoPU8pT1tDSDJdW0NIM10pTj1DKFtDSDNdKVtDQEBIXShDKD1PKU9bQ0gzXSlbQ0BIXTJjM1tjSF1bY0hdYyhbTitdKD1PKVtPLV0pW2NIXVtjSF0z

>  <s_epik_cmdline>  (75) 
J2VwaWtfcHl0aG9uJywgJy1waHQnLCAnMi4wJywgJy1waCcsICc3LjAnLCAnLXRuJywgJzgnLCAnLW1hJywgJzIwMCcsICctaW1hZScsICc8aW5maWxlLm1hZT4nLCAnLW9tYWUnLCAnPG91dGZpbGUubWFlPic=

>  <r_lp_tautomer_probability>  (75) 
0.499993

>  <r_epik_Ionization_Penalty>  (75) 
1.60835e-05

>  <r_epik_Ionization_Penalty_Charging>  (75) 
0

>  <r_epik_Ionization_Penalty_Neutral>  (75) 
1.60835e-05

>  <r_epik_State_Penalty>  (75) 
0.41068

>  <r_epik_Charging_Adjusted_Penalty>  (75) 
0.41068

>  <i_epik_Tot_Q>  (75) 
0

>  <i_epik_Tot_abs_Q>  (75) 
2

>  <s_epik_Chemistry_Notes>  (75) 
This compound has an ester and may undergo hydrolysis at high or low pH. This compound has an imine and may undergo hydrolysis.

>  <s_lp_Force_Field>  (75) 
OPLS3e

>  <r_lp_Energy>  (75) 
40.3232

>  <b_lp_Chiralities_Consistent>  (75) 
1

>  <s_lp_Variant>  (75) 
22:0-2

>  <s_i_glide_gridfile>  (75) 
pfpi4k_grid

>  <i_i_glide_lignum>  (75) 
32

>  <i_i_glide_rotatable_bonds>  (75) 
12

>  <r_i_docking_score>  (75) 
-1.09539

>  <r_i_glide_ligand_efficiency>  (75) 
-0.0322174

>  <r_i_glide_ligand_efficiency_sa>  (75) 
-0.104372

>  <r_i_glide_ligand_efficiency_ln>  (75) 
-0.242002

>  <r_i_glide_gscore>  (75) 
-1.09539

>  <r_i_glide_lipo>  (75) 
-6.18553e-05

>  <r_i_glide_hbond>  (75) 
-0.00958131

>  <r_i_glide_metal>  (75) 
-0

>  <r_i_glide_rewards>  (75) 
-0.194569

>  <r_i_glide_evdw>  (75) 
-13.2008

>  <r_i_glide_ecoul>  (75) 
-5.07038

>  <r_i_glide_erotb>  (75) 
0.727478

>  <r_i_glide_esite>  (75) 
-0.198058

>  <r_i_glide_emodel>  (75) 
-14.7005

>  <r_i_glide_energy>  (75) 
-18.2712

>  <r_i_glide_einternal>  (75) 
7.93547

>  <r_i_glide_intrahb_reward>  (75) 
-0

>  <i_i_glide_confnum>  (75) 
30

>  <i_i_glide_posenum>  (75) 
2

>  <r_i_glide_eff_state_penalty>  (75) 
0

>  <ligand_id>  (75) 
22

>  <original_smiles>  (75) 
CCOC(=O)C1=C(COCCn2ccnn2)N=C(C)C(C(=O)OC)C1c1ccc([N+](=O)[O-])cc1

>  <smiles>  (75) 
[H]C([H])=C1N=C(C([H])([H])OC([H])([H])C([H])([H])n2nnc([H])c2[H])C([H])(C(=O)OC([H])([H])C([H])([H])[H])C([H])(c2c([H])c([H])c([N+](=O)[O-])c([H])c2[H])C1([H])C(=O)OC([H])([H])[H]

$$$$
22:2:0
     RDKit          3D

 59 61  0  0  1  0  0  0  0  0999 V2000
   -2.2011   -1.0154    5.6280 C   0  0  0  0  0  0  0  0  0  0  0  0
   -1.4553   -0.5938    4.3651 C   0  0  0  0  0  0  0  0  0  0  0  0
   -0.6425    0.5302    4.6363 O   0  0  0  0  0  0  0  0  0  0  0  0
   -0.4697    1.4684    3.6930 C   0  0  0  0  0  0  0  0  0  0  0  0
   -0.9116    1.4203    2.5428 O   0  0  0  0  0  0  0  0  0  0  0  0
    0.4068    2.6183    4.2260 C   0  0  2  0  0  0  0  0  0  0  0  0
   -0.3315    3.9512    4.3441 C   0  0  0  0  0  0  0  0  0  0  0  0
   -1.7829    3.8540    4.7572 C   0  0  0  0  0  0  0  0  0  0  0  0
   -2.5845    4.1058    3.6272 O   0  0  0  0  0  0  0  0  0  0  0  0
   -3.6429    3.1905    3.4357 C   0  0  0  0  0  0  0  0  0  0  0  0
   -4.2844    3.4561    2.0651 C   0  0  0  0  0  0  0  0  0  0  0  0
   -4.7229    4.8413    1.9285 N   0  0  0  0  0  0  0  0  0  0  0  0
   -5.9929    5.3620    2.0676 C   0  0  0  0  0  0  0  0  0  0  0  0
   -5.8291    6.7009    1.8755 C   0  0  0  0  0  0  0  0  0  0  0  0
   -4.4855    6.9572    1.6669 N   0  0  0  0  0  0  0  0  0  0  0  0
   -3.8320    5.8304    1.6774 N   0  0  0  0  0  0  0  0  0  0  0  0
    0.2034    5.0958    4.1500 N   0  0  0  0  0  0  0  0  0  0  0  0
    1.5737    5.2379    3.8707 C   0  0  0  0  0  0  0  0  0  0  0  0
    2.0663    6.4708    3.6720 C   0  0  0  0  0  0  0  0  0  0  0  0
    2.5105    4.0227    3.8361 C   0  0  1  0  0  0  0  0  0  0  0  0
    3.1860    3.9247    5.2238 C   0  0  0  0  0  0  0  0  0  0  0  0
    4.3991    3.7706    5.3717 O   0  0  0  0  0  0  0  0  0  0  0  0
    2.2937    4.0261    6.2235 O   0  0  0  0  0  0  0  0  0  0  0  0
    2.6759    3.7762    7.5574 C   0  0  0  0  0  0  0  0  0  0  0  0
    1.7145    2.7575    3.4298 C   0  0  1  0  0  0  0  0  0  0  0  0
    2.5568    1.4822    3.4625 C   0  0  0  0  0  0  0  0  0  0  0  0
    3.0157    0.8987    2.2648 C   0  0  0  0  0  0  0  0  0  0  0  0
    3.8258   -0.2521    2.3050 C   0  0  0  0  0  0  0  0  0  0  0  0
    4.1666   -0.8386    3.5495 C   0  0  0  0  0  0  0  0  0  0  0  0
    5.0160   -2.0420    3.6053 N   0  0  0  0  0  0  0  0  0  0  0  0
    5.4258   -2.5148    2.5576 O   0  0  0  0  0  0  0  0  0  0  0  0
    5.2747   -2.5154    4.7098 O   0  0  0  0  0  0  0  0  0  0  0  0
    3.6811   -0.2691    4.7421 C   0  0  0  0  0  0  0  0  0  0  0  0
    2.8661    0.8663    4.6936 C   0  0  0  0  0  0  0  0  0  0  0  0
   -2.8517   -1.8572    5.4003 H   0  0  0  0  0  0  0  0  0  0  0  0
   -2.8417   -0.2108    5.9935 H   0  0  0  0  0  0  0  0  0  0  0  0
   -1.5032   -1.3132    6.4094 H   0  0  0  0  0  0  0  0  0  0  0  0
   -0.8257   -1.4037    3.9956 H   0  0  0  0  0  0  0  0  0  0  0  0
   -2.1889   -0.3588    3.6046 H   0  0  0  0  0  0  0  0  0  0  0  0
   -2.0057    4.5536    5.5490 H   0  0  0  0  0  0  0  0  0  0  0  0
   -2.0187    2.9251    5.2738 H   0  0  0  0  0  0  0  0  0  0  0  0
   -3.3094    2.1522    3.4908 H   0  0  0  0  0  0  0  0  0  0  0  0
   -4.3676    3.3305    4.2374 H   0  0  0  0  0  0  0  0  0  0  0  0
   -3.5847    3.2132    1.2816 H   0  0  0  0  0  0  0  0  0  0  0  0
   -5.1460    2.8095    1.9191 H   0  0  0  0  0  0  0  0  0  0  0  0
   -6.8598    4.7470    2.2815 H   0  0  0  0  0  0  0  0  0  0  0  0
   -6.5467    7.4925    1.8985 H   0  0  0  0  0  0  0  0  0  0  0  0
    1.4524    7.3588    3.7146 H   0  0  0  0  0  0  0  0  0  0  0  0
    0.6587    2.3571    5.2498 H   0  0  0  0  0  0  0  0  0  0  0  0
    3.1148    6.5992    3.4322 H   0  0  0  0  0  0  0  0  0  0  0  0
    3.2776    4.2105    3.0797 H   0  0  0  0  0  0  0  0  0  0  0  0
    1.7985    3.8832    8.1964 H   0  0  0  0  0  0  0  0  0  0  0  0
    3.4303    4.5032    7.8581 H   0  0  0  0  0  0  0  0  0  0  0  0
    3.0633    2.7598    7.6795 H   0  0  0  0  0  0  0  0  0  0  0  0
    1.4126    2.9385    2.3988 H   0  0  0  0  0  0  0  0  0  0  0  0
    2.7665    1.3385    1.3092 H   0  0  0  0  0  0  0  0  0  0  0  0
    4.1966   -0.6659    1.3810 H   0  0  0  0  0  0  0  0  0  0  0  0
    3.9359   -0.6809    5.7110 H   0  0  0  0  0  0  0  0  0  0  0  0
    2.5093    1.2706    5.6241 H   0  0  0  0  0  0  0  0  0  0  0  0
  1  2  1  0
  1 35  1  0
  1 36  1  0
  1 37  1  0
  2  3  1  0
  2 38  1  0
  2 39  1  0
  3  4  1  0
  4  5  2  0
  4  6  1  0
  6 25  1  0
  6 49  1  1
  6  7  1  0
  7  8  1  0
  7 17  2  0
  8  9  1  0
  8 40  1  0
  8 41  1  0
  9 10  1  0
 10 11  1  0
 10 42  1  0
 10 43  1  0
 11 12  1  0
 11 44  1  0
 11 45  1  0
 12 16  1  0
 12 13  1  0
 13 14  2  0
 13 46  1  0
 14 15  1  0
 14 47  1  0
 15 16  2  0
 17 18  1  0
 18 20  1  0
 18 19  2  0
 19 48  1  0
 19 50  1  0
 20 21  1  0
 20 25  1  0
 20 51  1  6
 21 22  2  0
 21 23  1  0
 23 24  1  0
 24 52  1  0
 24 53  1  0
 24 54  1  0
 25 26  1  0
 25 55  1  6
 26 34  1  0
 26 27  2  0
 27 28  1  0
 27 56  1  0
 28 29  2  0
 28 57  1  0
 29 30  1  0
 29 33  1  0
 30 31  2  0
 30 32  1  0
 33 34  2  0
 33 58  1  0
 34 59  1  0
M  CHG  2  30   1  32  -1
M  END
>  <i_m_ct_stereo_status>  (76) 
1

>  <s_m_source_file>  (76) 
/var/tmp/pbs.5076255.sched01/tmpt68d_85j/0g9mu2vg5.sdf

>  <i_m_source_file_index>  (76) 
33

>  <i_lp_mmshare_version>  (76) 
48012

>  <i_f3d_flags>  (76) 
0

>  <s_epik_input>  (76) 
bjFuW2NIXVtjSF1uMVtDSDJdW0NIMl1PW0NIMl1DKD1DMkMoPU8pT1tDSDJdW0NIM10pTj1DKFtDSDNdKVtDQEBIXShDKD1PKU9bQ0gzXSlbQ0BIXTJjM1tjSF1bY0hdYyhbTitdKD1PKVtPLV0pW2NIXVtjSF0z

>  <s_epik_cmdline>  (76) 
J2VwaWtfcHl0aG9uJywgJy1waHQnLCAnMi4wJywgJy1waCcsICc3LjAnLCAnLXRuJywgJzgnLCAnLW1hJywgJzIwMCcsICctaW1hZScsICc8aW5maWxlLm1hZT4nLCAnLW9tYWUnLCAnPG91dGZpbGUubWFlPic=

>  <r_lp_tautomer_probability>  (76) 
0.499993

>  <r_epik_Ionization_Penalty>  (76) 
1.60835e-05

>  <r_epik_Ionization_Penalty_Charging>  (76) 
0

>  <r_epik_Ionization_Penalty_Neutral>  (76) 
1.60835e-05

>  <r_epik_State_Penalty>  (76) 
0.41068

>  <r_epik_Charging_Adjusted_Penalty>  (76) 
0.41068

>  <i_epik_Tot_Q>  (76) 
0

>  <i_epik_Tot_abs_Q>  (76) 
2

>  <s_epik_Chemistry_Notes>  (76) 
This compound has an ester and may undergo hydrolysis at high or low pH. This compound has an imine and may undergo hydrolysis.

>  <s_lp_Force_Field>  (76) 
OPLS3e

>  <r_lp_Energy>  (76) 
37.1205

>  <b_lp_Chiralities_Consistent>  (76) 
1

>  <s_lp_Variant>  (76) 
22:0-3

>  <s_i_glide_gridfile>  (76) 
pfpi4k_grid

>  <i_i_glide_lignum>  (76) 
33

>  <i_i_glide_rotatable_bonds>  (76) 
12

>  <r_i_docking_score>  (76) 
-2.49868

>  <r_i_glide_ligand_efficiency>  (76) 
-0.0734905

>  <r_i_glide_ligand_efficiency_sa>  (76) 
-0.238081

>  <r_i_glide_ligand_efficiency_ln>  (76) 
-0.552028

>  <r_i_glide_gscore>  (76) 
-2.49868

>  <r_i_glide_lipo>  (76) 
-0.403454

>  <r_i_glide_hbond>  (76) 
-0.0739412

>  <r_i_glide_metal>  (76) 
-0

>  <r_i_glide_rewards>  (76) 
-0.329985

>  <r_i_glide_evdw>  (76) 
-32.4459

>  <r_i_glide_ecoul>  (76) 
-4.45919

>  <r_i_glide_erotb>  (76) 
0.727478

>  <r_i_glide_esite>  (76) 
-0.127599

>  <r_i_glide_emodel>  (76) 
-39.3332

>  <r_i_glide_energy>  (76) 
-36.9051

>  <r_i_glide_einternal>  (76) 
6.41596

>  <r_i_glide_intrahb_reward>  (76) 
-0

>  <i_i_glide_confnum>  (76) 
9

>  <i_i_glide_posenum>  (76) 
6

>  <r_i_glide_eff_state_penalty>  (76) 
0

>  <ligand_id>  (76) 
22

>  <original_smiles>  (76) 
CCOC(=O)C1=C(COCCn2ccnn2)N=C(C)C(C(=O)OC)C1c1ccc([N+](=O)[O-])cc1

>  <smiles>  (76) 
[H]C([H])=C1N=C(C([H])([H])OC([H])([H])C([H])([H])n2nnc([H])c2[H])C([H])(C(=O)OC([H])([H])C([H])([H])[H])C([H])(c2c([H])c([H])c([N+](=O)[O-])c([H])c2[H])C1([H])C(=O)OC([H])([H])[H]

$$$$
22:2:1
     RDKit          3D

 59 61  0  0  1  0  0  0  0  0999 V2000
    0.5920    1.2845    1.6915 C   0  0  0  0  0  0  0  0  0  0  0  0
    1.9092    0.5205    1.5538 C   0  0  0  0  0  0  0  0  0  0  0  0
    1.8260   -0.5787    2.4360 O   0  0  0  0  0  0  0  0  0  0  0  0
    2.4108   -0.5136    3.6366 C   0  0  0  0  0  0  0  0  0  0  0  0
    3.1338    0.3953    4.0426 O   0  0  0  0  0  0  0  0  0  0  0  0
    2.0763   -1.7225    4.5353 C   0  0  2  0  0  0  0  0  0  0  0  0
    2.6660   -3.0651    4.0530 C   0  0  0  0  0  0  0  0  0  0  0  0
    4.0326   -2.9896    3.3805 C   0  0  0  0  0  0  0  0  0  0  0  0
    3.9262   -2.6692    2.0092 O   0  0  0  0  0  0  0  0  0  0  0  0
    3.3173   -3.6789    1.2178 C   0  0  0  0  0  0  0  0  0  0  0  0
    3.1197   -3.1687   -0.2039 C   0  0  0  0  0  0  0  0  0  0  0  0
    4.3854   -2.9306   -0.8633 N   0  0  0  0  0  0  0  0  0  0  0  0
    5.0217   -3.7297   -1.7726 C   0  0  0  0  0  0  0  0  0  0  0  0
    6.1577   -3.0410   -2.0364 C   0  0  0  0  0  0  0  0  0  0  0  0
    6.1745   -1.8753   -1.2880 N   0  0  0  0  0  0  0  0  0  0  0  0
    5.0846   -1.8056   -0.5818 N   0  0  0  0  0  0  0  0  0  0  0  0
    2.0732   -4.1914    4.2007 N   0  0  0  0  0  0  0  0  0  0  0  0
    0.8537   -4.3298    4.8809 C   0  0  0  0  0  0  0  0  0  0  0  0
    0.3068   -5.5550    4.9538 C   0  0  0  0  0  0  0  0  0  0  0  0
    0.1762   -3.1322    5.5455 C   0  0  1  0  0  0  0  0  0  0  0  0
    0.5910   -3.1299    7.0364 C   0  0  0  0  0  0  0  0  0  0  0  0
   -0.2126   -2.9169    7.9433 O   0  0  0  0  0  0  0  0  0  0  0  0
    1.9143   -3.2962    7.1887 O   0  0  0  0  0  0  0  0  0  0  0  0
    2.5206   -3.1672    8.4492 C   0  0  0  0  0  0  0  0  0  0  0  0
    0.5447   -1.8376    4.7809 C   0  0  1  0  0  0  0  0  0  0  0  0
   -0.0524   -0.5891    5.4374 C   0  0  0  0  0  0  0  0  0  0  0  0
   -1.1979    0.0292    4.8957 C   0  0  0  0  0  0  0  0  0  0  0  0
   -1.7136    1.1857    5.5031 C   0  0  0  0  0  0  0  0  0  0  0  0
   -1.1317    1.7114    6.6807 C   0  0  0  0  0  0  0  0  0  0  0  0
   -1.7028    2.8902    7.3438 N   0  0  0  0  0  0  0  0  0  0  0  0
   -2.7339    3.3518    6.8856 O   0  0  0  0  0  0  0  0  0  0  0  0
   -1.1241    3.3565    8.3238 O   0  0  0  0  0  0  0  0  0  0  0  0
    0.0186    1.0944    7.2135 C   0  0  0  0  0  0  0  0  0  0  0  0
    0.5703   -0.0231    6.5728 C   0  0  0  0  0  0  0  0  0  0  0  0
    0.5754    2.1443    1.0346 H   0  0  0  0  0  0  0  0  0  0  0  0
    0.4438    1.6369    2.7139 H   0  0  0  0  0  0  0  0  0  0  0  0
   -0.2540    0.6531    1.4214 H   0  0  0  0  0  0  0  0  0  0  0  0
    2.0469    0.1425    0.5437 H   0  0  0  0  0  0  0  0  0  0  0  0
    2.7677    1.1661    1.7542 H   0  0  0  0  0  0  0  0  0  0  0  0
    4.6044   -3.9032    3.5253 H   0  0  0  0  0  0  0  0  0  0  0  0
    4.6134   -2.2036    3.8544 H   0  0  0  0  0  0  0  0  0  0  0  0
    3.9411   -4.5703    1.2527 H   0  0  0  0  0  0  0  0  0  0  0  0
    2.3232   -3.9613    1.5650 H   0  0  0  0  0  0  0  0  0  0  0  0
    2.5654   -3.9167   -0.7782 H   0  0  0  0  0  0  0  0  0  0  0  0
    2.5358   -2.2506   -0.2028 H   0  0  0  0  0  0  0  0  0  0  0  0
    4.6173   -4.6725   -2.1224 H   0  0  0  0  0  0  0  0  0  0  0  0
    6.9770   -3.2861   -2.7102 H   0  0  0  0  0  0  0  0  0  0  0  0
    0.7900   -6.4345    4.5384 H   0  0  0  0  0  0  0  0  0  0  0  0
    2.5630   -1.5178    5.4854 H   0  0  0  0  0  0  0  0  0  0  0  0
   -0.6338   -5.7014    5.4674 H   0  0  0  0  0  0  0  0  0  0  0  0
   -0.9047   -3.2767    5.4796 H   0  0  0  0  0  0  0  0  0  0  0  0
    3.5894   -3.3515    8.3425 H   0  0  0  0  0  0  0  0  0  0  0  0
    2.0969   -3.9053    9.1257 H   0  0  0  0  0  0  0  0  0  0  0  0
    2.3847   -2.1625    8.8510 H   0  0  0  0  0  0  0  0  0  0  0  0
    0.0804   -1.9494    3.7991 H   0  0  0  0  0  0  0  0  0  0  0  0
   -1.6638   -0.3654    4.0081 H   0  0  0  0  0  0  0  0  0  0  0  0
   -2.5387    1.6814    5.0482 H   0  0  0  0  0  0  0  0  0  0  0  0
    0.5104    1.4701    8.1133 H   0  0  0  0  0  0  0  0  0  0  0  0
    1.4744   -0.4585    6.9931 H   0  0  0  0  0  0  0  0  0  0  0  0
  1  2  1  0
  1 35  1  0
  1 36  1  0
  1 37  1  0
  2  3  1  0
  2 38  1  0
  2 39  1  0
  3  4  1  0
  4  5  2  0
  4  6  1  0
  6 25  1  0
  6 49  1  1
  6  7  1  0
  7  8  1  0
  7 17  2  0
  8  9  1  0
  8 40  1  0
  8 41  1  0
  9 10  1  0
 10 11  1  0
 10 42  1  0
 10 43  1  0
 11 12  1  0
 11 44  1  0
 11 45  1  0
 12 16  1  0
 12 13  1  0
 13 14  2  0
 13 46  1  0
 14 15  1  0
 14 47  1  0
 15 16  2  0
 17 18  1  0
 18 20  1  0
 18 19  2  0
 19 48  1  0
 19 50  1  0
 20 21  1  0
 20 25  1  0
 20 51  1  1
 21 22  2  0
 21 23  1  0
 23 24  1  0
 24 52  1  0
 24 53  1  0
 24 54  1  0
 25 26  1  0
 25 55  1  6
 26 34  1  0
 26 27  2  0
 27 28  1  0
 27 56  1  0
 28 29  2  0
 28 57  1  0
 29 30  1  0
 29 33  1  0
 30 31  2  0
 30 32  1  0
 33 34  2  0
 33 58  1  0
 34 59  1  0
M  CHG  2  30   1  32  -1
M  END
>  <i_m_ct_stereo_status>  (77) 
1

>  <s_m_source_file>  (77) 
/var/tmp/pbs.5076255.sched01/tmpt68d_85j/0g9mu2vg5.sdf

>  <i_m_source_file_index>  (77) 
33

>  <i_lp_mmshare_version>  (77) 
48012

>  <i_f3d_flags>  (77) 
0

>  <s_epik_input>  (77) 
bjFuW2NIXVtjSF1uMVtDSDJdW0NIMl1PW0NIMl1DKD1DMkMoPU8pT1tDSDJdW0NIM10pTj1DKFtDSDNdKVtDQEBIXShDKD1PKU9bQ0gzXSlbQ0BIXTJjM1tjSF1bY0hdYyhbTitdKD1PKVtPLV0pW2NIXVtjSF0z

>  <s_epik_cmdline>  (77) 
J2VwaWtfcHl0aG9uJywgJy1waHQnLCAnMi4wJywgJy1waCcsICc3LjAnLCAnLXRuJywgJzgnLCAnLW1hJywgJzIwMCcsICctaW1hZScsICc8aW5maWxlLm1hZT4nLCAnLW9tYWUnLCAnPG91dGZpbGUubWFlPic=

>  <r_lp_tautomer_probability>  (77) 
0.499993

>  <r_epik_Ionization_Penalty>  (77) 
1.60835e-05

>  <r_epik_Ionization_Penalty_Charging>  (77) 
0

>  <r_epik_Ionization_Penalty_Neutral>  (77) 
1.60835e-05

>  <r_epik_State_Penalty>  (77) 
0.41068

>  <r_epik_Charging_Adjusted_Penalty>  (77) 
0.41068

>  <i_epik_Tot_Q>  (77) 
0

>  <i_epik_Tot_abs_Q>  (77) 
2

>  <s_epik_Chemistry_Notes>  (77) 
This compound has an ester and may undergo hydrolysis at high or low pH. This compound has an imine and may undergo hydrolysis.

>  <s_lp_Force_Field>  (77) 
OPLS3e

>  <r_lp_Energy>  (77) 
37.1205

>  <b_lp_Chiralities_Consistent>  (77) 
1

>  <s_lp_Variant>  (77) 
22:0-3

>  <s_i_glide_gridfile>  (77) 
pfpi4k_grid

>  <i_i_glide_lignum>  (77) 
33

>  <i_i_glide_rotatable_bonds>  (77) 
12

>  <r_i_docking_score>  (77) 
-2.35892

>  <r_i_glide_ligand_efficiency>  (77) 
-0.0693799

>  <r_i_glide_ligand_efficiency_sa>  (77) 
-0.224764

>  <r_i_glide_ligand_efficiency_ln>  (77) 
-0.521151

>  <r_i_glide_gscore>  (77) 
-2.35892

>  <r_i_glide_lipo>  (77) 
-0.126994

>  <r_i_glide_hbond>  (77) 
-0.0715241

>  <r_i_glide_metal>  (77) 
-0

>  <r_i_glide_rewards>  (77) 
-0.240449

>  <r_i_glide_evdw>  (77) 
-29.6169

>  <r_i_glide_ecoul>  (77) 
-7.06363

>  <r_i_glide_erotb>  (77) 
0.727478

>  <r_i_glide_esite>  (77) 
-0.10704

>  <r_i_glide_emodel>  (77) 
-40.9222

>  <r_i_glide_energy>  (77) 
-36.6805

>  <r_i_glide_einternal>  (77) 
2.1929

>  <r_i_glide_intrahb_reward>  (77) 
-0

>  <i_i_glide_confnum>  (77) 
4

>  <i_i_glide_posenum>  (77) 
5

>  <r_i_glide_eff_state_penalty>  (77) 
0

>  <ligand_id>  (77) 
22

>  <original_smiles>  (77) 
CCOC(=O)C1=C(COCCn2ccnn2)N=C(C)C(C(=O)OC)C1c1ccc([N+](=O)[O-])cc1

>  <smiles>  (77) 
[H]C([H])=C1N=C(C([H])([H])OC([H])([H])C([H])([H])n2nnc([H])c2[H])C([H])(C(=O)OC([H])([H])C([H])([H])[H])C([H])(c2c([H])c([H])c([N+](=O)[O-])c([H])c2[H])C1([H])C(=O)OC([H])([H])[H]

$$$$
22:2:2
     RDKit          3D

 59 61  0  0  1  0  0  0  0  0999 V2000
    2.2539    3.4438    2.4954 C   0  0  0  0  0  0  0  0  0  0  0  0
    1.0913    3.3587    3.4953 C   0  0  0  0  0  0  0  0  0  0  0  0
    1.1592    2.1272    4.1967 O   0  0  0  0  0  0  0  0  0  0  0  0
    0.6068    1.0277    3.6530 C   0  0  0  0  0  0  0  0  0  0  0  0
   -0.0351    0.9916    2.6090 O   0  0  0  0  0  0  0  0  0  0  0  0
    0.8603   -0.2617    4.4574 C   0  0  2  0  0  0  0  0  0  0  0  0
    0.0736   -0.3150    5.7766 C   0  0  0  0  0  0  0  0  0  0  0  0
   -1.3138    0.2984    5.7388 C   0  0  0  0  0  0  0  0  0  0  0  0
   -1.2168    1.5718    6.3071 O   0  0  0  0  0  0  0  0  0  0  0  0
   -2.4353    2.2722    6.4157 C   0  0  0  0  0  0  0  0  0  0  0  0
   -2.1819    3.5172    7.2788 C   0  0  0  0  0  0  0  0  0  0  0  0
   -1.6538    3.1468    8.5798 N   0  0  0  0  0  0  0  0  0  0  0  0
   -2.3097    2.9441    9.7645 C   0  0  0  0  0  0  0  0  0  0  0  0
   -1.3230    2.5882   10.6376 C   0  0  0  0  0  0  0  0  0  0  0  0
   -0.1243    2.5999    9.9538 N   0  0  0  0  0  0  0  0  0  0  0  0
   -0.3190    2.9387    8.7195 N   0  0  0  0  0  0  0  0  0  0  0  0
    0.5106   -0.8510    6.8480 N   0  0  0  0  0  0  0  0  0  0  0  0
    1.7401   -1.5369    6.8807 C   0  0  0  0  0  0  0  0  0  0  0  0
    2.1257   -2.0733    8.0494 C   0  0  0  0  0  0  0  0  0  0  0  0
    2.6016   -1.7023    5.6196 C   0  0  1  0  0  0  0  0  0  0  0  0
    2.2996   -3.0692    4.9714 C   0  0  0  0  0  0  0  0  0  0  0  0
    3.1772   -3.7935    4.5135 O   0  0  0  0  0  0  0  0  0  0  0  0
    0.9926   -3.3427    4.9804 O   0  0  0  0  0  0  0  0  0  0  0  0
    0.5185   -4.5592    4.4527 C   0  0  0  0  0  0  0  0  0  0  0  0
    2.3802   -0.5191    4.6652 C   0  0  1  0  0  0  0  0  0  0  0  0
    3.1851   -0.6861    3.3666 C   0  0  0  0  0  0  0  0  0  0  0  0
    4.5830   -0.5095    3.3745 C   0  0  0  0  0  0  0  0  0  0  0  0
    5.3399   -0.6786    2.2012 C   0  0  0  0  0  0  0  0  0  0  0  0
    4.6895   -1.0141    0.9832 C   0  0  0  0  0  0  0  0  0  0  0  0
    5.4565   -1.1985   -0.2522 N   0  0  0  0  0  0  0  0  0  0  0  0
    6.6430   -1.4486   -0.1781 O   0  0  0  0  0  0  0  0  0  0  0  0
    4.8618   -1.0836   -1.3310 O   0  0  0  0  0  0  0  0  0  0  0  0
    3.2981   -1.1722    0.9806 C   0  0  0  0  0  0  0  0  0  0  0  0
    2.5500   -1.0305    2.1526 C   0  0  0  0  0  0  0  0  0  0  0  0
    2.2300    4.3940    1.9601 H   0  0  0  0  0  0  0  0  0  0  0  0
    2.2066    2.6439    1.7508 H   0  0  0  0  0  0  0  0  0  0  0  0
    3.2175    3.3629    3.0025 H   0  0  0  0  0  0  0  0  0  0  0  0
    1.1688    4.1568    4.2343 H   0  0  0  0  0  0  0  0  0  0  0  0
    0.1316    3.4736    2.9868 H   0  0  0  0  0  0  0  0  0  0  0  0
   -2.0099   -0.3311    6.2829 H   0  0  0  0  0  0  0  0  0  0  0  0
   -1.7154    0.3702    4.7310 H   0  0  0  0  0  0  0  0  0  0  0  0
   -2.7995    2.5588    5.4206 H   0  0  0  0  0  0  0  0  0  0  0  0
   -3.1808    1.6338    6.8918 H   0  0  0  0  0  0  0  0  0  0  0  0
   -1.4711    4.1900    6.7917 H   0  0  0  0  0  0  0  0  0  0  0  0
   -3.1260    4.0463    7.4447 H   0  0  0  0  0  0  0  0  0  0  0  0
   -3.3803    3.0645    9.9009 H   0  0  0  0  0  0  0  0  0  0  0  0
   -1.3837    2.3407   11.6773 H   0  0  0  0  0  0  0  0  0  0  0  0
    1.5205   -2.0047    8.9436 H   0  0  0  0  0  0  0  0  0  0  0  0
    0.4487   -1.0788    3.8714 H   0  0  0  0  0  0  0  0  0  0  0  0
    3.0687   -2.6015    8.1293 H   0  0  0  0  0  0  0  0  0  0  0  0
    3.6460   -1.7100    5.9363 H   0  0  0  0  0  0  0  0  0  0  0  0
   -0.5624   -4.6006    4.5832 H   0  0  0  0  0  0  0  0  0  0  0  0
    0.9510   -5.4089    4.9746 H   0  0  0  0  0  0  0  0  0  0  0  0
    0.7313   -4.6417    3.3886 H   0  0  0  0  0  0  0  0  0  0  0  0
    2.8087    0.3453    5.1867 H   0  0  0  0  0  0  0  0  0  0  0  0
    5.0847   -0.2506    4.2928 H   0  0  0  0  0  0  0  0  0  0  0  0
    6.4087   -0.5753    2.2279 H   0  0  0  0  0  0  0  0  0  0  0  0
    2.7834   -1.4312    0.0664 H   0  0  0  0  0  0  0  0  0  0  0  0
    1.4894   -1.1995    2.0828 H   0  0  0  0  0  0  0  0  0  0  0  0
  1  2  1  0
  1 35  1  0
  1 36  1  0
  1 37  1  0
  2  3  1  0
  2 38  1  0
  2 39  1  0
  3  4  1  0
  4  5  2  0
  4  6  1  0
  6 25  1  0
  6 49  1  6
  6  7  1  0
  7  8  1  0
  7 17  2  0
  8  9  1  0
  8 40  1  0
  8 41  1  0
  9 10  1  0
 10 11  1  0
 10 42  1  0
 10 43  1  0
 11 12  1  0
 11 44  1  0
 11 45  1  0
 12 16  1  0
 12 13  1  0
 13 14  2  0
 13 46  1  0
 14 15  1  0
 14 47  1  0
 15 16  2  0
 17 18  1  0
 18 20  1  0
 18 19  2  0
 19 48  1  0
 19 50  1  0
 20 21  1  0
 20 25  1  0
 20 51  1  1
 21 22  2  0
 21 23  1  0
 23 24  1  0
 24 52  1  0
 24 53  1  0
 24 54  1  0
 25 26  1  0
 25 55  1  1
 26 34  1  0
 26 27  2  0
 27 28  1  0
 27 56  1  0
 28 29  2  0
 28 57  1  0
 29 30  1  0
 29 33  1  0
 30 31  2  0
 30 32  1  0
 33 34  2  0
 33 58  1  0
 34 59  1  0
M  CHG  2  30   1  32  -1
M  END
>  <i_m_ct_stereo_status>  (78) 
1

>  <s_m_source_file>  (78) 
/var/tmp/pbs.5076255.sched01/tmpt68d_85j/0g9mu2vg5.sdf

>  <i_m_source_file_index>  (78) 
33

>  <i_lp_mmshare_version>  (78) 
48012

>  <i_f3d_flags>  (78) 
0

>  <s_epik_input>  (78) 
bjFuW2NIXVtjSF1uMVtDSDJdW0NIMl1PW0NIMl1DKD1DMkMoPU8pT1tDSDJdW0NIM10pTj1DKFtDSDNdKVtDQEBIXShDKD1PKU9bQ0gzXSlbQ0BIXTJjM1tjSF1bY0hdYyhbTitdKD1PKVtPLV0pW2NIXVtjSF0z

>  <s_epik_cmdline>  (78) 
J2VwaWtfcHl0aG9uJywgJy1waHQnLCAnMi4wJywgJy1waCcsICc3LjAnLCAnLXRuJywgJzgnLCAnLW1hJywgJzIwMCcsICctaW1hZScsICc8aW5maWxlLm1hZT4nLCAnLW9tYWUnLCAnPG91dGZpbGUubWFlPic=

>  <r_lp_tautomer_probability>  (78) 
0.499993

>  <r_epik_Ionization_Penalty>  (78) 
1.60835e-05

>  <r_epik_Ionization_Penalty_Charging>  (78) 
0

>  <r_epik_Ionization_Penalty_Neutral>  (78) 
1.60835e-05

>  <r_epik_State_Penalty>  (78) 
0.41068

>  <r_epik_Charging_Adjusted_Penalty>  (78) 
0.41068

>  <i_epik_Tot_Q>  (78) 
0

>  <i_epik_Tot_abs_Q>  (78) 
2

>  <s_epik_Chemistry_Notes>  (78) 
This compound has an ester and may undergo hydrolysis at high or low pH. This compound has an imine and may undergo hydrolysis.

>  <s_lp_Force_Field>  (78) 
OPLS3e

>  <r_lp_Energy>  (78) 
37.1205

>  <b_lp_Chiralities_Consistent>  (78) 
1

>  <s_lp_Variant>  (78) 
22:0-3

>  <s_i_glide_gridfile>  (78) 
pfpi4k_grid

>  <i_i_glide_lignum>  (78) 
33

>  <i_i_glide_rotatable_bonds>  (78) 
12

>  <r_i_docking_score>  (78) 
-2.1808

>  <r_i_glide_ligand_efficiency>  (78) 
-0.0641412

>  <r_i_glide_ligand_efficiency_sa>  (78) 
-0.207793

>  <r_i_glide_ligand_efficiency_ln>  (78) 
-0.4818

>  <r_i_glide_gscore>  (78) 
-2.1808

>  <r_i_glide_lipo>  (78) 
-0.422525

>  <r_i_glide_hbond>  (78) 
0

>  <r_i_glide_metal>  (78) 
-0

>  <r_i_glide_rewards>  (78) 
-0.194569

>  <r_i_glide_evdw>  (78) 
-30.8439

>  <r_i_glide_ecoul>  (78) 
-3.73156

>  <r_i_glide_erotb>  (78) 
0.727478

>  <r_i_glide_esite>  (78) 
-0.189258

>  <r_i_glide_emodel>  (78) 
-37.6905

>  <r_i_glide_energy>  (78) 
-34.5754

>  <r_i_glide_einternal>  (78) 
3.59843

>  <r_i_glide_intrahb_reward>  (78) 
-0

>  <i_i_glide_confnum>  (78) 
10

>  <i_i_glide_posenum>  (78) 
29

>  <r_i_glide_eff_state_penalty>  (78) 
0

>  <ligand_id>  (78) 
22

>  <original_smiles>  (78) 
CCOC(=O)C1=C(COCCn2ccnn2)N=C(C)C(C(=O)OC)C1c1ccc([N+](=O)[O-])cc1

>  <smiles>  (78) 
[H]C([H])=C1N=C(C([H])([H])OC([H])([H])C([H])([H])n2nnc([H])c2[H])C([H])(C(=O)OC([H])([H])C([H])([H])[H])C([H])(c2c([H])c([H])c([N+](=O)[O-])c([H])c2[H])C1([H])C(=O)OC([H])([H])[H]

$$$$
23:0:0
     RDKit          3D

 60 65  0  0  1  0  0  0  0  0999 V2000
    0.9588  -10.9927    3.9873 C   0  0  0  0  0  0  0  0  0  0  0  0
    0.8000   -9.4647    4.0402 C   0  0  1  0  0  0  0  0  0  0  0  0
    2.0603   -8.8034    4.1369 O   0  0  0  0  0  0  0  0  0  0  0  0
    2.2366   -7.9877    2.9842 C   0  0  1  0  0  0  0  0  0  0  0  0
    0.8319   -7.5555    2.6209 C   0  0  1  0  0  0  0  0  0  0  0  0
    0.8080   -6.9489    1.2110 C   0  0  0  0  0  0  0  0  0  0  0  0
    2.0547   -6.0698    0.9459 C   0  0  0  0  0  0  0  0  0  0  0  0
    2.7305   -5.5815    2.2491 C   0  0  2  0  0  0  0  0  0  0  0  0
    3.8191   -4.5035    2.0469 C   0  0  2  0  0  0  0  0  0  0  0  0
    3.3596   -3.2927    1.2201 C   0  0  0  0  0  0  0  0  0  0  0  0
    4.3816   -2.1622    1.3285 C   0  0  0  0  0  0  0  0  0  0  0  0
    5.7991   -2.6288    1.0534 C   0  0  0  0  0  0  0  0  0  0  0  0
    6.7581   -1.6678    0.6777 C   0  0  0  0  0  0  0  0  0  0  0  0
    8.0769   -2.0535    0.4303 C   0  0  0  0  0  0  0  0  0  0  0  0
    8.9966   -1.0847    0.1744 O   0  0  0  0  0  0  0  0  0  0  0  0
    8.4600   -3.3950    0.5149 C   0  0  0  0  0  0  0  0  0  0  0  0
    7.5261   -4.3673    0.9029 C   0  0  0  0  0  0  0  0  0  0  0  0
    6.1792   -4.0030    1.1737 C   0  0  0  0  0  0  0  0  0  0  0  0
    5.1507   -5.0741    1.5186 C   0  0  1  0  0  0  0  0  0  0  0  0
    5.6641   -6.1521    2.4970 C   0  0  0  0  0  0  0  0  0  0  0  0
    4.6233   -7.2688    2.6706 C   0  0  0  0  0  0  0  0  0  0  0  0
    3.2222   -6.7856    3.1305 C   0  0  2  0  0  0  0  0  0  0  0  0
    3.2796   -6.3492    4.6145 C   0  0  0  0  0  0  0  0  0  0  0  0
    0.0613   -8.8525    2.8337 C   0  0  2  0  0  0  0  0  0  0  0  0
   -1.4053   -8.6137    3.2441 C   0  0  0  0  0  0  0  0  0  0  0  0
   -1.3659   -8.4038    4.7495 C   0  0  0  0  0  0  0  0  0  0  0  0
   -0.0549   -9.0047    5.2140 C   0  0  0  0  0  0  0  0  0  0  0  0
    0.2449   -9.1199    6.3913 O   0  0  0  0  0  0  0  0  0  0  0  0
   -0.0077  -11.4784    3.9539 H   0  0  0  0  0  0  0  0  0  0  0  0
    1.4638  -11.3702    4.8677 H   0  0  0  0  0  0  0  0  0  0  0  0
    1.5163  -11.3085    3.1108 H   0  0  0  0  0  0  0  0  0  0  0  0
    2.5617   -8.6614    2.1894 H   0  0  0  0  0  0  0  0  0  0  0  0
    0.4858   -6.8183    3.3503 H   0  0  0  0  0  0  0  0  0  0  0  0
    0.7186   -7.7346    0.4557 H   0  0  0  0  0  0  0  0  0  0  0  0
   -0.0857   -6.3448    1.1182 H   0  0  0  0  0  0  0  0  0  0  0  0
    2.7855   -6.6578    0.4054 H   0  0  0  0  0  0  0  0  0  0  0  0
    1.7835   -5.2398    0.2916 H   0  0  0  0  0  0  0  0  0  0  0  0
    1.9455   -5.0755    2.8060 H   0  0  0  0  0  0  0  0  0  0  0  0
    4.0335   -4.0976    3.0319 H   0  0  0  0  0  0  0  0  0  0  0  0
    3.3026   -3.5737    0.1692 H   0  0  0  0  0  0  0  0  0  0  0  0
    2.3661   -2.9460    1.5277 H   0  0  0  0  0  0  0  0  0  0  0  0
    4.1123   -1.3524    0.6416 H   0  0  0  0  0  0  0  0  0  0  0  0
    4.3543   -1.7420    2.3363 H   0  0  0  0  0  0  0  0  0  0  0  0
    6.4727   -0.6256    0.6075 H   0  0  0  0  0  0  0  0  0  0  0  0
    9.8321   -1.2850   -0.2826 H   0  0  0  0  0  0  0  0  0  0  0  0
    9.4931   -3.6633    0.3649 H   0  0  0  0  0  0  0  0  0  0  0  0
    7.8624   -5.3931    1.0075 H   0  0  0  0  0  0  0  0  0  0  0  0
    4.9574   -5.5571    0.5618 H   0  0  0  0  0  0  0  0  0  0  0  0
    6.5687   -6.6198    2.1154 H   0  0  0  0  0  0  0  0  0  0  0  0
    5.9454   -5.7111    3.4566 H   0  0  0  0  0  0  0  0  0  0  0  0
    4.5357   -7.7854    1.7122 H   0  0  0  0  0  0  0  0  0  0  0  0
    5.0051   -8.0096    3.3737 H   0  0  0  0  0  0  0  0  0  0  0  0
    3.9732   -5.5234    4.7667 H   0  0  0  0  0  0  0  0  0  0  0  0
    3.6169   -7.1582    5.2692 H   0  0  0  0  0  0  0  0  0  0  0  0
    2.3040   -6.0207    4.9829 H   0  0  0  0  0  0  0  0  0  0  0  0
    0.1202   -9.5156    1.9694 H   0  0  0  0  0  0  0  0  0  0  0  0
   -1.8774   -7.7754    2.7225 H   0  0  0  0  0  0  0  0  0  0  0  0
   -2.0044   -9.5032    3.0252 H   0  0  0  0  0  0  0  0  0  0  0  0
   -1.4262   -7.3558    5.0372 H   0  0  0  0  0  0  0  0  0  0  0  0
   -2.1606   -8.9651    5.2297 H   0  0  0  0  0  0  0  0  0  0  0  0
  2  1  1  6
  1 29  1  0
  1 30  1  0
  1 31  1  0
  2 24  1  0
  2 27  1  0
  2  3  1  0
  3  4  1  0
  4 22  1  0
  4  5  1  0
  4 32  1  6
  5  6  1  0
  5 24  1  0
  5 33  1  1
  6  7  1  0
  6 34  1  0
  6 35  1  0
  7  8  1  0
  7 36  1  0
  7 37  1  0
  8 22  1  0
  8  9  1  0
  8 38  1  1
  9 19  1  0
  9 10  1  0
  9 39  1  1
 10 11  1  0
 10 40  1  0
 10 41  1  0
 11 12  1  0
 11 42  1  0
 11 43  1  0
 12 18  2  0
 12 13  1  0
 13 14  2  0
 13 44  1  0
 14 15  1  0
 14 16  1  0
 15 45  1  0
 16 17  2  0
 16 46  1  0
 17 18  1  0
 17 47  1  0
 18 19  1  0
 19 20  1  0
 19 48  1  6
 20 21  1  0
 20 49  1  0
 20 50  1  0
 21 22  1  0
 21 51  1  0
 21 52  1  0
 22 23  1  1
 23 53  1  0
 23 54  1  0
 23 55  1  0
 24 25  1  0
 24 56  1  6
 25 26  1  0
 25 57  1  0
 25 58  1  0
 26 27  1  0
 26 59  1  0
 26 60  1  0
 27 28  2  0
M  END
>  <i_m_ct_stereo_status>  (79) 
1

>  <s_m_source_file>  (79) 
/var/tmp/pbs.5076255.sched01/tmpt68d_85j/0g9mu2vg5.sdf

>  <i_m_source_file_index>  (79) 
34

>  <i_lp_mmshare_version>  (79) 
48012

>  <i_f3d_flags>  (79) 
0

>  <s_epik_input>  (79) 
Tz1DMVtDSDJdW0NIMl1bQ0BIXShbQ0BdMTJbQ0gzXSlbQ0BIXTNbQ0BIXShPMilbQ0BdNChbQ0gzXSlbQ0BIXShbQ0gyXVtDSDJdMylbQ0BIXTVbQ0BIXShbQ0gyXVtDSDJdNCljNmMoW0NIMl1bQ0gyXTUpW2NIXWMoW09IXSlbY0hdW2NIXTY=

>  <s_epik_cmdline>  (79) 
J2VwaWtfcHl0aG9uJywgJy1waHQnLCAnMi4wJywgJy1waCcsICc3LjAnLCAnLXRuJywgJzgnLCAnLW1hJywgJzIwMCcsICctaW1hZScsICc8aW5maWxlLm1hZT4nLCAnLW9tYWUnLCAnPG91dGZpbGUubWFlPic=

>  <r_lp_tautomer_probability>  (79) 
1

>  <r_epik_Ionization_Penalty>  (79) 
0.000119874

>  <r_epik_Ionization_Penalty_Charging>  (79) 
0

>  <r_epik_Ionization_Penalty_Neutral>  (79) 
0.000119874

>  <r_epik_State_Penalty>  (79) 
-0

>  <r_epik_Charging_Adjusted_Penalty>  (79) 
0

>  <i_epik_Tot_Q>  (79) 
0

>  <i_epik_Tot_abs_Q>  (79) 
0

>  <s_lp_Force_Field>  (79) 
OPLS3e

>  <r_lp_Energy>  (79) 
49.9216

>  <b_lp_Chiralities_Consistent>  (79) 
1

>  <s_lp_Variant>  (79) 
23:0-1

>  <s_i_glide_gridfile>  (79) 
pfpi4k_grid

>  <i_i_glide_lignum>  (79) 
34

>  <i_i_glide_rotatable_bonds>  (79) 
1

>  <r_i_docking_score>  (79) 
-3.68634

>  <r_i_glide_ligand_efficiency>  (79) 
-0.131655

>  <r_i_glide_ligand_efficiency_sa>  (79) 
-0.399782

>  <r_i_glide_ligand_efficiency_ln>  (79) 
-0.850916

>  <r_i_glide_gscore>  (79) 
-3.68634

>  <r_i_glide_lipo>  (79) 
-0.758091

>  <r_i_glide_hbond>  (79) 
-0.153364

>  <r_i_glide_metal>  (79) 
-0

>  <r_i_glide_rewards>  (79) 
-0.814638

>  <r_i_glide_evdw>  (79) 
-20.8686

>  <r_i_glide_ecoul>  (79) 
-5.63179

>  <r_i_glide_erotb>  (79) 
0

>  <r_i_glide_esite>  (79) 
-0.0720492

>  <r_i_glide_emodel>  (79) 
-32.7676

>  <r_i_glide_energy>  (79) 
-26.5004

>  <r_i_glide_einternal>  (79) 
0.315167

>  <r_i_glide_intrahb_reward>  (79) 
-0

>  <i_i_glide_confnum>  (79) 
1

>  <i_i_glide_posenum>  (79) 
23

>  <r_i_glide_eff_state_penalty>  (79) 
0

>  <ligand_id>  (79) 
23

>  <original_smiles>  (79) 
CC12OC3C(CCC4C5CCc6cc(O)ccc6C5CCC43C)C1CCC2=O

>  <smiles>  (79) 
[H]Oc1c([H])c([H])c2c(c1[H])C([H])([H])C([H])([H])C1([H])C2([H])C([H])([H])C([H])([H])C2(C([H])([H])[H])C3([H])OC4(C([H])([H])[H])C(=O)C([H])([H])C([H])([H])C4([H])C3([H])C([H])([H])C([H])([H])C12[H]

$$$$
23:0:1
     RDKit          3D

 60 65  0  0  1  0  0  0  0  0999 V2000
    6.4470   -3.3229   -2.0585 C   0  0  0  0  0  0  0  0  0  0  0  0
    5.1083   -3.1162   -1.3457 C   0  0  1  0  0  0  0  0  0  0  0  0
    4.5988   -4.3442   -0.8159 O   0  0  0  0  0  0  0  0  0  0  0  0
    4.5177   -4.2391    0.6009 C   0  0  1  0  0  0  0  0  0  0  0  0
    4.2513   -2.7652    0.8402 C   0  0  1  0  0  0  0  0  0  0  0  0
    4.4832   -2.4134    2.3209 C   0  0  0  0  0  0  0  0  0  0  0  0
    3.9579   -3.5227    3.2611 C   0  0  0  0  0  0  0  0  0  0  0  0
    2.8991   -4.4313    2.5869 C   0  0  2  0  0  0  0  0  0  0  0  0
    2.1516   -5.3975    3.5440 C   0  0  2  0  0  0  0  0  0  0  0  0
    1.5274   -4.7071    4.7638 C   0  0  0  0  0  0  0  0  0  0  0  0
    0.5762   -5.6629    5.4808 C   0  0  0  0  0  0  0  0  0  0  0  0
    1.1957   -7.0227    5.7598 C   0  0  0  0  0  0  0  0  0  0  0  0
    0.6416   -7.8149    6.7898 C   0  0  0  0  0  0  0  0  0  0  0  0
    1.1608   -9.0874    7.0605 C   0  0  0  0  0  0  0  0  0  0  0  0
    0.6185   -9.8570    8.0542 O   0  0  0  0  0  0  0  0  0  0  0  0
    2.2399   -9.5775    6.3206 C   0  0  0  0  0  0  0  0  0  0  0  0
    2.8236   -8.7891    5.3131 C   0  0  0  0  0  0  0  0  0  0  0  0
    2.3083   -7.4987    5.0111 C   0  0  0  0  0  0  0  0  0  0  0  0
    2.9923   -6.6248    3.9573 C   0  0  1  0  0  0  0  0  0  0  0  0
    3.4360   -7.3856    2.6871 C   0  0  0  0  0  0  0  0  0  0  0  0
    4.2242   -6.4649    1.7378 C   0  0  0  0  0  0  0  0  0  0  0  0
    3.4838   -5.1632    1.3294 C   0  0  2  0  0  0  0  0  0  0  0  0
    2.3265   -5.4997    0.3760 C   0  0  0  0  0  0  0  0  0  0  0  0
    5.1782   -2.1266   -0.1777 C   0  0  2  0  0  0  0  0  0  0  0  0
    4.6770   -0.7903   -0.7264 C   0  0  0  0  0  0  0  0  0  0  0  0
    3.7546   -1.0750   -1.9146 C   0  0  0  0  0  0  0  0  0  0  0  0
    4.0991   -2.4956   -2.3117 C   0  0  0  0  0  0  0  0  0  0  0  0
    3.6566   -3.0513   -3.3094 O   0  0  0  0  0  0  0  0  0  0  0  0
    6.8483   -2.4058   -2.4844 H   0  0  0  0  0  0  0  0  0  0  0  0
    6.3098   -4.0092   -2.8898 H   0  0  0  0  0  0  0  0  0  0  0  0
    7.2038   -3.7298   -1.3892 H   0  0  0  0  0  0  0  0  0  0  0  0
    5.5217   -4.4333    0.9750 H   0  0  0  0  0  0  0  0  0  0  0  0
    3.2244   -2.5395    0.5563 H   0  0  0  0  0  0  0  0  0  0  0  0
    5.5342   -2.2086    2.5337 H   0  0  0  0  0  0  0  0  0  0  0  0
    3.9463   -1.4917    2.5318 H   0  0  0  0  0  0  0  0  0  0  0  0
    4.7992   -4.1455    3.5653 H   0  0  0  0  0  0  0  0  0  0  0  0
    3.5619   -3.0620    4.1652 H   0  0  0  0  0  0  0  0  0  0  0  0
    2.1271   -3.7508    2.2270 H   0  0  0  0  0  0  0  0  0  0  0  0
    1.3029   -5.7872    2.9820 H   0  0  0  0  0  0  0  0  0  0  0  0
    2.3200   -4.4384    5.4624 H   0  0  0  0  0  0  0  0  0  0  0  0
    1.0116   -3.7866    4.4802 H   0  0  0  0  0  0  0  0  0  0  0  0
    0.2306   -5.2123    6.4134 H   0  0  0  0  0  0  0  0  0  0  0  0
   -0.3070   -5.8236    4.8607 H   0  0  0  0  0  0  0  0  0  0  0  0
   -0.1770   -7.4330    7.3779 H   0  0  0  0  0  0  0  0  0  0  0  0
    0.9109  -10.7776    7.9937 H   0  0  0  0  0  0  0  0  0  0  0  0
    2.6375  -10.5601    6.5368 H   0  0  0  0  0  0  0  0  0  0  0  0
    3.6789   -9.1842    4.7881 H   0  0  0  0  0  0  0  0  0  0  0  0
    3.8921   -6.2530    4.4484 H   0  0  0  0  0  0  0  0  0  0  0  0
    4.0958   -8.2085    2.9456 H   0  0  0  0  0  0  0  0  0  0  0  0
    2.5813   -7.8398    2.1818 H   0  0  0  0  0  0  0  0  0  0  0  0
    5.1593   -6.2062    2.2373 H   0  0  0  0  0  0  0  0  0  0  0  0
    4.5106   -7.0247    0.8453 H   0  0  0  0  0  0  0  0  0  0  0  0
    1.5877   -6.1691    0.8153 H   0  0  0  0  0  0  0  0  0  0  0  0
    2.7174   -6.0236   -0.4841 H   0  0  0  0  0  0  0  0  0  0  0  0
    1.8245   -4.6055    0.0049 H   0  0  0  0  0  0  0  0  0  0  0  0
    6.1931   -2.0374    0.2098 H   0  0  0  0  0  0  0  0  0  0  0  0
    4.2088   -0.1634    0.0335 H   0  0  0  0  0  0  0  0  0  0  0  0
    5.5571   -0.2692   -1.1100 H   0  0  0  0  0  0  0  0  0  0  0  0
    2.7094   -1.0443   -1.6119 H   0  0  0  0  0  0  0  0  0  0  0  0
    3.8925   -0.3781   -2.7415 H   0  0  0  0  0  0  0  0  0  0  0  0
  2  1  1  6
  1 29  1  0
  1 30  1  0
  1 31  1  0
  2 24  1  0
  2 27  1  0
  2  3  1  0
  3  4  1  0
  4 22  1  0
  4  5  1  0
  4 32  1  1
  5  6  1  0
  5 24  1  0
  5 33  1  6
  6  7  1  0
  6 34  1  0
  6 35  1  0
  7  8  1  0
  7 36  1  0
  7 37  1  0
  8 22  1  0
  8  9  1  0
  8 38  1  6
  9 19  1  0
  9 10  1  0
  9 39  1  6
 10 11  1  0
 10 40  1  0
 10 41  1  0
 11 12  1  0
 11 42  1  0
 11 43  1  0
 12 18  2  0
 12 13  1  0
 13 14  2  0
 13 44  1  0
 14 15  1  0
 14 16  1  0
 15 45  1  0
 16 17  2  0
 16 46  1  0
 17 18  1  0
 17 47  1  0
 18 19  1  0
 19 20  1  0
 19 48  1  1
 20 21  1  0
 20 49  1  0
 20 50  1  0
 21 22  1  0
 21 51  1  0
 21 52  1  0
 22 23  1  6
 23 53  1  0
 23 54  1  0
 23 55  1  0
 24 25  1  0
 24 56  1  1
 25 26  1  0
 25 57  1  0
 25 58  1  0
 26 27  1  0
 26 59  1  0
 26 60  1  0
 27 28  2  0
M  END
>  <i_m_ct_stereo_status>  (80) 
1

>  <s_m_source_file>  (80) 
/var/tmp/pbs.5076255.sched01/tmpt68d_85j/0g9mu2vg5.sdf

>  <i_m_source_file_index>  (80) 
34

>  <i_lp_mmshare_version>  (80) 
48012

>  <i_f3d_flags>  (80) 
0

>  <s_epik_input>  (80) 
Tz1DMVtDSDJdW0NIMl1bQ0BIXShbQ0BdMTJbQ0gzXSlbQ0BIXTNbQ0BIXShPMilbQ0BdNChbQ0gzXSlbQ0BIXShbQ0gyXVtDSDJdMylbQ0BIXTVbQ0BIXShbQ0gyXVtDSDJdNCljNmMoW0NIMl1bQ0gyXTUpW2NIXWMoW09IXSlbY0hdW2NIXTY=

>  <s_epik_cmdline>  (80) 
J2VwaWtfcHl0aG9uJywgJy1waHQnLCAnMi4wJywgJy1waCcsICc3LjAnLCAnLXRuJywgJzgnLCAnLW1hJywgJzIwMCcsICctaW1hZScsICc8aW5maWxlLm1hZT4nLCAnLW9tYWUnLCAnPG91dGZpbGUubWFlPic=

>  <r_lp_tautomer_probability>  (80) 
1

>  <r_epik_Ionization_Penalty>  (80) 
0.000119874

>  <r_epik_Ionization_Penalty_Charging>  (80) 
0

>  <r_epik_Ionization_Penalty_Neutral>  (80) 
0.000119874

>  <r_epik_State_Penalty>  (80) 
-0

>  <r_epik_Charging_Adjusted_Penalty>  (80) 
0

>  <i_epik_Tot_Q>  (80) 
0

>  <i_epik_Tot_abs_Q>  (80) 
0

>  <s_lp_Force_Field>  (80) 
OPLS3e

>  <r_lp_Energy>  (80) 
49.9216

>  <b_lp_Chiralities_Consistent>  (80) 
1

>  <s_lp_Variant>  (80) 
23:0-1

>  <s_i_glide_gridfile>  (80) 
pfpi4k_grid

>  <i_i_glide_lignum>  (80) 
34

>  <i_i_glide_rotatable_bonds>  (80) 
1

>  <r_i_docking_score>  (80) 
-3.27308

>  <r_i_glide_ligand_efficiency>  (80) 
-0.116896

>  <r_i_glide_ligand_efficiency_sa>  (80) 
-0.354965

>  <r_i_glide_ligand_efficiency_ln>  (80) 
-0.755524

>  <r_i_glide_gscore>  (80) 
-3.27308

>  <r_i_glide_lipo>  (80) 
-0.309307

>  <r_i_glide_hbond>  (80) 
-0.16

>  <r_i_glide_metal>  (80) 
-0

>  <r_i_glide_rewards>  (80) 
-0.854136

>  <r_i_glide_evdw>  (80) 
-23.2228

>  <r_i_glide_ecoul>  (80) 
-5.25666

>  <r_i_glide_erotb>  (80) 
0

>  <r_i_glide_esite>  (80) 
0

>  <r_i_glide_emodel>  (80) 
-34.1588

>  <r_i_glide_energy>  (80) 
-28.4795

>  <r_i_glide_einternal>  (80) 
0.201327

>  <r_i_glide_intrahb_reward>  (80) 
-0

>  <i_i_glide_confnum>  (80) 
2

>  <i_i_glide_posenum>  (80) 
17

>  <r_i_glide_eff_state_penalty>  (80) 
0

>  <ligand_id>  (80) 
23

>  <original_smiles>  (80) 
CC12OC3C(CCC4C5CCc6cc(O)ccc6C5CCC43C)C1CCC2=O

>  <smiles>  (80) 
[H]Oc1c([H])c([H])c2c(c1[H])C([H])([H])C([H])([H])C1([H])C2([H])C([H])([H])C([H])([H])C2(C([H])([H])[H])C3([H])OC4(C([H])([H])[H])C(=O)C([H])([H])C([H])([H])C4([H])C3([H])C([H])([H])C([H])([H])C12[H]

$$$$
23:0:2
     RDKit          3D

 60 65  0  0  1  0  0  0  0  0999 V2000
    6.7919  -11.8263    4.5287 C   0  0  0  0  0  0  0  0  0  0  0  0
    5.7294  -10.7262    4.6688 C   0  0  1  0  0  0  0  0  0  0  0  0
    6.2451   -9.4658    4.2268 O   0  0  0  0  0  0  0  0  0  0  0  0
    5.4783   -9.0139    3.1166 C   0  0  1  0  0  0  0  0  0  0  0  0
    4.0955   -9.5839    3.3768 C   0  0  1  0  0  0  0  0  0  0  0  0
    3.2188   -9.4603    2.1146 C   0  0  0  0  0  0  0  0  0  0  0  0
    3.4728   -8.1439    1.3539 C   0  0  0  0  0  0  0  0  0  0  0  0
    4.0711   -7.0399    2.2572 C   0  0  2  0  0  0  0  0  0  0  0  0
    4.0868   -5.6240    1.6220 C   0  0  2  0  0  0  0  0  0  0  0  0
    2.7289   -5.1684    1.0687 C   0  0  0  0  0  0  0  0  0  0  0  0
    2.7627   -3.6718    0.7584 C   0  0  0  0  0  0  0  0  0  0  0  0
    3.9579   -3.2775   -0.0798 C   0  0  0  0  0  0  0  0  0  0  0  0
    3.8855   -2.0741   -0.8114 C   0  0  0  0  0  0  0  0  0  0  0  0
    4.9653   -1.6611   -1.6046 C   0  0  0  0  0  0  0  0  0  0  0  0
    4.8797   -0.5090   -2.3247 O   0  0  0  0  0  0  0  0  0  0  0  0
    6.1338   -2.4350   -1.6567 C   0  0  0  0  0  0  0  0  0  0  0  0
    6.2176   -3.6182   -0.9066 C   0  0  0  0  0  0  0  0  0  0  0  0
    5.1303   -4.0736   -0.1319 C   0  0  0  0  0  0  0  0  0  0  0  0
    5.2034   -5.4368    0.5772 C   0  0  1  0  0  0  0  0  0  0  0  0
    6.5676   -5.7360    1.2352 C   0  0  0  0  0  0  0  0  0  0  0  0
    6.6001   -7.1552    1.8281 C   0  0  0  0  0  0  0  0  0  0  0  0
    5.4684   -7.4693    2.8454 C   0  0  2  0  0  0  0  0  0  0  0  0
    5.7251   -6.7052    4.1666 C   0  0  0  0  0  0  0  0  0  0  0  0
    4.4269  -10.9831    3.8897 C   0  0  2  0  0  0  0  0  0  0  0  0
    3.4063  -11.5470    4.8985 C   0  0  0  0  0  0  0  0  0  0  0  0
    3.8151  -11.0256    6.2825 C   0  0  0  0  0  0  0  0  0  0  0  0
    5.2643  -10.6015    6.1170 C   0  0  0  0  0  0  0  0  0  0  0  0
    5.9706  -10.2097    7.0436 O   0  0  0  0  0  0  0  0  0  0  0  0
    6.4193  -12.7839    4.8909 H   0  0  0  0  0  0  0  0  0  0  0  0
    7.6840  -11.5908    5.1081 H   0  0  0  0  0  0  0  0  0  0  0  0
    7.0978  -11.9635    3.4934 H   0  0  0  0  0  0  0  0  0  0  0  0
    5.8696   -9.5437    2.2489 H   0  0  0  0  0  0  0  0  0  0  0  0
    3.6379   -9.0166    4.1877 H   0  0  0  0  0  0  0  0  0  0  0  0
    3.4033  -10.2768    1.4255 H   0  0  0  0  0  0  0  0  0  0  0  0
    2.1721   -9.5335    2.4096 H   0  0  0  0  0  0  0  0  0  0  0  0
    4.1551   -8.3400    0.5253 H   0  0  0  0  0  0  0  0  0  0  0  0
    2.5296   -7.8303    0.9155 H   0  0  0  0  0  0  0  0  0  0  0  0
    3.3807   -6.9597    3.0982 H   0  0  0  0  0  0  0  0  0  0  0  0
    4.3067   -4.9353    2.4361 H   0  0  0  0  0  0  0  0  0  0  0  0
    2.5087   -5.7063    0.1442 H   0  0  0  0  0  0  0  0  0  0  0  0
    1.9252   -5.3906    1.7715 H   0  0  0  0  0  0  0  0  0  0  0  0
    1.8510   -3.3665    0.2441 H   0  0  0  0  0  0  0  0  0  0  0  0
    2.8161   -3.1047    1.6891 H   0  0  0  0  0  0  0  0  0  0  0  0
    2.9972   -1.4651   -0.7707 H   0  0  0  0  0  0  0  0  0  0  0  0
    4.0551   -0.0552   -2.2090 H   0  0  0  0  0  0  0  0  0  0  0  0
    6.9646   -2.1435   -2.2779 H   0  0  0  0  0  0  0  0  0  0  0  0
    7.1323   -4.1804   -0.9685 H   0  0  0  0  0  0  0  0  0  0  0  0
    5.0466   -6.1702   -0.2177 H   0  0  0  0  0  0  0  0  0  0  0  0
    7.3681   -5.6845    0.5012 H   0  0  0  0  0  0  0  0  0  0  0  0
    6.8025   -4.9890    1.9936 H   0  0  0  0  0  0  0  0  0  0  0  0
    6.5400   -7.8554    0.9937 H   0  0  0  0  0  0  0  0  0  0  0  0
    7.5714   -7.3341    2.2916 H   0  0  0  0  0  0  0  0  0  0  0  0
    5.7401   -5.6270    4.0162 H   0  0  0  0  0  0  0  0  0  0  0  0
    6.6859   -6.9734    4.6068 H   0  0  0  0  0  0  0  0  0  0  0  0
    4.9560   -6.9190    4.9087 H   0  0  0  0  0  0  0  0  0  0  0  0
    4.5889  -11.6671    3.0557 H   0  0  0  0  0  0  0  0  0  0  0  0
    2.3797  -11.2765    4.6447 H   0  0  0  0  0  0  0  0  0  0  0  0
    3.4556  -12.6377    4.9117 H   0  0  0  0  0  0  0  0  0  0  0  0
    3.2195  -10.1605    6.5660 H   0  0  0  0  0  0  0  0  0  0  0  0
    3.7023  -11.7829    7.0572 H   0  0  0  0  0  0  0  0  0  0  0  0
  2  1  1  1
  1 29  1  0
  1 30  1  0
  1 31  1  0
  2 24  1  0
  2 27  1  0
  2  3  1  0
  3  4  1  0
  4 22  1  0
  4  5  1  0
  4 32  1  6
  5  6  1  0
  5 24  1  0
  5 33  1  1
  6  7  1  0
  6 34  1  0
  6 35  1  0
  7  8  1  0
  7 36  1  0
  7 37  1  0
  8 22  1  0
  8  9  1  0
  8 38  1  1
  9 19  1  0
  9 10  1  0
  9 39  1  1
 10 11  1  0
 10 40  1  0
 10 41  1  0
 11 12  1  0
 11 42  1  0
 11 43  1  0
 12 18  2  0
 12 13  1  0
 13 14  2  0
 13 44  1  0
 14 15  1  0
 14 16  1  0
 15 45  1  0
 16 17  2  0
 16 46  1  0
 17 18  1  0
 17 47  1  0
 18 19  1  0
 19 20  1  0
 19 48  1  6
 20 21  1  0
 20 49  1  0
 20 50  1  0
 21 22  1  0
 21 51  1  0
 21 52  1  0
 22 23  1  1
 23 53  1  0
 23 54  1  0
 23 55  1  0
 24 25  1  0
 24 56  1  6
 25 26  1  0
 25 57  1  0
 25 58  1  0
 26 27  1  0
 26 59  1  0
 26 60  1  0
 27 28  2  0
M  END
>  <i_m_ct_stereo_status>  (81) 
1

>  <s_m_source_file>  (81) 
/var/tmp/pbs.5076255.sched01/tmpt68d_85j/0g9mu2vg5.sdf

>  <i_m_source_file_index>  (81) 
34

>  <i_lp_mmshare_version>  (81) 
48012

>  <i_f3d_flags>  (81) 
0

>  <s_epik_input>  (81) 
Tz1DMVtDSDJdW0NIMl1bQ0BIXShbQ0BdMTJbQ0gzXSlbQ0BIXTNbQ0BIXShPMilbQ0BdNChbQ0gzXSlbQ0BIXShbQ0gyXVtDSDJdMylbQ0BIXTVbQ0BIXShbQ0gyXVtDSDJdNCljNmMoW0NIMl1bQ0gyXTUpW2NIXWMoW09IXSlbY0hdW2NIXTY=

>  <s_epik_cmdline>  (81) 
J2VwaWtfcHl0aG9uJywgJy1waHQnLCAnMi4wJywgJy1waCcsICc3LjAnLCAnLXRuJywgJzgnLCAnLW1hJywgJzIwMCcsICctaW1hZScsICc8aW5maWxlLm1hZT4nLCAnLW9tYWUnLCAnPG91dGZpbGUubWFlPic=

>  <r_lp_tautomer_probability>  (81) 
1

>  <r_epik_Ionization_Penalty>  (81) 
0.000119874

>  <r_epik_Ionization_Penalty_Charging>  (81) 
0

>  <r_epik_Ionization_Penalty_Neutral>  (81) 
0.000119874

>  <r_epik_State_Penalty>  (81) 
-0

>  <r_epik_Charging_Adjusted_Penalty>  (81) 
0

>  <i_epik_Tot_Q>  (81) 
0

>  <i_epik_Tot_abs_Q>  (81) 
0

>  <s_lp_Force_Field>  (81) 
OPLS3e

>  <r_lp_Energy>  (81) 
49.9216

>  <b_lp_Chiralities_Consistent>  (81) 
1

>  <s_lp_Variant>  (81) 
23:0-1

>  <s_i_glide_gridfile>  (81) 
pfpi4k_grid

>  <i_i_glide_lignum>  (81) 
34

>  <i_i_glide_rotatable_bonds>  (81) 
1

>  <r_i_docking_score>  (81) 
-2.74874

>  <r_i_glide_ligand_efficiency>  (81) 
-0.0981692

>  <r_i_glide_ligand_efficiency_sa>  (81) 
-0.2981

>  <r_i_glide_ligand_efficiency_ln>  (81) 
-0.63449

>  <r_i_glide_gscore>  (81) 
-2.74874

>  <r_i_glide_lipo>  (81) 
-0.46347

>  <r_i_glide_hbond>  (81) 
0

>  <r_i_glide_metal>  (81) 
-0

>  <r_i_glide_rewards>  (81) 
-0.814638

>  <r_i_glide_evdw>  (81) 
-23.8986

>  <r_i_glide_ecoul>  (81) 
-1.78903

>  <r_i_glide_erotb>  (81) 
0

>  <r_i_glide_esite>  (81) 
-0.00734871

>  <r_i_glide_emodel>  (81) 
-30.6195

>  <r_i_glide_energy>  (81) 
-25.6876

>  <r_i_glide_einternal>  (81) 
2.61642e-05

>  <r_i_glide_intrahb_reward>  (81) 
-0

>  <i_i_glide_confnum>  (81) 
1

>  <i_i_glide_posenum>  (81) 
5

>  <r_i_glide_eff_state_penalty>  (81) 
0

>  <ligand_id>  (81) 
23

>  <original_smiles>  (81) 
CC12OC3C(CCC4C5CCc6cc(O)ccc6C5CCC43C)C1CCC2=O

>  <smiles>  (81) 
[H]Oc1c([H])c([H])c2c(c1[H])C([H])([H])C([H])([H])C1([H])C2([H])C([H])([H])C([H])([H])C2(C([H])([H])[H])C3([H])OC4(C([H])([H])[H])C(=O)C([H])([H])C([H])([H])C4([H])C3([H])C([H])([H])C([H])([H])C12[H]

$$$$
24:0:0
     RDKit          3D

 16 18  0  0  1  0  0  0  0  0999 V2000
   -5.3764   -7.0778   -5.5338 C   0  0  0  0  0  0  0  0  0  0  0  0
   -5.1999   -6.0378   -4.7131 N   0  0  0  0  0  0  0  0  0  0  0  0
   -6.1913   -5.1294   -4.6056 C   0  0  0  0  0  0  0  0  0  0  0  0
   -7.3344   -5.2917   -5.4086 C   0  0  0  0  0  0  0  0  0  0  0  0
   -7.3846   -6.3715   -6.2602 C   0  0  0  0  0  0  0  0  0  0  0  0
   -6.4176   -7.2986   -6.3366 N   0  0  0  0  0  0  0  0  0  0  0  0
   -8.4530   -6.3536   -7.1224 O   0  0  0  0  0  0  0  0  0  0  0  0
   -9.2726   -5.2166   -6.7587 C   0  0  2  0  0  0  0  0  0  0  0  0
   -8.7111   -3.8500   -7.0371 C   0  0  0  0  0  0  0  0  0  0  0  0
   -8.4930   -4.4625   -5.6756 C   0  0  2  0  0  0  0  0  0  0  0  0
   -4.5460   -7.7530   -5.6369 H   0  0  0  0  0  0  0  0  0  0  0  0
   -6.0518   -4.2724   -3.9676 H   0  0  0  0  0  0  0  0  0  0  0  0
  -10.3509   -5.3488   -6.6580 H   0  0  0  0  0  0  0  0  0  0  0  0
   -7.8288   -3.7650   -7.6663 H   0  0  0  0  0  0  0  0  0  0  0  0
   -9.4352   -3.0424   -7.0834 H   0  0  0  0  0  0  0  0  0  0  0  0
   -9.0483   -4.1382   -4.8017 H   0  0  0  0  0  0  0  0  0  0  0  0
  1  6  2  0
  1  2  1  0
  1 11  1  0
  2  3  2  0
  3  4  1  0
  3 12  1  0
  4 10  1  0
  4  5  2  0
  5  6  1  0
  5  7  1  0
  7  8  1  0
  8 10  1  0
  8  9  1  0
  8 13  1  1
  9 10  1  0
  9 14  1  0
  9 15  1  0
 10 16  1  1
M  END
>  <i_m_ct_stereo_status>  (82) 
1

>  <s_m_source_file>  (82) 
/var/tmp/pbs.5076255.sched01/tmpt68d_85j/0g9mu2vg5.sdf

>  <i_m_source_file_index>  (82) 
35

>  <i_lp_mmshare_version>  (82) 
48012

>  <i_f3d_flags>  (82) 
0

>  <s_epik_input>  (82) 
W2NIXTFuW2NIXW5jKGMxMilPW0NASF0zW0NAQEhdMltDSDJdMw==

>  <s_epik_cmdline>  (82) 
J2VwaWtfcHl0aG9uJywgJy1waHQnLCAnMi4wJywgJy1waCcsICc3LjAnLCAnLXRuJywgJzgnLCAnLW1hJywgJzIwMCcsICctaW1hZScsICc8aW5maWxlLm1hZT4nLCAnLW9tYWUnLCAnPG91dGZpbGUubWFlPic=

>  <r_lp_tautomer_probability>  (82) 
1

>  <r_epik_Ionization_Penalty>  (82) 
6.94152e-05

>  <r_epik_Ionization_Penalty_Charging>  (82) 
0

>  <r_epik_Ionization_Penalty_Neutral>  (82) 
6.94152e-05

>  <r_epik_State_Penalty>  (82) 
-0

>  <r_epik_Charging_Adjusted_Penalty>  (82) 
0

>  <i_epik_Tot_Q>  (82) 
0

>  <i_epik_Tot_abs_Q>  (82) 
0

>  <s_lp_Force_Field>  (82) 
OPLS3e

>  <r_lp_Energy>  (82) 
25.5702

>  <b_lp_Chiralities_Consistent>  (82) 
1

>  <s_lp_Variant>  (82) 
24:0-1

>  <s_i_glide_gridfile>  (82) 
pfpi4k_grid

>  <i_i_glide_lignum>  (82) 
35

>  <i_i_glide_rotatable_bonds>  (82) 
0

>  <r_i_docking_score>  (82) 
-6.9655

>  <r_i_glide_ligand_efficiency>  (82) 
-0.69655

>  <r_i_glide_ligand_efficiency_sa>  (82) 
-1.50067

>  <r_i_glide_ligand_efficiency_ln>  (82) 
-2.1091

>  <r_i_glide_gscore>  (82) 
-6.9655

>  <r_i_glide_lipo>  (82) 
-1.65882

>  <r_i_glide_hbond>  (82) 
-0.279859

>  <r_i_glide_metal>  (82) 
-0

>  <r_i_glide_rewards>  (82) 
-3.72888

>  <r_i_glide_evdw>  (82) 
-19.4649

>  <r_i_glide_ecoul>  (82) 
-2.16463

>  <r_i_glide_erotb>  (82) 
0

>  <r_i_glide_esite>  (82) 
0

>  <r_i_glide_emodel>  (82) 
-31.4636

>  <r_i_glide_energy>  (82) 
-21.6295

>  <r_i_glide_einternal>  (82) 
0

>  <r_i_glide_intrahb_reward>  (82) 
-0

>  <i_i_glide_confnum>  (82) 
1

>  <i_i_glide_posenum>  (82) 
9

>  <r_i_glide_eff_state_penalty>  (82) 
0

>  <ligand_id>  (82) 
24

>  <original_smiles>  (82) 
c1ncc2c(n1)OC1CC21

>  <smiles>  (82) 
[H]c1nc([H])c2c(n1)OC1([H])C([H])([H])C21[H]

$$$$
24:0:1
     RDKit          3D

 16 18  0  0  1  0  0  0  0  0999 V2000
   -5.0033   -9.2597   -5.5332 C   0  0  0  0  0  0  0  0  0  0  0  0
   -6.2506   -9.3738   -6.0257 N   0  0  0  0  0  0  0  0  0  0  0  0
   -6.9840   -8.2438   -6.1441 C   0  0  0  0  0  0  0  0  0  0  0  0
   -6.4163   -7.0196   -5.7756 C   0  0  0  0  0  0  0  0  0  0  0  0
   -5.1240   -7.0228   -5.2982 C   0  0  0  0  0  0  0  0  0  0  0  0
   -4.3803   -8.1317   -5.1690 N   0  0  0  0  0  0  0  0  0  0  0  0
   -4.6827   -5.7984   -4.8738 O   0  0  0  0  0  0  0  0  0  0  0  0
   -5.7459   -4.8473   -5.1102 C   0  0  2  0  0  0  0  0  0  0  0  0
   -6.9923   -5.0099   -4.2800 C   0  0  0  0  0  0  0  0  0  0  0  0
   -6.9246   -5.6557   -5.6469 C   0  0  2  0  0  0  0  0  0  0  0  0
   -4.4333  -10.1687   -5.4185 H   0  0  0  0  0  0  0  0  0  0  0  0
   -8.0117   -8.3347   -6.4658 H   0  0  0  0  0  0  0  0  0  0  0  0
   -5.4849   -3.8690   -5.5224 H   0  0  0  0  0  0  0  0  0  0  0  0
   -6.9623   -5.6738   -3.4136 H   0  0  0  0  0  0  0  0  0  0  0  0
   -7.6394   -4.1443   -4.1888 H   0  0  0  0  0  0  0  0  0  0  0  0
   -7.4389   -5.2535   -6.5117 H   0  0  0  0  0  0  0  0  0  0  0  0
  1  6  2  0
  1  2  1  0
  1 11  1  0
  2  3  2  0
  3  4  1  0
  3 12  1  0
  4 10  1  0
  4  5  2  0
  5  6  1  0
  5  7  1  0
  7  8  1  0
  8 10  1  0
  8  9  1  0
  8 13  1  6
  9 10  1  0
  9 14  1  0
  9 15  1  0
 10 16  1  6
M  END
>  <i_m_ct_stereo_status>  (83) 
1

>  <s_m_source_file>  (83) 
/var/tmp/pbs.5076255.sched01/tmpt68d_85j/0g9mu2vg5.sdf

>  <i_m_source_file_index>  (83) 
35

>  <i_lp_mmshare_version>  (83) 
48012

>  <i_f3d_flags>  (83) 
0

>  <s_epik_input>  (83) 
W2NIXTFuW2NIXW5jKGMxMilPW0NASF0zW0NAQEhdMltDSDJdMw==

>  <s_epik_cmdline>  (83) 
J2VwaWtfcHl0aG9uJywgJy1waHQnLCAnMi4wJywgJy1waCcsICc3LjAnLCAnLXRuJywgJzgnLCAnLW1hJywgJzIwMCcsICctaW1hZScsICc8aW5maWxlLm1hZT4nLCAnLW9tYWUnLCAnPG91dGZpbGUubWFlPic=

>  <r_lp_tautomer_probability>  (83) 
1

>  <r_epik_Ionization_Penalty>  (83) 
6.94152e-05

>  <r_epik_Ionization_Penalty_Charging>  (83) 
0

>  <r_epik_Ionization_Penalty_Neutral>  (83) 
6.94152e-05

>  <r_epik_State_Penalty>  (83) 
-0

>  <r_epik_Charging_Adjusted_Penalty>  (83) 
0

>  <i_epik_Tot_Q>  (83) 
0

>  <i_epik_Tot_abs_Q>  (83) 
0

>  <s_lp_Force_Field>  (83) 
OPLS3e

>  <r_lp_Energy>  (83) 
25.5702

>  <b_lp_Chiralities_Consistent>  (83) 
1

>  <s_lp_Variant>  (83) 
24:0-1

>  <s_i_glide_gridfile>  (83) 
pfpi4k_grid

>  <i_i_glide_lignum>  (83) 
35

>  <i_i_glide_rotatable_bonds>  (83) 
0

>  <r_i_docking_score>  (83) 
-6.90262

>  <r_i_glide_ligand_efficiency>  (83) 
-0.690262

>  <r_i_glide_ligand_efficiency_sa>  (83) 
-1.48712

>  <r_i_glide_ligand_efficiency_ln>  (83) 
-2.09007

>  <r_i_glide_gscore>  (83) 
-6.90262

>  <r_i_glide_lipo>  (83) 
-1.6941

>  <r_i_glide_hbond>  (83) 
-0.32

>  <r_i_glide_metal>  (83) 
-0

>  <r_i_glide_rewards>  (83) 
-3.70868

>  <r_i_glide_evdw>  (83) 
-18.1372

>  <r_i_glide_ecoul>  (83) 
-1.81988

>  <r_i_glide_erotb>  (83) 
0

>  <r_i_glide_esite>  (83) 
0

>  <r_i_glide_emodel>  (83) 
-29.7578

>  <r_i_glide_energy>  (83) 
-19.957

>  <r_i_glide_einternal>  (83) 
0

>  <r_i_glide_intrahb_reward>  (83) 
-0

>  <i_i_glide_confnum>  (83) 
1

>  <i_i_glide_posenum>  (83) 
15

>  <r_i_glide_eff_state_penalty>  (83) 
0

>  <ligand_id>  (83) 
24

>  <original_smiles>  (83) 
c1ncc2c(n1)OC1CC21

>  <smiles>  (83) 
[H]c1nc([H])c2c(n1)OC1([H])C([H])([H])C21[H]

$$$$
24:0:2
     RDKit          3D

 16 18  0  0  1  0  0  0  0  0999 V2000
   -6.4302   -8.3728   -7.4146 C   0  0  0  0  0  0  0  0  0  0  0  0
   -5.4066   -8.6218   -6.5833 N   0  0  0  0  0  0  0  0  0  0  0  0
   -5.2678   -7.8176   -5.5089 C   0  0  0  0  0  0  0  0  0  0  0  0
   -6.1809   -6.7736   -5.3152 C   0  0  0  0  0  0  0  0  0  0  0  0
   -7.1871   -6.6061   -6.2465 C   0  0  0  0  0  0  0  0  0  0  0  0
   -7.3452   -7.4017   -7.3150 N   0  0  0  0  0  0  0  0  0  0  0  0
   -7.9436   -5.4771   -6.0518 O   0  0  0  0  0  0  0  0  0  0  0  0
   -7.4500   -4.8266   -4.8597 C   0  0  2  0  0  0  0  0  0  0  0  0
   -6.0506   -4.2533   -4.9124 C   0  0  0  0  0  0  0  0  0  0  0  0
   -6.2583   -5.6499   -4.3870 C   0  0  2  0  0  0  0  0  0  0  0  0
   -6.5198   -9.0195   -8.2791 H   0  0  0  0  0  0  0  0  0  0  0  0
   -4.4196   -7.9742   -4.8572 H   0  0  0  0  0  0  0  0  0  0  0  0
   -8.1811   -4.4462   -4.1466 H   0  0  0  0  0  0  0  0  0  0  0  0
   -5.5614   -4.1536   -5.8824 H   0  0  0  0  0  0  0  0  0  0  0  0
   -5.8161   -3.4789   -4.1883 H   0  0  0  0  0  0  0  0  0  0  0  0
   -6.1905   -5.8914   -3.3305 H   0  0  0  0  0  0  0  0  0  0  0  0
  1  6  2  0
  1  2  1  0
  1 11  1  0
  2  3  2  0
  3  4  1  0
  3 12  1  0
  4 10  1  0
  4  5  2  0
  5  6  1  0
  5  7  1  0
  7  8  1  0
  8 10  1  0
  8  9  1  0
  8 13  1  1
  9 10  1  0
  9 14  1  0
  9 15  1  0
 10 16  1  1
M  END
>  <i_m_ct_stereo_status>  (84) 
1

>  <s_m_source_file>  (84) 
/var/tmp/pbs.5076255.sched01/tmpt68d_85j/0g9mu2vg5.sdf

>  <i_m_source_file_index>  (84) 
35

>  <i_lp_mmshare_version>  (84) 
48012

>  <i_f3d_flags>  (84) 
0

>  <s_epik_input>  (84) 
W2NIXTFuW2NIXW5jKGMxMilPW0NASF0zW0NAQEhdMltDSDJdMw==

>  <s_epik_cmdline>  (84) 
J2VwaWtfcHl0aG9uJywgJy1waHQnLCAnMi4wJywgJy1waCcsICc3LjAnLCAnLXRuJywgJzgnLCAnLW1hJywgJzIwMCcsICctaW1hZScsICc8aW5maWxlLm1hZT4nLCAnLW9tYWUnLCAnPG91dGZpbGUubWFlPic=

>  <r_lp_tautomer_probability>  (84) 
1

>  <r_epik_Ionization_Penalty>  (84) 
6.94152e-05

>  <r_epik_Ionization_Penalty_Charging>  (84) 
0

>  <r_epik_Ionization_Penalty_Neutral>  (84) 
6.94152e-05

>  <r_epik_State_Penalty>  (84) 
-0

>  <r_epik_Charging_Adjusted_Penalty>  (84) 
0

>  <i_epik_Tot_Q>  (84) 
0

>  <i_epik_Tot_abs_Q>  (84) 
0

>  <s_lp_Force_Field>  (84) 
OPLS3e

>  <r_lp_Energy>  (84) 
25.5702

>  <b_lp_Chiralities_Consistent>  (84) 
1

>  <s_lp_Variant>  (84) 
24:0-1

>  <s_i_glide_gridfile>  (84) 
pfpi4k_grid

>  <i_i_glide_lignum>  (84) 
35

>  <i_i_glide_rotatable_bonds>  (84) 
0

>  <r_i_docking_score>  (84) 
-5.48948

>  <r_i_glide_ligand_efficiency>  (84) 
-0.548948

>  <r_i_glide_ligand_efficiency_sa>  (84) 
-1.18267

>  <r_i_glide_ligand_efficiency_ln>  (84) 
-1.66218

>  <r_i_glide_gscore>  (84) 
-5.48948

>  <r_i_glide_lipo>  (84) 
-1.83382

>  <r_i_glide_hbond>  (84) 
0

>  <r_i_glide_metal>  (84) 
-0

>  <r_i_glide_rewards>  (84) 
-2.54936

>  <r_i_glide_evdw>  (84) 
-20.2966

>  <r_i_glide_ecoul>  (84) 
-0.609791

>  <r_i_glide_erotb>  (84) 
0

>  <r_i_glide_esite>  (84) 
0

>  <r_i_glide_emodel>  (84) 
-28.5964

>  <r_i_glide_energy>  (84) 
-20.9064

>  <r_i_glide_einternal>  (84) 
0

>  <r_i_glide_intrahb_reward>  (84) 
-0

>  <i_i_glide_confnum>  (84) 
2

>  <i_i_glide_posenum>  (84) 
7

>  <r_i_glide_eff_state_penalty>  (84) 
0

>  <ligand_id>  (84) 
24

>  <original_smiles>  (84) 
c1ncc2c(n1)OC1CC21

>  <smiles>  (84) 
[H]c1nc([H])c2c(n1)OC1([H])C([H])([H])C21[H]

$$$$
25:0:0
     RDKit          3D

 58 61  0  0  1  0  0  0  0  0999 V2000
   -1.7022   -9.3294    2.2899 C   0  0  0  0  0  0  0  0  0  0  0  0
   -0.9931   -8.1517    2.9698 C   0  0  0  0  0  0  0  0  0  0  0  0
   -0.4839   -8.5042    4.3788 C   0  0  0  0  0  0  0  0  0  0  0  0
    0.5466   -7.5109    4.8930 C   0  0  0  0  0  0  0  0  0  0  0  0
    0.1321   -6.4767    5.7739 C   0  0  0  0  0  0  0  0  0  0  0  0
    1.0886   -5.5536    6.2607 C   0  0  0  0  0  0  0  0  0  0  0  0
    1.0285   -4.4372    7.1369 C   0  0  0  0  0  0  0  0  0  0  0  0
   -0.1113   -3.8119    7.8959 C   0  0  0  0  0  0  0  0  0  0  0  0
   -0.1864   -2.5079    7.6273 F   0  0  0  0  0  0  0  0  0  0  0  0
   -1.2800   -4.3643    7.5710 F   0  0  0  0  0  0  0  0  0  0  0  0
    0.0709   -3.9556    9.2076 F   0  0  0  0  0  0  0  0  0  0  0  0
    2.2537   -3.9081    7.2589 N   0  0  0  0  0  0  0  0  0  0  0  0
    3.1247   -4.6788    6.4553 O   0  0  0  0  0  0  0  0  0  0  0  0
    2.4113   -5.6907    5.8479 C   0  0  0  0  0  0  0  0  0  0  0  0
    2.8525   -6.6860    4.9834 C   0  0  0  0  0  0  0  0  0  0  0  0
    1.9069   -7.6191    4.4899 C   0  0  0  0  0  0  0  0  0  0  0  0
    2.2249   -8.6395    3.6188 O   0  0  0  0  0  0  0  0  0  0  0  0
    3.4950   -8.6274    2.9740 C   0  0  0  0  0  0  0  0  0  0  0  0
    3.5173   -7.5273    1.9054 C   0  0  0  0  0  0  0  0  0  0  0  0
    4.9076   -7.3270    1.2777 C   0  0  0  0  0  0  0  0  0  0  0  0
    4.9513   -6.2351    0.1877 C   0  0  0  0  0  0  0  0  0  0  0  0
    4.6297   -4.8766    0.6751 N   0  0  0  0  0  0  0  0  0  0  0  0
    3.3281   -4.4160    0.5944 C   0  0  0  0  0  0  0  0  0  0  0  0
    2.3062   -5.0729    0.4822 O   0  0  0  0  0  0  0  0  0  0  0  0
    3.4187   -3.0797    0.7997 N   0  0  0  0  0  0  0  0  0  0  0  0
    4.7606   -2.6410    1.1487 C   0  0  0  0  0  0  0  0  0  0  0  0
    5.3162   -1.6404    0.1352 C   0  0  0  0  0  0  0  0  0  0  0  0
    4.9435   -0.2605    0.6790 C   0  0  0  0  0  0  0  0  0  0  0  0
    4.4228   -0.4630    2.1138 C   0  0  0  0  0  0  0  0  0  0  0  0
    4.7517   -1.9098    2.4992 C   0  0  0  0  0  0  0  0  0  0  0  0
    5.5540   -3.9464    1.0589 C   0  0  0  0  0  0  0  0  0  0  0  0
    6.7971   -3.9952    1.2157 O   0  0  0  0  0  0  0  0  0  0  0  0
   -2.0257   -9.0815    1.2809 H   0  0  0  0  0  0  0  0  0  0  0  0
   -2.5810   -9.6369    2.8529 H   0  0  0  0  0  0  0  0  0  0  0  0
   -1.0406  -10.1894    2.1932 H   0  0  0  0  0  0  0  0  0  0  0  0
   -0.1570   -7.8500    2.3367 H   0  0  0  0  0  0  0  0  0  0  0  0
   -1.6667   -7.2971    3.0252 H   0  0  0  0  0  0  0  0  0  0  0  0
   -1.3275   -8.5732    5.0704 H   0  0  0  0  0  0  0  0  0  0  0  0
   -0.0335   -9.4967    4.3744 H   0  0  0  0  0  0  0  0  0  0  0  0
   -0.8954   -6.3919    6.0757 H   0  0  0  0  0  0  0  0  0  0  0  0
    3.8947   -6.7199    4.7053 H   0  0  0  0  0  0  0  0  0  0  0  0
    4.3112   -8.5068    3.6870 H   0  0  0  0  0  0  0  0  0  0  0  0
    3.6585   -9.5971    2.5003 H   0  0  0  0  0  0  0  0  0  0  0  0
    2.7811   -7.7614    1.1339 H   0  0  0  0  0  0  0  0  0  0  0  0
    3.1915   -6.5905    2.3545 H   0  0  0  0  0  0  0  0  0  0  0  0
    5.6394   -7.0696    2.0427 H   0  0  0  0  0  0  0  0  0  0  0  0
    5.2286   -8.2673    0.8287 H   0  0  0  0  0  0  0  0  0  0  0  0
    5.9352   -6.2204   -0.3055 H   0  0  0  0  0  0  0  0  0  0  0  0
    4.2528   -6.5076   -0.6130 H   0  0  0  0  0  0  0  0  0  0  0  0
    2.6420   -2.4564    0.6384 H   0  0  0  0  0  0  0  0  0  0  0  0
    6.4068   -1.7240    0.0993 H   0  0  0  0  0  0  0  0  0  0  0  0
    4.9348   -1.8258   -0.8750 H   0  0  0  0  0  0  0  0  0  0  0  0
    5.8232    0.3835    0.6638 H   0  0  0  0  0  0  0  0  0  0  0  0
    4.1751    0.1917    0.0519 H   0  0  0  0  0  0  0  0  0  0  0  0
    4.8434    0.2526    2.8192 H   0  0  0  0  0  0  0  0  0  0  0  0
    3.3389   -0.3366    2.1193 H   0  0  0  0  0  0  0  0  0  0  0  0
    4.0087   -2.3191    3.1884 H   0  0  0  0  0  0  0  0  0  0  0  0
    5.7233   -1.9809    2.9846 H   0  0  0  0  0  0  0  0  0  0  0  0
  1  2  1  0
  1 33  1  0
  1 34  1  0
  1 35  1  0
  2  3  1  0
  2 36  1  0
  2 37  1  0
  3  4  1  0
  3 38  1  0
  3 39  1  0
  4 16  2  0
  4  5  1  0
  5  6  2  0
  5 40  1  0
  6 14  1  0
  6  7  1  0
  7  8  1  0
  7 12  2  0
  8  9  1  0
  8 10  1  0
  8 11  1  0
 12 13  1  0
 13 14  1  0
 14 15  2  0
 15 16  1  0
 15 41  1  0
 16 17  1  0
 17 18  1  0
 18 19  1  0
 18 42  1  0
 18 43  1  0
 19 20  1  0
 19 44  1  0
 19 45  1  0
 20 21  1  0
 20 46  1  0
 20 47  1  0
 21 22  1  0
 21 48  1  0
 21 49  1  0
 22 31  1  0
 22 23  1  0
 23 24  2  0
 23 25  1  0
 25 26  1  0
 25 50  1  0
 26 30  1  0
 26 27  1  0
 26 31  1  0
 27 28  1  0
 27 51  1  0
 27 52  1  0
 28 29  1  0
 28 53  1  0
 28 54  1  0
 29 30  1  0
 29 55  1  0
 29 56  1  0
 30 57  1  0
 30 58  1  0
 31 32  2  0
M  END
>  <i_m_ct_stereo_status>  (85) 
1

>  <s_m_source_file>  (85) 
/var/tmp/pbs.5076255.sched01/tmpt68d_85j/0g9mu2vg5.sdf

>  <i_m_source_file_index>  (85) 
36

>  <i_lp_mmshare_version>  (85) 
48012

>  <i_f3d_flags>  (85) 
0

>  <s_epik_input>  (85) 
RkMoRikoRiljMW5vYyhjMTIpW2NIXWMoYyhbY0hdMilbQ0gyXVtDSDJdW0NIM10pT1tDSDJdW0NIMl1bQ0gyXVtDSDJdTihDMz1PKUMoPU8pW05IXUMzNFtDSDJdW0NIMl1bQ0gyXVtDSDJdNA==

>  <s_epik_cmdline>  (85) 
J2VwaWtfcHl0aG9uJywgJy1waHQnLCAnMi4wJywgJy1waCcsICc3LjAnLCAnLXRuJywgJzgnLCAnLW1hJywgJzIwMCcsICctaW1hZScsICc8aW5maWxlLm1hZT4nLCAnLW9tYWUnLCAnPG91dGZpbGUubWFlPic=

>  <r_lp_tautomer_probability>  (85) 
1

>  <r_epik_Ionization_Penalty>  (85) 
3.92517e-05

>  <r_epik_Ionization_Penalty_Charging>  (85) 
0

>  <r_epik_Ionization_Penalty_Neutral>  (85) 
3.92517e-05

>  <r_epik_State_Penalty>  (85) 
-0

>  <r_epik_Charging_Adjusted_Penalty>  (85) 
0

>  <i_epik_Tot_Q>  (85) 
0

>  <i_epik_Tot_abs_Q>  (85) 
0

>  <s_lp_Force_Field>  (85) 
OPLS3e

>  <r_lp_Energy>  (85) 
21.0525

>  <b_lp_Chiralities_Consistent>  (85) 
1

>  <s_lp_Variant>  (85) 
25:0-1

>  <s_i_glide_gridfile>  (85) 
pfpi4k_grid

>  <i_i_glide_lignum>  (85) 
36

>  <i_i_glide_rotatable_bonds>  (85) 
9

>  <r_i_docking_score>  (85) 
-2.42405

>  <r_i_glide_ligand_efficiency>  (85) 
-0.0757516

>  <r_i_glide_ligand_efficiency_sa>  (85) 
-0.240496

>  <r_i_glide_ligand_efficiency_ln>  (85) 
-0.542811

>  <r_i_glide_gscore>  (85) 
-2.42405

>  <r_i_glide_lipo>  (85) 
-0.878119

>  <r_i_glide_hbond>  (85) 
-0.00373775

>  <r_i_glide_metal>  (85) 
-0

>  <r_i_glide_rewards>  (85) 
-0.466073

>  <r_i_glide_evdw>  (85) 
-26.4882

>  <r_i_glide_ecoul>  (85) 
-1.60128

>  <r_i_glide_erotb>  (85) 
0.585735

>  <r_i_glide_esite>  (85) 
-0.097251

>  <r_i_glide_emodel>  (85) 
-29.9806

>  <r_i_glide_energy>  (85) 
-28.0895

>  <r_i_glide_einternal>  (85) 
2.927

>  <r_i_glide_intrahb_reward>  (85) 
-0

>  <i_i_glide_confnum>  (85) 
5

>  <i_i_glide_posenum>  (85) 
32

>  <r_i_glide_eff_state_penalty>  (85) 
0

>  <ligand_id>  (85) 
25

>  <original_smiles>  (85) 
CCCc1cc2c(C(F)(F)F)noc2cc1OCCCCN1C(=O)NC2(CCCC2)C1=O

>  <smiles>  (85) 
[H]c1c(OC([H])([H])C([H])([H])C([H])([H])C([H])([H])N2C(=O)N([H])C3(C2=O)C([H])([H])C([H])([H])C([H])([H])C3([H])[H])c(C([H])([H])C([H])([H])C([H])([H])[H])c([H])c2c(C(F)(F)F)noc12

$$$$
25:0:1
     RDKit          3D

 58 61  0  0  1  0  0  0  0  0999 V2000
    2.9300   -7.6820    8.0571 C   0  0  0  0  0  0  0  0  0  0  0  0
    2.0953   -6.5304    8.6334 C   0  0  0  0  0  0  0  0  0  0  0  0
    0.6723   -6.4688    8.0526 C   0  0  0  0  0  0  0  0  0  0  0  0
    0.6507   -6.2303    6.5498 C   0  0  0  0  0  0  0  0  0  0  0  0
    0.5961   -7.3484    5.6658 C   0  0  0  0  0  0  0  0  0  0  0  0
    0.5911   -7.1227    4.2627 C   0  0  0  0  0  0  0  0  0  0  0  0
    0.5378   -7.9931    3.1416 C   0  0  0  0  0  0  0  0  0  0  0  0
    0.4713   -9.4895    3.0127 C   0  0  0  0  0  0  0  0  0  0  0  0
    1.4501   -9.8974    2.2104 F   0  0  0  0  0  0  0  0  0  0  0  0
    0.6184  -10.0749    4.1997 F   0  0  0  0  0  0  0  0  0  0  0  0
   -0.7025   -9.8370    2.4960 F   0  0  0  0  0  0  0  0  0  0  0  0
    0.5345   -7.2454    2.0273 N   0  0  0  0  0  0  0  0  0  0  0  0
    0.6171   -5.8909    2.4281 O   0  0  0  0  0  0  0  0  0  0  0  0
    0.6348   -5.8123    3.8077 C   0  0  0  0  0  0  0  0  0  0  0  0
    0.6502   -4.7039    4.6400 C   0  0  0  0  0  0  0  0  0  0  0  0
    0.6824   -4.9006    6.0412 C   0  0  0  0  0  0  0  0  0  0  0  0
    0.7407   -3.8676    6.9504 O   0  0  0  0  0  0  0  0  0  0  0  0
    0.6919   -2.5263    6.4777 C   0  0  0  0  0  0  0  0  0  0  0  0
    2.0199   -2.1194    5.8048 C   0  0  0  0  0  0  0  0  0  0  0  0
    2.0916   -0.6380    5.4265 C   0  0  0  0  0  0  0  0  0  0  0  0
    3.4355   -0.2610    4.7217 C   0  0  0  0  0  0  0  0  0  0  0  0
    3.4451   -0.5489    3.2767 N   0  0  0  0  0  0  0  0  0  0  0  0
    2.6081    0.0212    2.4211 C   0  0  0  0  0  0  0  0  0  0  0  0
    1.8545    1.0352    2.6566 O   0  0  0  0  0  0  0  0  0  0  0  0
    2.6042   -0.6346    1.2879 N   0  0  0  0  0  0  0  0  0  0  0  0
    3.7015   -1.6249    1.2545 C   0  0  0  0  0  0  0  0  0  0  0  0
    3.1781   -3.0390    1.0349 C   0  0  0  0  0  0  0  0  0  0  0  0
    3.2314   -3.2714   -0.4777 C   0  0  0  0  0  0  0  0  0  0  0  0
    4.0151   -2.0947   -1.0865 C   0  0  0  0  0  0  0  0  0  0  0  0
    4.6470   -1.3291    0.0892 C   0  0  0  0  0  0  0  0  0  0  0  0
    4.2187   -1.4430    2.6632 C   0  0  0  0  0  0  0  0  0  0  0  0
    5.1227   -2.1108    3.1499 O   0  0  0  0  0  0  0  0  0  0  0  0
    3.9192   -7.7166    8.5133 H   0  0  0  0  0  0  0  0  0  0  0  0
    3.0726   -7.5705    6.9823 H   0  0  0  0  0  0  0  0  0  0  0  0
    2.4441   -8.6427    8.2320 H   0  0  0  0  0  0  0  0  0  0  0  0
    2.0368   -6.6411    9.7160 H   0  0  0  0  0  0  0  0  0  0  0  0
    2.6096   -5.5850    8.4533 H   0  0  0  0  0  0  0  0  0  0  0  0
    0.1342   -7.3895    8.2827 H   0  0  0  0  0  0  0  0  0  0  0  0
    0.1139   -5.6730    8.5465 H   0  0  0  0  0  0  0  0  0  0  0  0
    0.5669   -8.3521    6.0636 H   0  0  0  0  0  0  0  0  0  0  0  0
    0.6312   -3.7407    4.1658 H   0  0  0  0  0  0  0  0  0  0  0  0
   -0.1729   -2.3875    5.8273 H   0  0  0  0  0  0  0  0  0  0  0  0
    0.5084   -1.8896    7.3466 H   0  0  0  0  0  0  0  0  0  0  0  0
    2.8427   -2.3667    6.4732 H   0  0  0  0  0  0  0  0  0  0  0  0
    2.2175   -2.6710    4.8938 H   0  0  0  0  0  0  0  0  0  0  0  0
    1.2150   -0.3556    4.8309 H   0  0  0  0  0  0  0  0  0  0  0  0
    1.9961   -0.0516    6.3496 H   0  0  0  0  0  0  0  0  0  0  0  0
    3.5828    0.8180    4.8440 H   0  0  0  0  0  0  0  0  0  0  0  0
    4.2557   -0.7539    5.2315 H   0  0  0  0  0  0  0  0  0  0  0  0
    1.9276   -0.5374    0.5039 H   0  0  0  0  0  0  0  0  0  0  0  0
    3.8440   -3.7578    1.5135 H   0  0  0  0  0  0  0  0  0  0  0  0
    2.1846   -3.1835    1.4662 H   0  0  0  0  0  0  0  0  0  0  0  0
    3.7265   -4.2230   -0.6761 H   0  0  0  0  0  0  0  0  0  0  0  0
    2.2194   -3.3143   -0.8817 H   0  0  0  0  0  0  0  0  0  0  0  0
    4.7579   -2.4195   -1.8165 H   0  0  0  0  0  0  0  0  0  0  0  0
    3.3138   -1.4311   -1.5955 H   0  0  0  0  0  0  0  0  0  0  0  0
    4.7432   -0.2600   -0.1407 H   0  0  0  0  0  0  0  0  0  0  0  0
    5.6496   -1.7012    0.3018 H   0  0  0  0  0  0  0  0  0  0  0  0
  1  2  1  0
  1 33  1  0
  1 34  1  0
  1 35  1  0
  2  3  1  0
  2 36  1  0
  2 37  1  0
  3  4  1  0
  3 38  1  0
  3 39  1  0
  4 16  2  0
  4  5  1  0
  5  6  2  0
  5 40  1  0
  6 14  1  0
  6  7  1  0
  7  8  1  0
  7 12  2  0
  8  9  1  0
  8 10  1  0
  8 11  1  0
 12 13  1  0
 13 14  1  0
 14 15  2  0
 15 16  1  0
 15 41  1  0
 16 17  1  0
 17 18  1  0
 18 19  1  0
 18 42  1  0
 18 43  1  0
 19 20  1  0
 19 44  1  0
 19 45  1  0
 20 21  1  0
 20 46  1  0
 20 47  1  0
 21 22  1  0
 21 48  1  0
 21 49  1  0
 22 31  1  0
 22 23  1  0
 23 24  2  0
 23 25  1  0
 25 26  1  0
 25 50  1  0
 26 30  1  0
 26 27  1  0
 26 31  1  0
 27 28  1  0
 27 51  1  0
 27 52  1  0
 28 29  1  0
 28 53  1  0
 28 54  1  0
 29 30  1  0
 29 55  1  0
 29 56  1  0
 30 57  1  0
 30 58  1  0
 31 32  2  0
M  END
>  <i_m_ct_stereo_status>  (86) 
1

>  <s_m_source_file>  (86) 
/var/tmp/pbs.5076255.sched01/tmpt68d_85j/0g9mu2vg5.sdf

>  <i_m_source_file_index>  (86) 
36

>  <i_lp_mmshare_version>  (86) 
48012

>  <i_f3d_flags>  (86) 
0

>  <s_epik_input>  (86) 
RkMoRikoRiljMW5vYyhjMTIpW2NIXWMoYyhbY0hdMilbQ0gyXVtDSDJdW0NIM10pT1tDSDJdW0NIMl1bQ0gyXVtDSDJdTihDMz1PKUMoPU8pW05IXUMzNFtDSDJdW0NIMl1bQ0gyXVtDSDJdNA==

>  <s_epik_cmdline>  (86) 
J2VwaWtfcHl0aG9uJywgJy1waHQnLCAnMi4wJywgJy1waCcsICc3LjAnLCAnLXRuJywgJzgnLCAnLW1hJywgJzIwMCcsICctaW1hZScsICc8aW5maWxlLm1hZT4nLCAnLW9tYWUnLCAnPG91dGZpbGUubWFlPic=

>  <r_lp_tautomer_probability>  (86) 
1

>  <r_epik_Ionization_Penalty>  (86) 
3.92517e-05

>  <r_epik_Ionization_Penalty_Charging>  (86) 
0

>  <r_epik_Ionization_Penalty_Neutral>  (86) 
3.92517e-05

>  <r_epik_State_Penalty>  (86) 
-0

>  <r_epik_Charging_Adjusted_Penalty>  (86) 
0

>  <i_epik_Tot_Q>  (86) 
0

>  <i_epik_Tot_abs_Q>  (86) 
0

>  <s_lp_Force_Field>  (86) 
OPLS3e

>  <r_lp_Energy>  (86) 
21.0525

>  <b_lp_Chiralities_Consistent>  (86) 
1

>  <s_lp_Variant>  (86) 
25:0-1

>  <s_i_glide_gridfile>  (86) 
pfpi4k_grid

>  <i_i_glide_lignum>  (86) 
36

>  <i_i_glide_rotatable_bonds>  (86) 
9

>  <r_i_docking_score>  (86) 
-2.3757

>  <r_i_glide_ligand_efficiency>  (86) 
-0.0742405

>  <r_i_glide_ligand_efficiency_sa>  (86) 
-0.235699

>  <r_i_glide_ligand_efficiency_ln>  (86) 
-0.531983

>  <r_i_glide_gscore>  (86) 
-2.3757

>  <r_i_glide_lipo>  (86) 
-0.0380882

>  <r_i_glide_hbond>  (86) 
-0.16

>  <r_i_glide_metal>  (86) 
-0

>  <r_i_glide_rewards>  (86) 
-0.595236

>  <r_i_glide_evdw>  (86) 
-25.3995

>  <r_i_glide_ecoul>  (86) 
-4.20413

>  <r_i_glide_erotb>  (86) 
0.585735

>  <r_i_glide_esite>  (86) 
-0.267514

>  <r_i_glide_emodel>  (86) 
-30.7077

>  <r_i_glide_energy>  (86) 
-29.6036

>  <r_i_glide_einternal>  (86) 
3.80631

>  <r_i_glide_intrahb_reward>  (86) 
-0

>  <i_i_glide_confnum>  (86) 
5

>  <i_i_glide_posenum>  (86) 
11

>  <r_i_glide_eff_state_penalty>  (86) 
0

>  <ligand_id>  (86) 
25

>  <original_smiles>  (86) 
CCCc1cc2c(C(F)(F)F)noc2cc1OCCCCN1C(=O)NC2(CCCC2)C1=O

>  <smiles>  (86) 
[H]c1c(OC([H])([H])C([H])([H])C([H])([H])C([H])([H])N2C(=O)N([H])C3(C2=O)C([H])([H])C([H])([H])C([H])([H])C3([H])[H])c(C([H])([H])C([H])([H])C([H])([H])[H])c([H])c2c(C(F)(F)F)noc12

$$$$
25:0:2
     RDKit          3D

 58 61  0  0  1  0  0  0  0  0999 V2000
   -1.9968   -8.4219    3.1979 C   0  0  0  0  0  0  0  0  0  0  0  0
   -0.6736   -8.3559    2.4285 C   0  0  0  0  0  0  0  0  0  0  0  0
    0.2026   -7.1722    2.8536 C   0  0  0  0  0  0  0  0  0  0  0  0
    0.5711   -7.1921    4.3274 C   0  0  0  0  0  0  0  0  0  0  0  0
   -0.0650   -6.2795    5.2167 C   0  0  0  0  0  0  0  0  0  0  0  0
    0.2562   -6.3201    6.5962 C   0  0  0  0  0  0  0  0  0  0  0  0
   -0.2027   -5.5741    7.7166 C   0  0  0  0  0  0  0  0  0  0  0  0
   -1.1925   -4.4473    7.8598 C   0  0  0  0  0  0  0  0  0  0  0  0
   -0.5639   -3.2767    7.8098 F   0  0  0  0  0  0  0  0  0  0  0  0
   -2.1012   -4.4819    6.8895 F   0  0  0  0  0  0  0  0  0  0  0  0
   -1.8255   -4.5212    9.0260 F   0  0  0  0  0  0  0  0  0  0  0  0
    0.4346   -6.0179    8.8053 N   0  0  0  0  0  0  0  0  0  0  0  0
    1.2996   -7.0662    8.3977 O   0  0  0  0  0  0  0  0  0  0  0  0
    1.2009   -7.2517    7.0334 C   0  0  0  0  0  0  0  0  0  0  0  0
    1.8528   -8.1520    6.1861 C   0  0  0  0  0  0  0  0  0  0  0  0
    1.5377   -8.1177    4.8117 C   0  0  0  0  0  0  0  0  0  0  0  0
    2.1083   -9.0024    3.9319 O   0  0  0  0  0  0  0  0  0  0  0  0
    3.4808   -8.7975    3.6061 C   0  0  0  0  0  0  0  0  0  0  0  0
    3.6221   -7.6767    2.5718 C   0  0  0  0  0  0  0  0  0  0  0  0
    5.0704   -7.3852    2.1412 C   0  0  0  0  0  0  0  0  0  0  0  0
    5.2099   -6.6526    0.7833 C   0  0  0  0  0  0  0  0  0  0  0  0
    4.6799   -5.2895    0.7601 N   0  0  0  0  0  0  0  0  0  0  0  0
    3.3838   -5.0412    0.5186 C   0  0  0  0  0  0  0  0  0  0  0  0
    2.3906   -5.8430    0.5285 O   0  0  0  0  0  0  0  0  0  0  0  0
    3.2413   -3.7621    0.2159 N   0  0  0  0  0  0  0  0  0  0  0  0
    4.4962   -3.0287    0.4280 C   0  0  0  0  0  0  0  0  0  0  0  0
    4.9733   -2.3671   -0.8576 C   0  0  0  0  0  0  0  0  0  0  0  0
    4.3830   -0.9532   -0.8363 C   0  0  0  0  0  0  0  0  0  0  0  0
    3.7961   -0.7288    0.5711 C   0  0  0  0  0  0  0  0  0  0  0  0
    4.2852   -1.8999    1.4406 C   0  0  0  0  0  0  0  0  0  0  0  0
    5.4269   -4.1550    0.8198 C   0  0  0  0  0  0  0  0  0  0  0  0
    6.6166   -4.0300    1.0121 O   0  0  0  0  0  0  0  0  0  0  0  0
   -2.5824   -9.2869    2.8838 H   0  0  0  0  0  0  0  0  0  0  0  0
   -2.5894   -7.5234    3.0278 H   0  0  0  0  0  0  0  0  0  0  0  0
   -1.8238   -8.5186    4.2709 H   0  0  0  0  0  0  0  0  0  0  0  0
   -0.1291   -9.2924    2.5699 H   0  0  0  0  0  0  0  0  0  0  0  0
   -0.8748   -8.2854    1.3601 H   0  0  0  0  0  0  0  0  0  0  0  0
    1.1032   -7.1859    2.2566 H   0  0  0  0  0  0  0  0  0  0  0  0
   -0.2825   -6.2324    2.6049 H   0  0  0  0  0  0  0  0  0  0  0  0
   -0.7935   -5.5816    4.8397 H   0  0  0  0  0  0  0  0  0  0  0  0
    2.5585   -8.8618    6.5857 H   0  0  0  0  0  0  0  0  0  0  0  0
    4.0805   -8.5891    4.4897 H   0  0  0  0  0  0  0  0  0  0  0  0
    3.8585   -9.7262    3.1700 H   0  0  0  0  0  0  0  0  0  0  0  0
    3.0440   -7.9678    1.6930 H   0  0  0  0  0  0  0  0  0  0  0  0
    3.1901   -6.7595    2.9681 H   0  0  0  0  0  0  0  0  0  0  0  0
    5.5777   -6.7968    2.9028 H   0  0  0  0  0  0  0  0  0  0  0  0
    5.6070   -8.3406    2.0615 H   0  0  0  0  0  0  0  0  0  0  0  0
    6.2507   -6.6477    0.4870 H   0  0  0  0  0  0  0  0  0  0  0  0
    4.6945   -7.2525    0.0130 H   0  0  0  0  0  0  0  0  0  0  0  0
    2.3965   -3.3167   -0.1623 H   0  0  0  0  0  0  0  0  0  0  0  0
    6.0604   -2.2862   -0.8506 H   0  0  0  0  0  0  0  0  0  0  0  0
    4.6919   -2.9340   -1.7491 H   0  0  0  0  0  0  0  0  0  0  0  0
    5.1760   -0.2454   -1.0506 H   0  0  0  0  0  0  0  0  0  0  0  0
    3.6056   -0.8549   -1.5988 H   0  0  0  0  0  0  0  0  0  0  0  0
    4.0705    0.2401    0.9922 H   0  0  0  0  0  0  0  0  0  0  0  0
    2.7067   -0.7666    0.5122 H   0  0  0  0  0  0  0  0  0  0  0  0
    3.5506   -2.1507    2.2150 H   0  0  0  0  0  0  0  0  0  0  0  0
    5.2191   -1.6521    1.9462 H   0  0  0  0  0  0  0  0  0  0  0  0
  1  2  1  0
  1 33  1  0
  1 34  1  0
  1 35  1  0
  2  3  1  0
  2 36  1  0
  2 37  1  0
  3  4  1  0
  3 38  1  0
  3 39  1  0
  4 16  2  0
  4  5  1  0
  5  6  2  0
  5 40  1  0
  6 14  1  0
  6  7  1  0
  7  8  1  0
  7 12  2  0
  8  9  1  0
  8 10  1  0
  8 11  1  0
 12 13  1  0
 13 14  1  0
 14 15  2  0
 15 16  1  0
 15 41  1  0
 16 17  1  0
 17 18  1  0
 18 19  1  0
 18 42  1  0
 18 43  1  0
 19 20  1  0
 19 44  1  0
 19 45  1  0
 20 21  1  0
 20 46  1  0
 20 47  1  0
 21 22  1  0
 21 48  1  0
 21 49  1  0
 22 31  1  0
 22 23  1  0
 23 24  2  0
 23 25  1  0
 25 26  1  0
 25 50  1  0
 26 30  1  0
 26 27  1  0
 26 31  1  0
 27 28  1  0
 27 51  1  0
 27 52  1  0
 28 29  1  0
 28 53  1  0
 28 54  1  0
 29 30  1  0
 29 55  1  0
 29 56  1  0
 30 57  1  0
 30 58  1  0
 31 32  2  0
M  END
>  <i_m_ct_stereo_status>  (87) 
1

>  <s_m_source_file>  (87) 
/var/tmp/pbs.5076255.sched01/tmpt68d_85j/0g9mu2vg5.sdf

>  <i_m_source_file_index>  (87) 
36

>  <i_lp_mmshare_version>  (87) 
48012

>  <i_f3d_flags>  (87) 
0

>  <s_epik_input>  (87) 
RkMoRikoRiljMW5vYyhjMTIpW2NIXWMoYyhbY0hdMilbQ0gyXVtDSDJdW0NIM10pT1tDSDJdW0NIMl1bQ0gyXVtDSDJdTihDMz1PKUMoPU8pW05IXUMzNFtDSDJdW0NIMl1bQ0gyXVtDSDJdNA==

>  <s_epik_cmdline>  (87) 
J2VwaWtfcHl0aG9uJywgJy1waHQnLCAnMi4wJywgJy1waCcsICc3LjAnLCAnLXRuJywgJzgnLCAnLW1hJywgJzIwMCcsICctaW1hZScsICc8aW5maWxlLm1hZT4nLCAnLW9tYWUnLCAnPG91dGZpbGUubWFlPic=

>  <r_lp_tautomer_probability>  (87) 
1

>  <r_epik_Ionization_Penalty>  (87) 
3.92517e-05

>  <r_epik_Ionization_Penalty_Charging>  (87) 
0

>  <r_epik_Ionization_Penalty_Neutral>  (87) 
3.92517e-05

>  <r_epik_State_Penalty>  (87) 
-0

>  <r_epik_Charging_Adjusted_Penalty>  (87) 
0

>  <i_epik_Tot_Q>  (87) 
0

>  <i_epik_Tot_abs_Q>  (87) 
0

>  <s_lp_Force_Field>  (87) 
OPLS3e

>  <r_lp_Energy>  (87) 
21.0525

>  <b_lp_Chiralities_Consistent>  (87) 
1

>  <s_lp_Variant>  (87) 
25:0-1

>  <s_i_glide_gridfile>  (87) 
pfpi4k_grid

>  <i_i_glide_lignum>  (87) 
36

>  <i_i_glide_rotatable_bonds>  (87) 
9

>  <r_i_docking_score>  (87) 
-2.05182

>  <r_i_glide_ligand_efficiency>  (87) 
-0.0641195

>  <r_i_glide_ligand_efficiency_sa>  (87) 
-0.203567

>  <r_i_glide_ligand_efficiency_ln>  (87) 
-0.459459

>  <r_i_glide_gscore>  (87) 
-2.05182

>  <r_i_glide_lipo>  (87) 
-0.157578

>  <r_i_glide_hbond>  (87) 
0

>  <r_i_glide_metal>  (87) 
-0

>  <r_i_glide_rewards>  (87) 
-0.521172

>  <r_i_glide_evdw>  (87) 
-29.7817

>  <r_i_glide_ecoul>  (87) 
-2.14678

>  <r_i_glide_erotb>  (87) 
0.585735

>  <r_i_glide_esite>  (87) 
-0.147705

>  <r_i_glide_emodel>  (87) 
-29.6627

>  <r_i_glide_energy>  (87) 
-31.9285

>  <r_i_glide_einternal>  (87) 
10.5603

>  <r_i_glide_intrahb_reward>  (87) 
-0

>  <i_i_glide_confnum>  (87) 
7

>  <i_i_glide_posenum>  (87) 
31

>  <r_i_glide_eff_state_penalty>  (87) 
0

>  <ligand_id>  (87) 
25

>  <original_smiles>  (87) 
CCCc1cc2c(C(F)(F)F)noc2cc1OCCCCN1C(=O)NC2(CCCC2)C1=O

>  <smiles>  (87) 
[H]c1c(OC([H])([H])C([H])([H])C([H])([H])C([H])([H])N2C(=O)N([H])C3(C2=O)C([H])([H])C([H])([H])C([H])([H])C3([H])[H])c(C([H])([H])C([H])([H])C([H])([H])[H])c([H])c2c(C(F)(F)F)noc12

$$$$
26:0:0
     RDKit          3D

 58 61  0  0  1  0  0  0  0  0999 V2000
    1.0287   -3.4110    6.4991 C   0  0  0  0  0  0  0  0  0  0  0  0
   -0.3974   -2.8558    6.6365 C   0  0  0  0  0  0  0  0  0  0  0  0
   -1.3600   -3.5789    6.8815 O   0  0  0  0  0  0  0  0  0  0  0  0
   -0.5374   -1.5382    6.4610 O   0  0  0  0  0  0  0  0  0  0  0  0
    0.5209   -0.6535    6.0975 C   0  0  2  0  0  0  0  0  0  0  0  0
    0.3885    0.6025    7.0162 C   0  0  1  0  0  0  0  0  0  0  0  0
    0.9605    0.2062    8.2557 O   0  0  0  0  0  0  0  0  0  0  0  0
    1.0324    1.9880    6.6517 C   0  0  1  0  0  0  0  0  0  0  0  0
    2.0992    1.9864    5.5132 C   0  0  1  0  0  0  0  0  0  0  0  0
    3.4109    1.2790    5.9600 C   0  0  0  0  0  0  0  0  0  0  0  0
    1.6203    1.4451    4.1260 C   0  0  1  0  0  0  0  0  0  0  0  0
    2.5081    1.9494    3.1554 O   0  0  0  0  0  0  0  0  0  0  0  0
    1.6973    0.0750    4.1859 O   0  0  0  0  0  0  0  0  0  0  0  0
    0.4669   -0.4131    4.5650 C   0  0  1  0  0  0  0  0  0  0  0  0
    0.2594   -1.6856    3.7038 C   0  0  0  0  0  0  0  0  0  0  0  0
   -0.5126    0.5336    4.2609 O   0  0  0  0  0  0  0  0  0  0  0  0
    0.1478    1.6197    3.6387 C   0  0  2  0  0  0  0  0  0  0  0  0
    0.0828    1.2960    2.1078 C   0  0  0  0  0  0  0  0  0  0  0  0
   -0.5309    2.9758    4.0356 C   0  0  1  0  0  0  0  0  0  0  0  0
   -1.7155    3.4296    3.1252 C   0  0  0  0  0  0  0  0  0  0  0  0
   -1.7750    4.8360    3.0165 O   0  0  0  0  0  0  0  0  0  0  0  0
   -0.9726    2.9935    5.5125 C   0  0  0  0  0  0  0  0  0  0  0  0
   -2.1888    2.7843    5.9793 C   0  0  0  0  0  0  0  0  0  0  0  0
   -2.2900    2.7955    7.4800 C   0  0  0  0  0  0  0  0  0  0  0  0
   -0.9049    3.3161    7.8730 C   0  0  1  0  0  0  0  0  0  0  0  0
   -0.4255    2.7694    9.0895 O   0  0  0  0  0  0  0  0  0  0  0  0
    0.0382    3.2024    6.6208 C   0  0  1  0  0  0  0  0  0  0  0  0
    0.7433    4.5754    6.4703 C   0  0  0  0  0  0  0  0  0  0  0  0
    1.4386   -3.1855    5.5553 H   0  0  0  0  0  0  0  0  0  0  0  0
    1.0264   -4.4998    6.6544 H   0  0  0  0  0  0  0  0  0  0  0  0
    1.6497   -3.0055    7.3172 H   0  0  0  0  0  0  0  0  0  0  0  0
    1.4981   -1.0943    6.3047 H   0  0  0  0  0  0  0  0  0  0  0  0
   -0.6688    0.7448    7.2276 H   0  0  0  0  0  0  0  0  0  0  0  0
    0.8546    0.9183    8.8763 H   0  0  0  0  0  0  0  0  0  0  0  0
    1.6381    2.2625    7.5132 H   0  0  0  0  0  0  0  0  0  0  0  0
    2.4317    3.0068    5.3386 H   0  0  0  0  0  0  0  0  0  0  0  0
    3.2622    0.2277    6.2109 H   0  0  0  0  0  0  0  0  0  0  0  0
    3.8331    1.7534    6.8503 H   0  0  0  0  0  0  0  0  0  0  0  0
    4.1771    1.3211    5.1839 H   0  0  0  0  0  0  0  0  0  0  0  0
    2.1201    1.8211    2.3032 H   0  0  0  0  0  0  0  0  0  0  0  0
    0.2657   -1.4199    2.6317 H   0  0  0  0  0  0  0  0  0  0  0  0
   -0.7315   -2.0937    3.8985 H   0  0  0  0  0  0  0  0  0  0  0  0
    1.0106   -2.4233    3.9130 H   0  0  0  0  0  0  0  0  0  0  0  0
    0.4180    2.1398    1.5105 H   0  0  0  0  0  0  0  0  0  0  0  0
   -0.9215    1.0260    1.7890 H   0  0  0  0  0  0  0  0  0  0  0  0
    0.7219    0.4569    1.8132 H   0  0  0  0  0  0  0  0  0  0  0  0
    0.2562    3.7180    3.8864 H   0  0  0  0  0  0  0  0  0  0  0  0
   -1.5734    3.1069    2.1170 H   0  0  0  0  0  0  0  0  0  0  0  0
   -2.6811    2.9988    3.3944 H   0  0  0  0  0  0  0  0  0  0  0  0
   -1.1269    5.0540    2.3508 H   0  0  0  0  0  0  0  0  0  0  0  0
   -3.0740    2.5587    5.3966 H   0  0  0  0  0  0  0  0  0  0  0  0
   -3.0934    3.4479    7.8255 H   0  0  0  0  0  0  0  0  0  0  0  0
   -2.4892    1.7919    7.8576 H   0  0  0  0  0  0  0  0  0  0  0  0
   -1.0573    4.3750    8.0973 H   0  0  0  0  0  0  0  0  0  0  0  0
   -1.0271    3.0137    9.7817 H   0  0  0  0  0  0  0  0  0  0  0  0
    1.4439    4.7356    7.2903 H   0  0  0  0  0  0  0  0  0  0  0  0
    0.0235    5.3891    6.4903 H   0  0  0  0  0  0  0  0  0  0  0  0
    1.2882    4.7084    5.5400 H   0  0  0  0  0  0  0  0  0  0  0  0
  1  2  1  0
  1 29  1  0
  1 30  1  0
  1 31  1  0
  2  3  2  0
  2  4  1  0
  4  5  1  0
  5 14  1  0
  5  6  1  0
  5 32  1  6
  6  7  1  0
  6  8  1  0
  6 33  1  1
  7 34  1  0
  8 27  1  0
  8  9  1  0
  8 35  1  1
  9 10  1  0
  9 11  1  0
  9 36  1  6
 10 37  1  0
 10 38  1  0
 10 39  1  0
 11 17  1  0
 11 12  1  6
 11 13  1  0
 12 40  1  0
 13 14  1  0
 14 15  1  6
 14 16  1  0
 15 41  1  0
 15 42  1  0
 15 43  1  0
 16 17  1  0
 17 18  1  6
 17 19  1  0
 18 44  1  0
 18 45  1  0
 18 46  1  0
 19 20  1  0
 19 22  1  0
 19 47  1  1
 20 21  1  0
 20 48  1  0
 20 49  1  0
 21 50  1  0
 22 27  1  0
 22 23  2  0
 23 24  1  0
 23 51  1  0
 24 25  1  0
 24 52  1  0
 24 53  1  0
 25 26  1  0
 25 27  1  0
 25 54  1  1
 26 55  1  0
 27 28  1  6
 28 56  1  0
 28 57  1  0
 28 58  1  0
M  END
>  <i_m_ct_stereo_status>  (88) 
1

>  <s_m_source_file>  (88) 
/var/tmp/pbs.5076255.sched01/tmpt68d_85j/0g9mu2vg5.sdf

>  <i_m_source_file_index>  (88) 
37

>  <i_lp_mmshare_version>  (88) 
48012

>  <i_f3d_flags>  (88) 
0

>  <s_epik_input>  (88) 
W09IXVtDQF0xMltDQEBdMyhbQ0gzXSlPW0NAXShPMikoW0NIM10pW0NASF0oT0MoPU8pW0NIM10pW0NAQEhdKFtPSF0pW0NAQEhdKFtDQEhdMVtDSDNdKVtDQEBdNChbQ0gzXSlDKFtDQEBIXTNbQ0gyXVtPSF0pPVtDSF1bQ0gyXVtDQEhdNFtPSF0=

>  <s_epik_cmdline>  (88) 
J2VwaWtfcHl0aG9uJywgJy1waHQnLCAnMi4wJywgJy1waCcsICc3LjAnLCAnLXRuJywgJzgnLCAnLW1hJywgJzIwMCcsICctaW1hZScsICc8aW5maWxlLm1hZT4nLCAnLW9tYWUnLCAnPG91dGZpbGUubWFlPic=

>  <r_lp_tautomer_probability>  (88) 
1

>  <r_epik_Ionization_Penalty>  (88) 
1.37185e-05

>  <r_epik_Ionization_Penalty_Charging>  (88) 
0

>  <r_epik_Ionization_Penalty_Neutral>  (88) 
1.37185e-05

>  <r_epik_State_Penalty>  (88) 
-0

>  <r_epik_Charging_Adjusted_Penalty>  (88) 
0

>  <i_epik_Tot_Q>  (88) 
0

>  <i_epik_Tot_abs_Q>  (88) 
0

>  <s_epik_Chemistry_Notes>  (88) 
This compound has an ester and may undergo hydrolysis at high or low pH.

>  <s_lp_Force_Field>  (88) 
OPLS3e

>  <r_lp_Energy>  (88) 
40.7801

>  <b_lp_Chiralities_Consistent>  (88) 
1

>  <s_lp_Variant>  (88) 
26:0-1

>  <s_i_glide_gridfile>  (88) 
pfpi4k_grid

>  <i_i_glide_lignum>  (88) 
37

>  <i_i_glide_rotatable_bonds>  (88) 
7

>  <r_i_docking_score>  (88) 
-3.61053

>  <r_i_glide_ligand_efficiency>  (88) 
-0.128947

>  <r_i_glide_ligand_efficiency_sa>  (88) 
-0.39156

>  <r_i_glide_ligand_efficiency_ln>  (88) 
-0.833416

>  <r_i_glide_gscore>  (88) 
-3.61053

>  <r_i_glide_lipo>  (88) 
-0.167493

>  <r_i_glide_hbond>  (88) 
-0.286896

>  <r_i_glide_metal>  (88) 
-0

>  <r_i_glide_rewards>  (88) 
-1.1924

>  <r_i_glide_evdw>  (88) 
-18.6751

>  <r_i_glide_ecoul>  (88) 
-8.1692

>  <r_i_glide_erotb>  (88) 
0.246721

>  <r_i_glide_esite>  (88) 
-0.0513229

>  <r_i_glide_emodel>  (88) 
-32.9581

>  <r_i_glide_energy>  (88) 
-26.8443

>  <r_i_glide_einternal>  (88) 
9.41152

>  <r_i_glide_intrahb_reward>  (88) 
-0.5

>  <i_i_glide_confnum>  (88) 
3

>  <i_i_glide_posenum>  (88) 
23

>  <r_i_glide_eff_state_penalty>  (88) 
0

>  <ligand_id>  (88) 
26

>  <original_smiles>  (88) 
CC(=O)OC1C(O)C2C(C)C3(O)OC1(C)OC3(C)C(CO)C1=CCC(O)C12C

>  <smiles>  (88) 
[H]OC([H])([H])C1([H])C2=C([H])C([H])([H])C([H])(O[H])C2(C([H])([H])[H])C2([H])C([H])(O[H])C([H])(OC(=O)C([H])([H])[H])C3(C([H])([H])[H])OC(O[H])(C2([H])C([H])([H])[H])C1(C([H])([H])[H])O3

$$$$
26:0:1
     RDKit          3D

 58 61  0  0  1  0  0  0  0  0999 V2000
    0.4938   -2.8290    6.4671 C   0  0  0  0  0  0  0  0  0  0  0  0
   -0.6851   -1.9816    5.9973 C   0  0  0  0  0  0  0  0  0  0  0  0
   -1.8295   -2.4148    6.0761 O   0  0  0  0  0  0  0  0  0  0  0  0
   -0.3925   -0.7646    5.4952 O   0  0  0  0  0  0  0  0  0  0  0  0
    0.7901   -0.0431    5.8390 C   0  0  2  0  0  0  0  0  0  0  0  0
    0.3582    0.9628    6.9416 C   0  0  1  0  0  0  0  0  0  0  0  0
    0.3540    0.2017    8.1380 O   0  0  0  0  0  0  0  0  0  0  0  0
    1.1627    2.2722    7.2508 C   0  0  1  0  0  0  0  0  0  0  0  0
    2.6062    2.3426    6.6902 C   0  0  1  0  0  0  0  0  0  0  0  0
    3.5582    1.3450    7.4043 C   0  0  0  0  0  0  0  0  0  0  0  0
    2.7399    2.2148    5.1399 C   0  0  1  0  0  0  0  0  0  0  0  0
    3.9853    2.7692    4.8064 O   0  0  0  0  0  0  0  0  0  0  0  0
    2.7117    0.8771    4.8402 O   0  0  0  0  0  0  0  0  0  0  0  0
    1.4030    0.5392    4.5468 C   0  0  1  0  0  0  0  0  0  0  0  0
    1.4815   -0.4978    3.4038 C   0  0  0  0  0  0  0  0  0  0  0  0
    0.7091    1.6722    4.1192 O   0  0  0  0  0  0  0  0  0  0  0  0
    1.6366    2.7432    4.1658 C   0  0  2  0  0  0  0  0  0  0  0  0
    2.2191    2.8147    2.7228 C   0  0  0  0  0  0  0  0  0  0  0  0
    0.9331    4.0653    4.6147 C   0  0  1  0  0  0  0  0  0  0  0  0
    0.3192    4.8881    3.4465 C   0  0  0  0  0  0  0  0  0  0  0  0
   -0.1704    6.1382    3.8862 O   0  0  0  0  0  0  0  0  0  0  0  0
   -0.0955    3.8141    5.7187 C   0  0  0  0  0  0  0  0  0  0  0  0
   -1.4236    3.7102    5.5713 C   0  0  0  0  0  0  0  0  0  0  0  0
   -2.1476    3.4003    6.8544 C   0  0  0  0  0  0  0  0  0  0  0  0
   -1.0390    3.5768    7.9081 C   0  0  1  0  0  0  0  0  0  0  0  0
   -1.1517    2.7013    9.0126 O   0  0  0  0  0  0  0  0  0  0  0  0
    0.3379    3.5990    7.1518 C   0  0  1  0  0  0  0  0  0  0  0  0
    1.1128    4.8296    7.6952 C   0  0  0  0  0  0  0  0  0  0  0  0
    1.1919   -2.9798    5.6437 H   0  0  0  0  0  0  0  0  0  0  0  0
    0.1506   -3.8051    6.8037 H   0  0  0  0  0  0  0  0  0  0  0  0
    1.0134   -2.3533    7.3000 H   0  0  0  0  0  0  0  0  0  0  0  0
    1.5767   -0.6875    6.2212 H   0  0  0  0  0  0  0  0  0  0  0  0
   -0.6758    1.2247    6.7441 H   0  0  0  0  0  0  0  0  0  0  0  0
    0.1748    0.7977    8.8566 H   0  0  0  0  0  0  0  0  0  0  0  0
    1.3493    2.2357    8.3242 H   0  0  0  0  0  0  0  0  0  0  0  0
    3.0340    3.3054    6.9488 H   0  0  0  0  0  0  0  0  0  0  0  0
    3.2586    0.3066    7.2700 H   0  0  0  0  0  0  0  0  0  0  0  0
    3.5852    1.5244    8.4806 H   0  0  0  0  0  0  0  0  0  0  0  0
    4.5833    1.4324    7.0438 H   0  0  0  0  0  0  0  0  0  0  0  0
    4.0747    2.7514    3.8654 H   0  0  0  0  0  0  0  0  0  0  0  0
    2.0686   -0.1169    2.5688 H   0  0  0  0  0  0  0  0  0  0  0  0
    0.4848   -0.7444    3.0431 H   0  0  0  0  0  0  0  0  0  0  0  0
    1.9674   -1.4040    3.7664 H   0  0  0  0  0  0  0  0  0  0  0  0
    2.8310    3.7018    2.5808 H   0  0  0  0  0  0  0  0  0  0  0  0
    1.4183    2.8338    1.9802 H   0  0  0  0  0  0  0  0  0  0  0  0
    2.8443    1.9584    2.4805 H   0  0  0  0  0  0  0  0  0  0  0  0
    1.7152    4.6962    5.0147 H   0  0  0  0  0  0  0  0  0  0  0  0
    1.0854    5.1392    2.7170 H   0  0  0  0  0  0  0  0  0  0  0  0
   -0.4505    4.3278    2.9136 H   0  0  0  0  0  0  0  0  0  0  0  0
   -0.0275    6.7682    3.1760 H   0  0  0  0  0  0  0  0  0  0  0  0
   -1.9520    3.7840    4.6354 H   0  0  0  0  0  0  0  0  0  0  0  0
   -2.9781    4.0844    7.0259 H   0  0  0  0  0  0  0  0  0  0  0  0
   -2.5475    2.3846    6.8279 H   0  0  0  0  0  0  0  0  0  0  0  0
   -1.2108    4.5637    8.3338 H   0  0  0  0  0  0  0  0  0  0  0  0
   -1.9072    2.9612    9.5256 H   0  0  0  0  0  0  0  0  0  0  0  0
    1.3989    4.6760    8.7363 H   0  0  0  0  0  0  0  0  0  0  0  0
    0.4999    5.7283    7.6516 H   0  0  0  0  0  0  0  0  0  0  0  0
    2.0136    5.0844    7.1418 H   0  0  0  0  0  0  0  0  0  0  0  0
  1  2  1  0
  1 29  1  0
  1 30  1  0
  1 31  1  0
  2  3  2  0
  2  4  1  0
  4  5  1  0
  5 14  1  0
  5  6  1  0
  5 32  1  1
  6  7  1  0
  6  8  1  0
  6 33  1  6
  7 34  1  0
  8 27  1  0
  8  9  1  0
  8 35  1  1
  9 10  1  0
  9 11  1  0
  9 36  1  1
 10 37  1  0
 10 38  1  0
 10 39  1  0
 11 17  1  0
 11 12  1  6
 11 13  1  0
 12 40  1  0
 13 14  1  0
 14 15  1  6
 14 16  1  0
 15 41  1  0
 15 42  1  0
 15 43  1  0
 16 17  1  0
 17 18  1  6
 17 19  1  0
 18 44  1  0
 18 45  1  0
 18 46  1  0
 19 20  1  0
 19 22  1  0
 19 47  1  1
 20 21  1  0
 20 48  1  0
 20 49  1  0
 21 50  1  0
 22 27  1  0
 22 23  2  0
 23 24  1  0
 23 51  1  0
 24 25  1  0
 24 52  1  0
 24 53  1  0
 25 26  1  0
 25 27  1  0
 25 54  1  1
 26 55  1  0
 27 28  1  1
 28 56  1  0
 28 57  1  0
 28 58  1  0
M  END
>  <i_m_ct_stereo_status>  (89) 
1

>  <s_m_source_file>  (89) 
/var/tmp/pbs.5076255.sched01/tmpt68d_85j/0g9mu2vg5.sdf

>  <i_m_source_file_index>  (89) 
37

>  <i_lp_mmshare_version>  (89) 
48012

>  <i_f3d_flags>  (89) 
0

>  <s_epik_input>  (89) 
W09IXVtDQF0xMltDQEBdMyhbQ0gzXSlPW0NAXShPMikoW0NIM10pW0NASF0oT0MoPU8pW0NIM10pW0NAQEhdKFtPSF0pW0NAQEhdKFtDQEhdMVtDSDNdKVtDQEBdNChbQ0gzXSlDKFtDQEBIXTNbQ0gyXVtPSF0pPVtDSF1bQ0gyXVtDQEhdNFtPSF0=

>  <s_epik_cmdline>  (89) 
J2VwaWtfcHl0aG9uJywgJy1waHQnLCAnMi4wJywgJy1waCcsICc3LjAnLCAnLXRuJywgJzgnLCAnLW1hJywgJzIwMCcsICctaW1hZScsICc8aW5maWxlLm1hZT4nLCAnLW9tYWUnLCAnPG91dGZpbGUubWFlPic=

>  <r_lp_tautomer_probability>  (89) 
1

>  <r_epik_Ionization_Penalty>  (89) 
1.37185e-05

>  <r_epik_Ionization_Penalty_Charging>  (89) 
0

>  <r_epik_Ionization_Penalty_Neutral>  (89) 
1.37185e-05

>  <r_epik_State_Penalty>  (89) 
-0

>  <r_epik_Charging_Adjusted_Penalty>  (89) 
0

>  <i_epik_Tot_Q>  (89) 
0

>  <i_epik_Tot_abs_Q>  (89) 
0

>  <s_epik_Chemistry_Notes>  (89) 
This compound has an ester and may undergo hydrolysis at high or low pH.

>  <s_lp_Force_Field>  (89) 
OPLS3e

>  <r_lp_Energy>  (89) 
40.7801

>  <b_lp_Chiralities_Consistent>  (89) 
1

>  <s_lp_Variant>  (89) 
26:0-1

>  <s_i_glide_gridfile>  (89) 
pfpi4k_grid

>  <i_i_glide_lignum>  (89) 
37

>  <i_i_glide_rotatable_bonds>  (89) 
7

>  <r_i_docking_score>  (89) 
-3.49655

>  <r_i_glide_ligand_efficiency>  (89) 
-0.124877

>  <r_i_glide_ligand_efficiency_sa>  (89) 
-0.3792

>  <r_i_glide_ligand_efficiency_ln>  (89) 
-0.807107

>  <r_i_glide_gscore>  (89) 
-3.49655

>  <r_i_glide_lipo>  (89) 
-0.0848962

>  <r_i_glide_hbond>  (89) 
-0.178387

>  <r_i_glide_metal>  (89) 
-0

>  <r_i_glide_rewards>  (89) 
-1.1924

>  <r_i_glide_evdw>  (89) 
-14.097

>  <r_i_glide_ecoul>  (89) 
-9.74384

>  <r_i_glide_erotb>  (89) 
0.172705

>  <r_i_glide_esite>  (89) 
-0.0471411

>  <r_i_glide_emodel>  (89) 
-30.9679

>  <r_i_glide_energy>  (89) 
-23.8409

>  <r_i_glide_einternal>  (89) 
9.17967

>  <r_i_glide_intrahb_reward>  (89) 
-0.5

>  <i_i_glide_confnum>  (89) 
2

>  <i_i_glide_posenum>  (89) 
32

>  <r_i_glide_eff_state_penalty>  (89) 
0

>  <ligand_id>  (89) 
26

>  <original_smiles>  (89) 
CC(=O)OC1C(O)C2C(C)C3(O)OC1(C)OC3(C)C(CO)C1=CCC(O)C12C

>  <smiles>  (89) 
[H]OC([H])([H])C1([H])C2=C([H])C([H])([H])C([H])(O[H])C2(C([H])([H])[H])C2([H])C([H])(O[H])C([H])(OC(=O)C([H])([H])[H])C3(C([H])([H])[H])OC(O[H])(C2([H])C([H])([H])[H])C1(C([H])([H])[H])O3

$$$$
26:0:2
     RDKit          3D

 58 61  0  0  1  0  0  0  0  0999 V2000
   -0.0926   -2.5747    4.4797 C   0  0  0  0  0  0  0  0  0  0  0  0
    0.4583   -1.7997    5.6637 C   0  0  0  0  0  0  0  0  0  0  0  0
    0.5766   -2.3142    6.7759 O   0  0  0  0  0  0  0  0  0  0  0  0
    0.7672   -0.5421    5.3301 O   0  0  0  0  0  0  0  0  0  0  0  0
    1.3605    0.3631    6.2609 C   0  0  2  0  0  0  0  0  0  0  0  0
    0.2160    1.1192    7.0105 C   0  0  1  0  0  0  0  0  0  0  0  0
   -0.2082    0.2627    8.0658 O   0  0  0  0  0  0  0  0  0  0  0  0
    0.4081    2.5490    7.6478 C   0  0  1  0  0  0  0  0  0  0  0  0
    1.8715    3.0303    7.8729 C   0  0  1  0  0  0  0  0  0  0  0  0
    2.5881    2.1987    8.9680 C   0  0  0  0  0  0  0  0  0  0  0  0
    2.7613    3.1230    6.5902 C   0  0  1  0  0  0  0  0  0  0  0  0
    3.8315    3.9963    6.8889 O   0  0  0  0  0  0  0  0  0  0  0  0
    3.2268    1.8515    6.3510 O   0  0  0  0  0  0  0  0  0  0  0  0
    2.3512    1.2549    5.4562 C   0  0  1  0  0  0  0  0  0  0  0  0
    3.2304    0.4269    4.4882 C   0  0  0  0  0  0  0  0  0  0  0  0
    1.6611    2.2341    4.7347 O   0  0  0  0  0  0  0  0  0  0  0  0
    2.1435    3.4841    5.1936 C   0  0  2  0  0  0  0  0  0  0  0  0
    3.3016    3.8658    4.2205 C   0  0  0  0  0  0  0  0  0  0  0  0
    0.9986    4.5600    5.2214 C   0  0  1  0  0  0  0  0  0  0  0  0
    0.8224    5.3635    3.8913 C   0  0  0  0  0  0  0  0  0  0  0  0
    0.0427    6.5319    4.0804 O   0  0  0  0  0  0  0  0  0  0  0  0
   -0.3321    3.9532    5.6872 C   0  0  0  0  0  0  0  0  0  0  0  0
   -1.3571    3.5686    4.9133 C   0  0  0  0  0  0  0  0  0  0  0  0
   -2.4859    2.9318    5.6809 C   0  0  0  0  0  0  0  0  0  0  0  0
   -2.1053    3.2353    7.1393 C   0  0  1  0  0  0  0  0  0  0  0  0
   -2.5250    2.2394    8.0532 O   0  0  0  0  0  0  0  0  0  0  0  0
   -0.5879    3.6604    7.1528 C   0  0  1  0  0  0  0  0  0  0  0  0
   -0.5160    4.9604    8.0031 C   0  0  0  0  0  0  0  0  0  0  0  0
   -0.9822   -2.0843    4.0862 H   0  0  0  0  0  0  0  0  0  0  0  0
   -0.3485   -3.5881    4.7824 H   0  0  0  0  0  0  0  0  0  0  0  0
    0.6548   -2.6223    3.6886 H   0  0  0  0  0  0  0  0  0  0  0  0
    1.9735   -0.1972    6.9670 H   0  0  0  0  0  0  0  0  0  0  0  0
   -0.6097    1.1666    6.3117 H   0  0  0  0  0  0  0  0  0  0  0  0
    0.4999    0.1717    8.6834 H   0  0  0  0  0  0  0  0  0  0  0  0
    0.0646    2.4406    8.6776 H   0  0  0  0  0  0  0  0  0  0  0  0
    1.8546    4.0272    8.2985 H   0  0  0  0  0  0  0  0  0  0  0  0
    2.6738    1.1444    8.7076 H   0  0  0  0  0  0  0  0  0  0  0  0
    2.0535    2.2476    9.9162 H   0  0  0  0  0  0  0  0  0  0  0  0
    3.5982    2.5651    9.1556 H   0  0  0  0  0  0  0  0  0  0  0  0
    4.3170    4.1387    6.0896 H   0  0  0  0  0  0  0  0  0  0  0  0
    4.0116    1.0397    4.0436 H   0  0  0  0  0  0  0  0  0  0  0  0
    2.6243    0.0118    3.6815 H   0  0  0  0  0  0  0  0  0  0  0  0
    3.7046   -0.3902    5.0340 H   0  0  0  0  0  0  0  0  0  0  0  0
    3.6536    4.8842    4.3895 H   0  0  0  0  0  0  0  0  0  0  0  0
    2.9859    3.7913    3.1761 H   0  0  0  0  0  0  0  0  0  0  0  0
    4.1674    3.2152    4.3261 H   0  0  0  0  0  0  0  0  0  0  0  0
    1.3094    5.2983    5.9517 H   0  0  0  0  0  0  0  0  0  0  0  0
    1.7648    5.7505    3.5149 H   0  0  0  0  0  0  0  0  0  0  0  0
    0.4137    4.7470    3.0901 H   0  0  0  0  0  0  0  0  0  0  0  0
    0.2094    7.1400    3.3586 H   0  0  0  0  0  0  0  0  0  0  0  0
   -1.3823    3.6226    3.8377 H   0  0  0  0  0  0  0  0  0  0  0  0
   -3.4548    3.3482    5.4128 H   0  0  0  0  0  0  0  0  0  0  0  0
   -2.5211    1.8631    5.4749 H   0  0  0  0  0  0  0  0  0  0  0  0
   -2.7107    4.0998    7.4114 H   0  0  0  0  0  0  0  0  0  0  0  0
   -2.3650    2.5473    8.9326 H   0  0  0  0  0  0  0  0  0  0  0  0
   -0.7255    4.7530    9.0540 H   0  0  0  0  0  0  0  0  0  0  0  0
   -1.2476    5.6956    7.6685 H   0  0  0  0  0  0  0  0  0  0  0  0
    0.4360    5.4838    7.9559 H   0  0  0  0  0  0  0  0  0  0  0  0
  1  2  1  0
  1 29  1  0
  1 30  1  0
  1 31  1  0
  2  3  2  0
  2  4  1  0
  4  5  1  0
  5 14  1  0
  5  6  1  0
  5 32  1  1
  6  7  1  0
  6  8  1  0
  6 33  1  6
  7 34  1  0
  8 27  1  0
  8  9  1  0
  8 35  1  1
  9 10  1  0
  9 11  1  0
  9 36  1  1
 10 37  1  0
 10 38  1  0
 10 39  1  0
 11 17  1  0
 11 12  1  1
 11 13  1  0
 12 40  1  0
 13 14  1  0
 14 15  1  6
 14 16  1  0
 15 41  1  0
 15 42  1  0
 15 43  1  0
 16 17  1  0
 17 18  1  6
 17 19  1  0
 18 44  1  0
 18 45  1  0
 18 46  1  0
 19 20  1  0
 19 22  1  0
 19 47  1  1
 20 21  1  0
 20 48  1  0
 20 49  1  0
 21 50  1  0
 22 27  1  0
 22 23  2  0
 23 24  1  0
 23 51  1  0
 24 25  1  0
 24 52  1  0
 24 53  1  0
 25 26  1  0
 25 27  1  0
 25 54  1  1
 26 55  1  0
 27 28  1  1
 28 56  1  0
 28 57  1  0
 28 58  1  0
M  END
>  <i_m_ct_stereo_status>  (90) 
1

>  <s_m_source_file>  (90) 
/var/tmp/pbs.5076255.sched01/tmpt68d_85j/0g9mu2vg5.sdf

>  <i_m_source_file_index>  (90) 
37

>  <i_lp_mmshare_version>  (90) 
48012

>  <i_f3d_flags>  (90) 
0

>  <s_epik_input>  (90) 
W09IXVtDQF0xMltDQEBdMyhbQ0gzXSlPW0NAXShPMikoW0NIM10pW0NASF0oT0MoPU8pW0NIM10pW0NAQEhdKFtPSF0pW0NAQEhdKFtDQEhdMVtDSDNdKVtDQEBdNChbQ0gzXSlDKFtDQEBIXTNbQ0gyXVtPSF0pPVtDSF1bQ0gyXVtDQEhdNFtPSF0=

>  <s_epik_cmdline>  (90) 
J2VwaWtfcHl0aG9uJywgJy1waHQnLCAnMi4wJywgJy1waCcsICc3LjAnLCAnLXRuJywgJzgnLCAnLW1hJywgJzIwMCcsICctaW1hZScsICc8aW5maWxlLm1hZT4nLCAnLW9tYWUnLCAnPG91dGZpbGUubWFlPic=

>  <r_lp_tautomer_probability>  (90) 
1

>  <r_epik_Ionization_Penalty>  (90) 
1.37185e-05

>  <r_epik_Ionization_Penalty_Charging>  (90) 
0

>  <r_epik_Ionization_Penalty_Neutral>  (90) 
1.37185e-05

>  <r_epik_State_Penalty>  (90) 
-0

>  <r_epik_Charging_Adjusted_Penalty>  (90) 
0

>  <i_epik_Tot_Q>  (90) 
0

>  <i_epik_Tot_abs_Q>  (90) 
0

>  <s_epik_Chemistry_Notes>  (90) 
This compound has an ester and may undergo hydrolysis at high or low pH.

>  <s_lp_Force_Field>  (90) 
OPLS3e

>  <r_lp_Energy>  (90) 
40.7801

>  <b_lp_Chiralities_Consistent>  (90) 
1

>  <s_lp_Variant>  (90) 
26:0-1

>  <s_i_glide_gridfile>  (90) 
pfpi4k_grid

>  <i_i_glide_lignum>  (90) 
37

>  <i_i_glide_rotatable_bonds>  (90) 
7

>  <r_i_docking_score>  (90) 
-3.10495

>  <r_i_glide_ligand_efficiency>  (90) 
-0.110891

>  <r_i_glide_ligand_efficiency_sa>  (90) 
-0.336731

>  <r_i_glide_ligand_efficiency_ln>  (90) 
-0.716714

>  <r_i_glide_gscore>  (90) 
-3.10495

>  <r_i_glide_lipo>  (90) 
-0.153661

>  <r_i_glide_hbond>  (90) 
-0.165449

>  <r_i_glide_metal>  (90) 
-0

>  <r_i_glide_rewards>  (90) 
-0.692404

>  <r_i_glide_evdw>  (90) 
-14.6575

>  <r_i_glide_ecoul>  (90) 
-10.152

>  <r_i_glide_erotb>  (90) 
0.172705

>  <r_i_glide_esite>  (90) 
-0.0104756

>  <r_i_glide_emodel>  (90) 
-30.034

>  <r_i_glide_energy>  (90) 
-24.8094

>  <r_i_glide_einternal>  (90) 
1.92917

>  <r_i_glide_intrahb_reward>  (90) 
-0

>  <i_i_glide_confnum>  (90) 
2

>  <i_i_glide_posenum>  (90) 
39

>  <r_i_glide_eff_state_penalty>  (90) 
0

>  <ligand_id>  (90) 
26

>  <original_smiles>  (90) 
CC(=O)OC1C(O)C2C(C)C3(O)OC1(C)OC3(C)C(CO)C1=CCC(O)C12C

>  <smiles>  (90) 
[H]OC([H])([H])C1([H])C2=C([H])C([H])([H])C([H])(O[H])C2(C([H])([H])[H])C2([H])C([H])(O[H])C([H])(OC(=O)C([H])([H])[H])C3(C([H])([H])[H])OC(O[H])(C2([H])C([H])([H])[H])C1(C([H])([H])[H])O3

$$$$
27:0:0
     RDKit          3D

 81 89  0  0  1  0  0  0  0  0999 V2000
    6.4437   -5.6608    4.7755 C   0  0  0  0  0  0  0  0  0  0  0  0
    5.0493   -5.5277    4.1244 C   0  0  1  0  0  0  0  0  0  0  0  0
    4.3643   -6.9117    4.2267 C   0  0  0  0  0  0  0  0  0  0  0  0
    5.1759   -8.0187    3.5255 C   0  0  0  0  0  0  0  0  0  0  0  0
    5.5100   -7.7129    2.0725 C   0  0  0  0  0  0  0  0  0  0  0  0
    5.5657   -8.6697    1.2764 O   0  0  0  0  0  0  0  0  0  0  0  0
    5.8270   -6.2929    1.6729 C   0  0  1  0  0  0  0  0  0  0  0  0
    7.2990   -6.2025    1.2814 C   0  0  0  0  0  0  0  0  0  0  0  0
    4.8384   -5.8346    0.5932 C   0  0  0  0  0  0  0  0  0  0  0  0
    4.2292   -4.8488    1.5338 C   0  0  2  0  0  0  0  0  0  0  0  0
    2.8539   -5.0381    1.8588 O   0  0  0  0  0  0  0  0  0  0  0  0
    3.1702   -3.8192    1.0991 C   0  0  1  0  0  0  0  0  0  0  0  0
    2.6340   -2.4950    1.6885 C   0  0  1  0  0  0  0  0  0  0  0  0
    1.6564   -2.4738    2.8930 C   0  0  1  0  0  0  0  0  0  0  0  0
    1.5139   -3.2471    4.2444 C   0  0  0  0  0  0  0  0  0  0  0  0
    2.1714   -2.6025    5.6251 C   0  0  0  0  0  0  0  0  0  0  0  0
    3.7127   -2.0853    5.7709 C   0  0  1  0  0  0  0  0  0  0  0  0
    4.4824   -3.0269    4.9126 C   0  0  1  0  0  0  0  0  0  0  0  0
    4.2637   -4.5541    5.0561 C   0  0  0  0  0  0  0  0  0  0  0  0
    4.1222   -2.3217    3.6452 C   0  0  1  0  0  0  0  0  0  0  0  0
    2.6447   -1.5251    3.3476 C   0  0  2  0  0  0  0  0  0  0  0  0
    1.9902   -0.3786    4.0189 O   0  0  0  0  0  0  0  0  0  0  0  0
    0.6751    0.0824    3.7710 C   0  0  2  0  0  0  0  0  0  0  0  0
    0.6608    0.9165    2.6504 O   0  0  0  0  0  0  0  0  0  0  0  0
   -0.6265    1.3890    2.2614 C   0  0  0  0  0  0  0  0  0  0  0  0
   -1.2798    2.1856    3.4032 C   0  0  1  0  0  0  0  0  0  0  0  0
   -2.6038    2.6061    3.1195 O   0  0  0  0  0  0  0  0  0  0  0  0
   -1.2661    1.3646    4.6961 C   0  0  1  0  0  0  0  0  0  0  0  0
   -2.1286    0.2268    4.5735 O   0  0  0  0  0  0  0  0  0  0  0  0
    0.1912    0.9297    4.9865 C   0  0  1  0  0  0  0  0  0  0  0  0
    0.0918    0.1915    6.1926 O   0  0  0  0  0  0  0  0  0  0  0  0
    3.4513   -1.1648    2.2148 C   0  0  2  0  0  0  0  0  0  0  0  0
    3.3325    0.0872    1.3531 C   0  0  0  0  0  0  0  0  0  0  0  0
    4.4929   -0.9549    3.5086 C   0  0  2  0  0  0  0  0  0  0  0  0
    5.7878   -0.6626    3.0462 O   0  0  0  0  0  0  0  0  0  0  0  0
    4.3467   -0.7234    5.1182 C   0  0  1  0  0  0  0  0  0  0  0  0
    3.8219    0.6520    5.6018 C   0  0  0  0  0  0  0  0  0  0  0  0
    5.6673   -0.6362    5.6531 O   0  0  0  0  0  0  0  0  0  0  0  0
    5.2999   -5.1597    2.6078 C   0  0  1  0  0  0  0  0  0  0  0  0
    7.1155   -6.2819    4.1831 H   0  0  0  0  0  0  0  0  0  0  0  0
    6.3967   -6.1147    5.7671 H   0  0  0  0  0  0  0  0  0  0  0  0
    6.9287   -4.6913    4.8848 H   0  0  0  0  0  0  0  0  0  0  0  0
    4.1755   -7.1910    5.2720 H   0  0  0  0  0  0  0  0  0  0  0  0
    3.3885   -6.8720    3.7474 H   0  0  0  0  0  0  0  0  0  0  0  0
    6.1151   -8.2072    4.0505 H   0  0  0  0  0  0  0  0  0  0  0  0
    4.6046   -8.9499    3.5510 H   0  0  0  0  0  0  0  0  0  0  0  0
    7.5537   -5.2053    0.9354 H   0  0  0  0  0  0  0  0  0  0  0  0
    7.5384   -6.8858    0.4793 H   0  0  0  0  0  0  0  0  0  0  0  0
    7.9616   -6.4447    2.1029 H   0  0  0  0  0  0  0  0  0  0  0  0
    5.3507   -5.3625   -0.2512 H   0  0  0  0  0  0  0  0  0  0  0  0
    4.1155   -6.5919    0.2511 H   0  0  0  0  0  0  0  0  0  0  0  0
    2.9715   -3.8665    0.0310 H   0  0  0  0  0  0  0  0  0  0  0  0
    2.0320   -2.0462    0.8977 H   0  0  0  0  0  0  0  0  0  0  0  0
    0.7242   -2.1149    2.4616 H   0  0  0  0  0  0  0  0  0  0  0  0
    0.4497   -3.2983    4.4589 H   0  0  0  0  0  0  0  0  0  0  0  0
    1.7442   -4.2923    4.0432 H   0  0  0  0  0  0  0  0  0  0  0  0
    1.5574   -1.7681    5.9509 H   0  0  0  0  0  0  0  0  0  0  0  0
    2.0481   -3.3694    6.3941 H   0  0  0  0  0  0  0  0  0  0  0  0
    4.0219   -2.1392    6.8162 H   0  0  0  0  0  0  0  0  0  0  0  0
    5.5520   -2.9152    5.0809 H   0  0  0  0  0  0  0  0  0  0  0  0
    3.2447   -4.8887    5.1392 H   0  0  0  0  0  0  0  0  0  0  0  0
    4.5914   -4.7724    6.0752 H   0  0  0  0  0  0  0  0  0  0  0  0
    4.7166   -2.8198    2.8754 H   0  0  0  0  0  0  0  0  0  0  0  0
   -0.0268   -0.7364    3.6127 H   0  0  0  0  0  0  0  0  0  0  0  0
   -0.5014    2.0106    1.3816 H   0  0  0  0  0  0  0  0  0  0  0  0
   -1.2587    0.5537    1.9766 H   0  0  0  0  0  0  0  0  0  0  0  0
   -0.6965    3.0868    3.5821 H   0  0  0  0  0  0  0  0  0  0  0  0
   -3.1171    1.8780    2.7902 H   0  0  0  0  0  0  0  0  0  0  0  0
   -1.6341    1.9685    5.5231 H   0  0  0  0  0  0  0  0  0  0  0  0
   -2.8608    0.4253    3.9943 H   0  0  0  0  0  0  0  0  0  0  0  0
    0.8697    1.7879    5.1460 H   0  0  0  0  0  0  0  0  0  0  0  0
    0.8971   -0.2850    6.3206 H   0  0  0  0  0  0  0  0  0  0  0  0
    3.3478    0.9891    1.9678 H   0  0  0  0  0  0  0  0  0  0  0  0
    2.4367    0.1024    0.7291 H   0  0  0  0  0  0  0  0  0  0  0  0
    4.2018    0.1609    0.6911 H   0  0  0  0  0  0  0  0  0  0  0  0
    5.8647   -1.2052    2.2768 H   0  0  0  0  0  0  0  0  0  0  0  0
    2.8371    0.5582    6.0511 H   0  0  0  0  0  0  0  0  0  0  0  0
    3.7578    1.3677    4.7801 H   0  0  0  0  0  0  0  0  0  0  0  0
    4.4518    1.1061    6.3674 H   0  0  0  0  0  0  0  0  0  0  0  0
    6.1183    0.0407    5.1691 H   0  0  0  0  0  0  0  0  0  0  0  0
    6.0896   -4.4091    2.5381 H   0  0  0  0  0  0  0  0  0  0  0  0
  2  1  1  1
  1 40  1  0
  1 41  1  0
  1 42  1  0
  2 19  1  0
  2 39  1  0
  2  3  1  0
  3  4  1  0
  3 43  1  0
  3 44  1  0
  4  5  1  0
  4 45  1  0
  4 46  1  0
  5  6  2  0
  5  7  1  0
  7 39  1  0
  7  8  1  6
  7  9  1  0
  8 47  1  0
  8 48  1  0
  8 49  1  0
  9 10  1  0
  9 50  1  0
  9 51  1  0
 10 12  1  0
 10 11  1  1
 10 39  1  0
 11 12  1  0
 12 13  1  0
 12 52  1  6
 13 32  1  0
 13 14  1  0
 13 53  1  6
 14 21  1  0
 14 15  1  0
 14 54  1  6
 15 16  1  0
 15 55  1  0
 15 56  1  0
 16 17  1  0
 16 57  1  0
 16 58  1  0
 17 36  1  0
 17 18  1  0
 17 59  1  1
 18 19  1  0
 18 20  1  0
 18 60  1  1
 19 61  1  0
 19 62  1  0
 20 34  1  0
 20 21  1  0
 20 63  1  6
 21 22  1  1
 21 32  1  0
 22 23  1  0
 23 30  1  0
 23 24  1  0
 23 64  1  6
 24 25  1  0
 25 26  1  0
 25 65  1  0
 25 66  1  0
 26 27  1  0
 26 28  1  0
 26 67  1  1
 27 68  1  0
 28 29  1  0
 28 30  1  0
 28 69  1  1
 29 70  1  0
 30 31  1  0
 30 71  1  1
 31 72  1  0
 32 33  1  6
 32 34  1  0
 33 73  1  0
 33 74  1  0
 33 75  1  0
 34 35  1  6
 34 36  1  0
 35 76  1  0
 36 37  1  0
 36 38  1  1
 37 77  1  0
 37 78  1  0
 37 79  1  0
 38 80  1  0
 39 81  1  1
M  END
>  <i_m_ct_stereo_status>  (91) 
1

>  <s_m_source_file>  (91) 
/var/tmp/pbs.5076255.sched01/tmpt68d_85j/0g9mu2vg5.sdf

>  <i_m_source_file_index>  (91) 
38

>  <i_lp_mmshare_version>  (91) 
48012

>  <i_f3d_flags>  (91) 
0

>  <s_epik_input>  (91) 
W0NIMl0xW0NIMl1DKD1PKVtDQEBdKFtDSDNdKShbQ0gyXTIpW0NAQEhdM1tDQEBdMShbQ0gzXSlbQ0gyXVtDQEhdKFtDQEhdKFtDSDJdW0NIMl00KVtDQEBdKFtDSDNdKShbT0hdKVtDQF01KFtPSF0pW0NAQF02N1tDSDNdKVtDQEhdNVtDQEBdNyhbQ0BIXTRbQ0BASF02W0NAQEhdKFtDQEBdMjM4KU84KU9bQ0BASF05T1tDSDJdW0NAQEhdKFtPSF0pW0NAQEhdKFtPSF0pW0NASF05W09IXQ==

>  <s_epik_cmdline>  (91) 
J2VwaWtfcHl0aG9uJywgJy1waHQnLCAnMi4wJywgJy1waCcsICc3LjAnLCAnLXRuJywgJzgnLCAnLW1hJywgJzIwMCcsICctaW1hZScsICc8aW5maWxlLm1hZT4nLCAnLW9tYWUnLCAnPG91dGZpbGUubWFlPic=

>  <r_lp_tautomer_probability>  (91) 
1

>  <r_epik_Ionization_Penalty>  (91) 
2.36327e-06

>  <r_epik_Ionization_Penalty_Charging>  (91) 
0

>  <r_epik_Ionization_Penalty_Neutral>  (91) 
2.36327e-06

>  <r_epik_State_Penalty>  (91) 
-0

>  <r_epik_Charging_Adjusted_Penalty>  (91) 
0

>  <i_epik_Tot_Q>  (91) 
0

>  <i_epik_Tot_abs_Q>  (91) 
0

>  <s_epik_Chemistry_Notes>  (91) 
This compound contains an acetal/aminal-like group ( X-CH(R)-Y where X, Y are N, S, or O) that may be acid/base labile, releasing an aldehyde.

>  <s_lp_Force_Field>  (91) 
OPLS3e

>  <r_lp_Energy>  (91) 
300.773

>  <b_lp_Chiralities_Consistent>  (91) 
1

>  <s_lp_Variant>  (91) 
27:0-1

>  <s_i_glide_gridfile>  (91) 
pfpi4k_grid

>  <i_i_glide_lignum>  (91) 
38

>  <i_i_glide_rotatable_bonds>  (91) 
7

>  <r_i_docking_score>  (91) 
-3.14703

>  <r_i_glide_ligand_efficiency>  (91) 
-0.080693

>  <r_i_glide_ligand_efficiency_sa>  (91) 
-0.273647

>  <r_i_glide_ligand_efficiency_ln>  (91) 
-0.674812

>  <r_i_glide_gscore>  (91) 
-3.14703

>  <r_i_glide_lipo>  (91) 
-0.37316

>  <r_i_glide_hbond>  (91) 
0

>  <r_i_glide_metal>  (91) 
-0

>  <r_i_glide_rewards>  (91) 
-0.0516933

>  <r_i_glide_evdw>  (91) 
-23.4146

>  <r_i_glide_ecoul>  (91) 
-11.1852

>  <r_i_glide_erotb>  (91) 
0.138618

>  <r_i_glide_esite>  (91) 
-0.0122893

>  <r_i_glide_emodel>  (91) 
-38.133

>  <r_i_glide_energy>  (91) 
-34.5998

>  <r_i_glide_einternal>  (91) 
3.12466

>  <r_i_glide_intrahb_reward>  (91) 
-0

>  <i_i_glide_confnum>  (91) 
2

>  <i_i_glide_posenum>  (91) 
26

>  <r_i_glide_eff_state_penalty>  (91) 
0

>  <ligand_id>  (91) 
27

>  <original_smiles>  (91) 
CC12CCC(=O)C3(C)CC4(OC4C4C5CCC6C(C1)C1C5(OC5OCC(O)C(O)C5O)C4(C)C1(O)C6(C)O)C23

>  <smiles>  (91) 
[H]OC1([H])C([H])([H])OC([H])(OC23C4([H])C([H])([H])C([H])([H])C5([H])C6([H])C([H])([H])C7(C([H])([H])[H])C([H])([H])C([H])([H])C(=O)C8(C([H])([H])[H])C([H])([H])C9(OC9([H])C4([H])C2(C([H])([H])[H])C(O[H])(C63[H])C5(O[H])C([H])([H])[H])C87[H])C([H])(O[H])C1([H])O[H]

$$$$
27:0:1
     RDKit          3D

 81 89  0  0  1  0  0  0  0  0999 V2000
    6.3725   -5.7266    4.6186 C   0  0  0  0  0  0  0  0  0  0  0  0
    4.9899   -5.5445    3.9419 C   0  0  1  0  0  0  0  0  0  0  0  0
    4.2917   -6.9254    3.9568 C   0  0  0  0  0  0  0  0  0  0  0  0
    5.1131   -8.0036    3.2251 C   0  0  0  0  0  0  0  0  0  0  0  0
    5.4724   -7.6371    1.7944 C   0  0  0  0  0  0  0  0  0  0  0  0
    5.5063   -8.5732    0.9790 O   0  0  0  0  0  0  0  0  0  0  0  0
    5.8185   -6.1968    1.4631 C   0  0  1  0  0  0  0  0  0  0  0  0
    7.2965   -6.0919    1.1030 C   0  0  0  0  0  0  0  0  0  0  0  0
    4.8498   -5.6808    0.3944 C   0  0  0  0  0  0  0  0  0  0  0  0
    4.2257   -4.7304    1.3703 C   0  0  2  0  0  0  0  0  0  0  0  0
    2.8391   -4.9242    1.6511 O   0  0  0  0  0  0  0  0  0  0  0  0
    3.1951   -3.6743    0.9608 C   0  0  1  0  0  0  0  0  0  0  0  0
    2.6626   -2.3779    1.5950 C   0  0  1  0  0  0  0  0  0  0  0  0
    1.6549   -2.3916    2.7807 C   0  0  1  0  0  0  0  0  0  0  0  0
    1.4641   -3.2246    4.0925 C   0  0  0  0  0  0  0  0  0  0  0  0
    2.0942   -2.6474    5.5115 C   0  0  0  0  0  0  0  0  0  0  0  0
    3.6412   -2.1648    5.7200 C   0  0  1  0  0  0  0  0  0  0  0  0
    4.4179   -3.0769    4.8340 C   0  0  1  0  0  0  0  0  0  0  0  0
    4.1901   -4.6078    4.9030 C   0  0  0  0  0  0  0  0  0  0  0  0
    4.0951   -2.3124    3.5992 C   0  0  1  0  0  0  0  0  0  0  0  0
    2.6471   -1.4855    3.3003 C   0  0  2  0  0  0  0  0  0  0  0  0
    2.0093   -0.3448    3.9887 O   0  0  0  0  0  0  0  0  0  0  0  0
    0.6891    0.1175    3.7652 C   0  0  2  0  0  0  0  0  0  0  0  0
    0.6472    0.9318    2.6265 O   0  0  0  0  0  0  0  0  0  0  0  0
   -0.6476    1.3910    2.2453 C   0  0  0  0  0  0  0  0  0  0  0  0
   -1.2645    2.2186    3.3829 C   0  0  1  0  0  0  0  0  0  0  0  0
   -2.5931    2.6412    3.1151 O   0  0  0  0  0  0  0  0  0  0  0  0
   -1.2381    1.4124    4.6837 C   0  0  1  0  0  0  0  0  0  0  0  0
   -2.1236    0.2731    4.5840 O   0  0  0  0  0  0  0  0  0  0  0  0
    0.2091    0.9550    4.9850 C   0  0  1  0  0  0  0  0  0  0  0  0
    0.0771    0.1669    6.1552 O   0  0  0  0  0  0  0  0  0  0  0  0
    3.4784   -1.0877    2.2043 C   0  0  2  0  0  0  0  0  0  0  0  0
    3.3840    0.2071    1.4025 C   0  0  0  0  0  0  0  0  0  0  0  0
    4.4845   -0.9506    3.5230 C   0  0  2  0  0  0  0  0  0  0  0  0
    5.7924   -0.6658    3.0854 O   0  0  0  0  0  0  0  0  0  0  0  0
    4.3086   -0.7822    5.1389 C   0  0  1  0  0  0  0  0  0  0  0  0
    3.7823    0.5696    5.6823 C   0  0  0  0  0  0  0  0  0  0  0  0
    5.6201   -0.7398    5.7043 O   0  0  0  0  0  0  0  0  0  0  0  0
    5.2710   -5.1081    2.4491 C   0  0  1  0  0  0  0  0  0  0  0  0
    7.0573   -6.3199    4.0078 H   0  0  0  0  0  0  0  0  0  0  0  0
    6.2984   -6.2315    5.5801 H   0  0  0  0  0  0  0  0  0  0  0  0
    6.8648   -4.7709    4.8062 H   0  0  0  0  0  0  0  0  0  0  0  0
    4.0769   -7.2443    4.9843 H   0  0  0  0  0  0  0  0  0  0  0  0
    3.3305   -6.8458    3.4599 H   0  0  0  0  0  0  0  0  0  0  0  0
    6.0346   -8.2266    3.7733 H   0  0  0  0  0  0  0  0  0  0  0  0
    4.5285   -8.9315    3.2117 H   0  0  0  0  0  0  0  0  0  0  0  0
    7.5557   -5.0742    0.8406 H   0  0  0  0  0  0  0  0  0  0  0  0
    7.5492   -6.6852    0.2344 H   0  0  0  0  0  0  0  0  0  0  0  0
    7.9416   -6.3969    1.9166 H   0  0  0  0  0  0  0  0  0  0  0  0
    5.3828   -5.1660   -0.4097 H   0  0  0  0  0  0  0  0  0  0  0  0
    4.1381   -6.4193   -0.0202 H   0  0  0  0  0  0  0  0  0  0  0  0
    3.0200   -3.6719   -0.1147 H   0  0  0  0  0  0  0  0  0  0  0  0
    2.0939   -1.8850    0.8117 H   0  0  0  0  0  0  0  0  0  0  0  0
    0.7346   -2.0058    2.3305 H   0  0  0  0  0  0  0  0  0  0  0  0
    0.3919   -3.2919    4.2745 H   0  0  0  0  0  0  0  0  0  0  0  0
    1.7041   -4.2542    3.8550 H   0  0  0  0  0  0  0  0  0  0  0  0
    1.4840   -1.8201    5.8604 H   0  0  0  0  0  0  0  0  0  0  0  0
    1.9315   -3.4334    6.2456 H   0  0  0  0  0  0  0  0  0  0  0  0
    3.9125   -2.2835    6.7719 H   0  0  0  0  0  0  0  0  0  0  0  0
    5.4813   -2.9870    5.0267 H   0  0  0  0  0  0  0  0  0  0  0  0
    3.1701   -4.9356    4.9438 H   0  0  0  0  0  0  0  0  0  0  0  0
    4.4950   -4.8781    5.9127 H   0  0  0  0  0  0  0  0  0  0  0  0
    4.6882   -2.7864    2.8172 H   0  0  0  0  0  0  0  0  0  0  0  0
   -0.0204   -0.7012    3.6370 H   0  0  0  0  0  0  0  0  0  0  0  0
   -0.5227    1.9897    1.3485 H   0  0  0  0  0  0  0  0  0  0  0  0
   -1.2860    0.5487    1.9909 H   0  0  0  0  0  0  0  0  0  0  0  0
   -0.6749    3.1235    3.5237 H   0  0  0  0  0  0  0  0  0  0  0  0
   -3.1172    1.9147    2.8053 H   0  0  0  0  0  0  0  0  0  0  0  0
   -1.5958    2.0382    5.5036 H   0  0  0  0  0  0  0  0  0  0  0  0
   -2.8536    0.4908    4.0305 H   0  0  0  0  0  0  0  0  0  0  0  0
    0.8907    1.7925    5.1683 H   0  0  0  0  0  0  0  0  0  0  0  0
   -0.2286   -0.6794    5.8675 H   0  0  0  0  0  0  0  0  0  0  0  0
    3.3870    1.0854    2.0561 H   0  0  0  0  0  0  0  0  0  0  0  0
    2.4968    0.2545    0.7671 H   0  0  0  0  0  0  0  0  0  0  0  0
    4.2623    0.3096    0.7593 H   0  0  0  0  0  0  0  0  0  0  0  0
    5.8758   -1.1585    2.2905 H   0  0  0  0  0  0  0  0  0  0  0  0
    2.7864    0.4616    6.1028 H   0  0  0  0  0  0  0  0  0  0  0  0
    3.7415    1.3162    4.8896 H   0  0  0  0  0  0  0  0  0  0  0  0
    4.3958    0.9943    6.4753 H   0  0  0  0  0  0  0  0  0  0  0  0
    5.5385   -0.6319    6.6338 H   0  0  0  0  0  0  0  0  0  0  0  0
    6.0627   -4.3610    2.4283 H   0  0  0  0  0  0  0  0  0  0  0  0
  2  1  1  1
  1 40  1  0
  1 41  1  0
  1 42  1  0
  2 19  1  0
  2 39  1  0
  2  3  1  0
  3  4  1  0
  3 43  1  0
  3 44  1  0
  4  5  1  0
  4 45  1  0
  4 46  1  0
  5  6  2  0
  5  7  1  0
  7 39  1  0
  7  8  1  6
  7  9  1  0
  8 47  1  0
  8 48  1  0
  8 49  1  0
  9 10  1  0
  9 50  1  0
  9 51  1  0
 10 12  1  0
 10 11  1  1
 10 39  1  0
 11 12  1  0
 12 13  1  0
 12 52  1  6
 13 32  1  0
 13 14  1  0
 13 53  1  6
 14 21  1  0
 14 15  1  0
 14 54  1  6
 15 16  1  0
 15 55  1  0
 15 56  1  0
 16 17  1  0
 16 57  1  0
 16 58  1  0
 17 36  1  0
 17 18  1  0
 17 59  1  1
 18 19  1  0
 18 20  1  0
 18 60  1  1
 19 61  1  0
 19 62  1  0
 20 34  1  0
 20 21  1  0
 20 63  1  6
 21 22  1  1
 21 32  1  0
 22 23  1  0
 23 30  1  0
 23 24  1  0
 23 64  1  6
 24 25  1  0
 25 26  1  0
 25 65  1  0
 25 66  1  0
 26 27  1  0
 26 28  1  0
 26 67  1  1
 27 68  1  0
 28 29  1  0
 28 30  1  0
 28 69  1  1
 29 70  1  0
 30 31  1  0
 30 71  1  1
 31 72  1  0
 32 33  1  6
 32 34  1  0
 33 73  1  0
 33 74  1  0
 33 75  1  0
 34 35  1  6
 34 36  1  0
 35 76  1  0
 36 37  1  0
 36 38  1  1
 37 77  1  0
 37 78  1  0
 37 79  1  0
 38 80  1  0
 39 81  1  1
M  END
>  <i_m_ct_stereo_status>  (92) 
1

>  <s_m_source_file>  (92) 
/var/tmp/pbs.5076255.sched01/tmpt68d_85j/0g9mu2vg5.sdf

>  <i_m_source_file_index>  (92) 
38

>  <i_lp_mmshare_version>  (92) 
48012

>  <i_f3d_flags>  (92) 
0

>  <s_epik_input>  (92) 
W0NIMl0xW0NIMl1DKD1PKVtDQEBdKFtDSDNdKShbQ0gyXTIpW0NAQEhdM1tDQEBdMShbQ0gzXSlbQ0gyXVtDQEhdKFtDQEhdKFtDSDJdW0NIMl00KVtDQEBdKFtDSDNdKShbT0hdKVtDQF01KFtPSF0pW0NAQF02N1tDSDNdKVtDQEhdNVtDQEBdNyhbQ0BIXTRbQ0BASF02W0NAQEhdKFtDQEBdMjM4KU84KU9bQ0BASF05T1tDSDJdW0NAQEhdKFtPSF0pW0NAQEhdKFtPSF0pW0NASF05W09IXQ==

>  <s_epik_cmdline>  (92) 
J2VwaWtfcHl0aG9uJywgJy1waHQnLCAnMi4wJywgJy1waCcsICc3LjAnLCAnLXRuJywgJzgnLCAnLW1hJywgJzIwMCcsICctaW1hZScsICc8aW5maWxlLm1hZT4nLCAnLW9tYWUnLCAnPG91dGZpbGUubWFlPic=

>  <r_lp_tautomer_probability>  (92) 
1

>  <r_epik_Ionization_Penalty>  (92) 
2.36327e-06

>  <r_epik_Ionization_Penalty_Charging>  (92) 
0

>  <r_epik_Ionization_Penalty_Neutral>  (92) 
2.36327e-06

>  <r_epik_State_Penalty>  (92) 
-0

>  <r_epik_Charging_Adjusted_Penalty>  (92) 
0

>  <i_epik_Tot_Q>  (92) 
0

>  <i_epik_Tot_abs_Q>  (92) 
0

>  <s_epik_Chemistry_Notes>  (92) 
This compound contains an acetal/aminal-like group ( X-CH(R)-Y where X, Y are N, S, or O) that may be acid/base labile, releasing an aldehyde.

>  <s_lp_Force_Field>  (92) 
OPLS3e

>  <r_lp_Energy>  (92) 
300.773

>  <b_lp_Chiralities_Consistent>  (92) 
1

>  <s_lp_Variant>  (92) 
27:0-1

>  <s_i_glide_gridfile>  (92) 
pfpi4k_grid

>  <i_i_glide_lignum>  (92) 
38

>  <i_i_glide_rotatable_bonds>  (92) 
7

>  <r_i_docking_score>  (92) 
-3.11866

>  <r_i_glide_ligand_efficiency>  (92) 
-0.0799657

>  <r_i_glide_ligand_efficiency_sa>  (92) 
-0.271181

>  <r_i_glide_ligand_efficiency_ln>  (92) 
-0.66873

>  <r_i_glide_gscore>  (92) 
-3.11866

>  <r_i_glide_lipo>  (92) 
-0.416362

>  <r_i_glide_hbond>  (92) 
0

>  <r_i_glide_metal>  (92) 
-0

>  <r_i_glide_rewards>  (92) 
-0.0836615

>  <r_i_glide_evdw>  (92) 
-23.0156

>  <r_i_glide_ecoul>  (92) 
-10.628

>  <r_i_glide_erotb>  (92) 
0.138618

>  <r_i_glide_esite>  (92) 
-0.0122793

>  <r_i_glide_emodel>  (92) 
-37.1805

>  <r_i_glide_energy>  (92) 
-33.6436

>  <r_i_glide_einternal>  (92) 
2.94883

>  <r_i_glide_intrahb_reward>  (92) 
-0

>  <i_i_glide_confnum>  (92) 
2

>  <i_i_glide_posenum>  (92) 
38

>  <r_i_glide_eff_state_penalty>  (92) 
0

>  <ligand_id>  (92) 
27

>  <original_smiles>  (92) 
CC12CCC(=O)C3(C)CC4(OC4C4C5CCC6C(C1)C1C5(OC5OCC(O)C(O)C5O)C4(C)C1(O)C6(C)O)C23

>  <smiles>  (92) 
[H]OC1([H])C([H])([H])OC([H])(OC23C4([H])C([H])([H])C([H])([H])C5([H])C6([H])C([H])([H])C7(C([H])([H])[H])C([H])([H])C([H])([H])C(=O)C8(C([H])([H])[H])C([H])([H])C9(OC9([H])C4([H])C2(C([H])([H])[H])C(O[H])(C63[H])C5(O[H])C([H])([H])[H])C87[H])C([H])(O[H])C1([H])O[H]

$$$$
27:0:2
     RDKit          3D

 81 89  0  0  1  0  0  0  0  0999 V2000
    6.4138   -5.6395    4.7272 C   0  0  0  0  0  0  0  0  0  0  0  0
    5.0129   -5.4864    4.0909 C   0  0  1  0  0  0  0  0  0  0  0  0
    4.3390   -6.8829    4.1445 C   0  0  0  0  0  0  0  0  0  0  0  0
    5.1541   -7.9508    3.3901 C   0  0  0  0  0  0  0  0  0  0  0  0
    5.4604   -7.5972    1.9475 C   0  0  0  0  0  0  0  0  0  0  0  0
    5.5026   -8.5319    1.1364 O   0  0  0  0  0  0  0  0  0  0  0  0
    5.7676   -6.1539    1.5925 C   0  0  1  0  0  0  0  0  0  0  0  0
    7.2323   -6.0406    1.1804 C   0  0  0  0  0  0  0  0  0  0  0  0
    4.7599   -5.6640    0.5509 C   0  0  0  0  0  0  0  0  0  0  0  0
    4.1564   -4.7115    1.5343 C   0  0  2  0  0  0  0  0  0  0  0  0
    2.7851   -4.9318    1.8691 O   0  0  0  0  0  0  0  0  0  0  0  0
    3.0817   -3.6802    1.1508 C   0  0  1  0  0  0  0  0  0  0  0  0
    2.5515   -2.3838    1.7904 C   0  0  1  0  0  0  0  0  0  0  0  0
    1.5853   -2.3896    3.0071 C   0  0  1  0  0  0  0  0  0  0  0  0
    1.4461   -3.2082    4.3355 C   0  0  0  0  0  0  0  0  0  0  0  0
    2.1051   -2.5915    5.7220 C   0  0  0  0  0  0  0  0  0  0  0  0
    3.6592   -2.1045    5.8742 C   0  0  1  0  0  0  0  0  0  0  0  0
    4.4207   -3.0206    4.9743 C   0  0  1  0  0  0  0  0  0  0  0  0
    4.2219   -4.5544    5.0680 C   0  0  0  0  0  0  0  0  0  0  0  0
    4.0614   -2.2736    3.7399 C   0  0  1  0  0  0  0  0  0  0  0  0
    2.5953   -1.4670    3.4756 C   0  0  2  0  0  0  0  0  0  0  0  0
    1.9721   -0.3085    4.1377 O   0  0  0  0  0  0  0  0  0  0  0  0
    0.6536    0.1484    3.9162 C   0  0  2  0  0  0  0  0  0  0  0  0
    0.5810    0.8140    2.6827 O   0  0  0  0  0  0  0  0  0  0  0  0
   -0.7076    1.2709    2.2927 C   0  0  0  0  0  0  0  0  0  0  0  0
   -1.2429    2.2681    3.3209 C   0  0  1  0  0  0  0  0  0  0  0  0
   -2.5750    2.6989    3.0536 O   0  0  0  0  0  0  0  0  0  0  0  0
   -1.1778    1.6405    4.7206 C   0  0  1  0  0  0  0  0  0  0  0  0
   -2.1009    0.5372    4.8401 O   0  0  0  0  0  0  0  0  0  0  0  0
    0.2604    1.1443    5.0300 C   0  0  1  0  0  0  0  0  0  0  0  0
    0.1554    0.5030    6.2955 O   0  0  0  0  0  0  0  0  0  0  0  0
    3.3888   -1.0777    2.3508 C   0  0  2  0  0  0  0  0  0  0  0  0
    3.2455    0.2064    1.5389 C   0  0  0  0  0  0  0  0  0  0  0  0
    4.4304   -0.9109    3.6449 C   0  0  2  0  0  0  0  0  0  0  0  0
    5.7274   -0.6205    3.1967 O   0  0  0  0  0  0  0  0  0  0  0  0
    4.2943   -0.7278    5.2668 C   0  0  1  0  0  0  0  0  0  0  0  0
    3.7623    0.6213    5.8080 C   0  0  0  0  0  0  0  0  0  0  0  0
    5.6162   -0.6560    5.7980 O   0  0  0  0  0  0  0  0  0  0  0  0
    5.2385   -5.0621    2.5821 C   0  0  1  0  0  0  0  0  0  0  0  0
    7.0921   -6.2206    4.0962 H   0  0  0  0  0  0  0  0  0  0  0  0
    6.3796   -6.1477    5.6890 H   0  0  0  0  0  0  0  0  0  0  0  0
    6.8943   -4.6731    4.9007 H   0  0  0  0  0  0  0  0  0  0  0  0
    4.1643   -7.1998    5.1813 H   0  0  0  0  0  0  0  0  0  0  0  0
    3.3644   -6.8302    3.6772 H   0  0  0  0  0  0  0  0  0  0  0  0
    6.0977   -8.1579    3.9041 H   0  0  0  0  0  0  0  0  0  0  0  0
    4.5862   -8.8911    3.3973 H   0  0  0  0  0  0  0  0  0  0  0  0
    7.4751   -5.0275    0.8846 H   0  0  0  0  0  0  0  0  0  0  0  0
    7.4572   -6.6619    0.3200 H   0  0  0  0  0  0  0  0  0  0  0  0
    7.9103   -6.3221    1.9765 H   0  0  0  0  0  0  0  0  0  0  0  0
    5.2601   -5.1605   -0.2804 H   0  0  0  0  0  0  0  0  0  0  0  0
    4.0411   -6.4201    0.1787 H   0  0  0  0  0  0  0  0  0  0  0  0
    2.8761   -3.6897    0.0810 H   0  0  0  0  0  0  0  0  0  0  0  0
    1.9335   -1.9095    1.0314 H   0  0  0  0  0  0  0  0  0  0  0  0
    0.6481   -2.0138    2.5893 H   0  0  0  0  0  0  0  0  0  0  0  0
    0.3822   -3.3112    4.5543 H   0  0  0  0  0  0  0  0  0  0  0  0
    1.7113   -4.2339    4.1103 H   0  0  0  0  0  0  0  0  0  0  0  0
    1.4865   -1.7636    6.0698 H   0  0  0  0  0  0  0  0  0  0  0  0
    1.9784   -3.3671    6.4732 H   0  0  0  0  0  0  0  0  0  0  0  0
    3.9732   -2.2056    6.9178 H   0  0  0  0  0  0  0  0  0  0  0  0
    5.4837   -2.9120    5.1398 H   0  0  0  0  0  0  0  0  0  0  0  0
    3.2115   -4.8996    5.1466 H   0  0  0  0  0  0  0  0  0  0  0  0
    4.5702   -4.8109    6.0676 H   0  0  0  0  0  0  0  0  0  0  0  0
    4.6411   -2.7497    2.9423 H   0  0  0  0  0  0  0  0  0  0  0  0
   -0.0693   -0.6603    3.9447 H   0  0  0  0  0  0  0  0  0  0  0  0
   -0.6089    1.7322    1.3168 H   0  0  0  0  0  0  0  0  0  0  0  0
   -1.3838    0.4344    2.1931 H   0  0  0  0  0  0  0  0  0  0  0  0
   -0.6125    3.1501    3.3141 H   0  0  0  0  0  0  0  0  0  0  0  0
   -3.1189    1.9658    2.8019 H   0  0  0  0  0  0  0  0  0  0  0  0
   -1.4727    2.3958    5.4612 H   0  0  0  0  0  0  0  0  0  0  0  0
   -2.7676    0.6279    4.1565 H   0  0  0  0  0  0  0  0  0  0  0  0
    0.9787    1.9648    5.0752 H   0  0  0  0  0  0  0  0  0  0  0  0
   -0.3410   -0.2873    6.1534 H   0  0  0  0  0  0  0  0  0  0  0  0
    3.2658    1.0879    2.1915 H   0  0  0  0  0  0  0  0  0  0  0  0
    2.3442    0.2465    0.9196 H   0  0  0  0  0  0  0  0  0  0  0  0
    4.1013    0.3144    0.8730 H   0  0  0  0  0  0  0  0  0  0  0  0
    5.8096   -1.1107    2.3997 H   0  0  0  0  0  0  0  0  0  0  0  0
    2.7814    0.4965    6.2601 H   0  0  0  0  0  0  0  0  0  0  0  0
    3.6828    1.3661    5.0146 H   0  0  0  0  0  0  0  0  0  0  0  0
    4.3942    1.0487    6.5855 H   0  0  0  0  0  0  0  0  0  0  0  0
    6.0468    0.0548    5.3520 H   0  0  0  0  0  0  0  0  0  0  0  0
    6.0264   -4.3115    2.5280 H   0  0  0  0  0  0  0  0  0  0  0  0
  2  1  1  1
  1 40  1  0
  1 41  1  0
  1 42  1  0
  2 19  1  0
  2 39  1  0
  2  3  1  0
  3  4  1  0
  3 43  1  0
  3 44  1  0
  4  5  1  0
  4 45  1  0
  4 46  1  0
  5  6  2  0
  5  7  1  0
  7 39  1  0
  7  8  1  6
  7  9  1  0
  8 47  1  0
  8 48  1  0
  8 49  1  0
  9 10  1  0
  9 50  1  0
  9 51  1  0
 10 12  1  0
 10 11  1  1
 10 39  1  0
 11 12  1  0
 12 13  1  0
 12 52  1  6
 13 32  1  0
 13 14  1  0
 13 53  1  6
 14 21  1  0
 14 15  1  0
 14 54  1  6
 15 16  1  0
 15 55  1  0
 15 56  1  0
 16 17  1  0
 16 57  1  0
 16 58  1  0
 17 36  1  0
 17 18  1  0
 17 59  1  1
 18 19  1  0
 18 20  1  0
 18 60  1  1
 19 61  1  0
 19 62  1  0
 20 34  1  0
 20 21  1  0
 20 63  1  6
 21 22  1  1
 21 32  1  0
 22 23  1  0
 23 30  1  0
 23 24  1  0
 23 64  1  6
 24 25  1  0
 25 26  1  0
 25 65  1  0
 25 66  1  0
 26 27  1  0
 26 28  1  0
 26 67  1  1
 27 68  1  0
 28 29  1  0
 28 30  1  0
 28 69  1  1
 29 70  1  0
 30 31  1  0
 30 71  1  1
 31 72  1  0
 32 33  1  6
 32 34  1  0
 33 73  1  0
 33 74  1  0
 33 75  1  0
 34 35  1  6
 34 36  1  0
 35 76  1  0
 36 37  1  0
 36 38  1  1
 37 77  1  0
 37 78  1  0
 37 79  1  0
 38 80  1  0
 39 81  1  1
M  END
>  <i_m_ct_stereo_status>  (93) 
1

>  <s_m_source_file>  (93) 
/var/tmp/pbs.5076255.sched01/tmpt68d_85j/0g9mu2vg5.sdf

>  <i_m_source_file_index>  (93) 
38

>  <i_lp_mmshare_version>  (93) 
48012

>  <i_f3d_flags>  (93) 
0

>  <s_epik_input>  (93) 
W0NIMl0xW0NIMl1DKD1PKVtDQEBdKFtDSDNdKShbQ0gyXTIpW0NAQEhdM1tDQEBdMShbQ0gzXSlbQ0gyXVtDQEhdKFtDQEhdKFtDSDJdW0NIMl00KVtDQEBdKFtDSDNdKShbT0hdKVtDQF01KFtPSF0pW0NAQF02N1tDSDNdKVtDQEhdNVtDQEBdNyhbQ0BIXTRbQ0BASF02W0NAQEhdKFtDQEBdMjM4KU84KU9bQ0BASF05T1tDSDJdW0NAQEhdKFtPSF0pW0NAQEhdKFtPSF0pW0NASF05W09IXQ==

>  <s_epik_cmdline>  (93) 
J2VwaWtfcHl0aG9uJywgJy1waHQnLCAnMi4wJywgJy1waCcsICc3LjAnLCAnLXRuJywgJzgnLCAnLW1hJywgJzIwMCcsICctaW1hZScsICc8aW5maWxlLm1hZT4nLCAnLW9tYWUnLCAnPG91dGZpbGUubWFlPic=

>  <r_lp_tautomer_probability>  (93) 
1

>  <r_epik_Ionization_Penalty>  (93) 
2.36327e-06

>  <r_epik_Ionization_Penalty_Charging>  (93) 
0

>  <r_epik_Ionization_Penalty_Neutral>  (93) 
2.36327e-06

>  <r_epik_State_Penalty>  (93) 
-0

>  <r_epik_Charging_Adjusted_Penalty>  (93) 
0

>  <i_epik_Tot_Q>  (93) 
0

>  <i_epik_Tot_abs_Q>  (93) 
0

>  <s_epik_Chemistry_Notes>  (93) 
This compound contains an acetal/aminal-like group ( X-CH(R)-Y where X, Y are N, S, or O) that may be acid/base labile, releasing an aldehyde.

>  <s_lp_Force_Field>  (93) 
OPLS3e

>  <r_lp_Energy>  (93) 
300.773

>  <b_lp_Chiralities_Consistent>  (93) 
1

>  <s_lp_Variant>  (93) 
27:0-1

>  <s_i_glide_gridfile>  (93) 
pfpi4k_grid

>  <i_i_glide_lignum>  (93) 
38

>  <i_i_glide_rotatable_bonds>  (93) 
7

>  <r_i_docking_score>  (93) 
-2.89403

>  <r_i_glide_ligand_efficiency>  (93) 
-0.0742058

>  <r_i_glide_ligand_efficiency_sa>  (93) 
-0.251648

>  <r_i_glide_ligand_efficiency_ln>  (93) 
-0.620562

>  <r_i_glide_gscore>  (93) 
-2.89403

>  <r_i_glide_lipo>  (93) 
-0.402205

>  <r_i_glide_hbond>  (93) 
0

>  <r_i_glide_metal>  (93) 
-0

>  <r_i_glide_rewards>  (93) 
-0.0650224

>  <r_i_glide_evdw>  (93) 
-23.9434

>  <r_i_glide_ecoul>  (93) 
-9.04794

>  <r_i_glide_erotb>  (93) 
0.138618

>  <r_i_glide_esite>  (93) 
-0.0110572

>  <r_i_glide_emodel>  (93) 
-36.7316

>  <r_i_glide_energy>  (93) 
-32.9913

>  <r_i_glide_einternal>  (93) 
1.99234

>  <r_i_glide_intrahb_reward>  (93) 
-0

>  <i_i_glide_confnum>  (93) 
2

>  <i_i_glide_posenum>  (93) 
40

>  <r_i_glide_eff_state_penalty>  (93) 
0

>  <ligand_id>  (93) 
27

>  <original_smiles>  (93) 
CC12CCC(=O)C3(C)CC4(OC4C4C5CCC6C(C1)C1C5(OC5OCC(O)C(O)C5O)C4(C)C1(O)C6(C)O)C23

>  <smiles>  (93) 
[H]OC1([H])C([H])([H])OC([H])(OC23C4([H])C([H])([H])C([H])([H])C5([H])C6([H])C([H])([H])C7(C([H])([H])[H])C([H])([H])C([H])([H])C(=O)C8(C([H])([H])[H])C([H])([H])C9(OC9([H])C4([H])C2(C([H])([H])[H])C(O[H])(C63[H])C5(O[H])C([H])([H])[H])C87[H])C([H])(O[H])C1([H])O[H]

$$$$
28:0:0
     RDKit          3D

 32 33  0  0  1  0  0  0  0  0999 V2000
    2.5120   -3.0322   -2.5514 C   0  0  0  0  0  0  0  0  0  0  0  0
    3.8434   -2.4030   -2.0579 C   0  0  0  0  0  0  0  0  0  0  0  0
    4.2167   -1.3606   -3.1411 C   0  0  0  0  0  0  0  0  0  0  0  0
    3.7150   -1.7775   -0.6454 C   0  0  0  0  0  0  0  0  0  0  0  0
    4.7144   -2.5725    0.2351 C   0  0  2  0  0  0  0  0  0  0  0  0
    4.4113   -2.4770    1.7389 C   0  0  0  0  0  0  0  0  0  0  0  0
    6.1380   -2.1060   -0.1595 C   0  0  0  0  0  0  0  0  0  0  0  0
    6.3190   -2.7504   -1.5512 C   0  0  0  0  0  0  0  0  0  0  0  0
    4.9603   -3.4665   -1.7851 C   0  0  1  0  0  0  0  0  0  0  0  0
    4.6583   -3.9855   -0.3634 C   0  0  1  0  0  0  0  0  0  0  0  0
    5.6528   -5.0308    0.2144 C   0  0  0  0  0  0  0  0  0  0  0  0
    3.3947   -4.5949   -0.2212 O   0  0  0  0  0  0  0  0  0  0  0  0
    1.7925   -2.2610   -2.8138 H   0  0  0  0  0  0  0  0  0  0  0  0
    2.0122   -3.6604   -1.8214 H   0  0  0  0  0  0  0  0  0  0  0  0
    2.6450   -3.6226   -3.4537 H   0  0  0  0  0  0  0  0  0  0  0  0
    4.9908   -0.6702   -2.8128 H   0  0  0  0  0  0  0  0  0  0  0  0
    3.3703   -0.7344   -3.4252 H   0  0  0  0  0  0  0  0  0  0  0  0
    4.5707   -1.8505   -4.0468 H   0  0  0  0  0  0  0  0  0  0  0  0
    3.9442   -0.7104   -0.6423 H   0  0  0  0  0  0  0  0  0  0  0  0
    2.6986   -1.8694   -0.2613 H   0  0  0  0  0  0  0  0  0  0  0  0
    5.1059   -3.0786    2.3231 H   0  0  0  0  0  0  0  0  0  0  0  0
    3.4046   -2.8386    1.9545 H   0  0  0  0  0  0  0  0  0  0  0  0
    4.4724   -1.4482    2.0990 H   0  0  0  0  0  0  0  0  0  0  0  0
    6.2302   -1.0193   -0.1732 H   0  0  0  0  0  0  0  0  0  0  0  0
    6.8857   -2.4790    0.5448 H   0  0  0  0  0  0  0  0  0  0  0  0
    6.5905   -2.0344   -2.3142 H   0  0  0  0  0  0  0  0  0  0  0  0
    7.1376   -3.4665   -1.5427 H   0  0  0  0  0  0  0  0  0  0  0  0
    5.0090   -4.2401   -2.5514 H   0  0  0  0  0  0  0  0  0  0  0  0
    6.6953   -4.7089    0.2832 H   0  0  0  0  0  0  0  0  0  0  0  0
    5.6435   -5.9338   -0.3963 H   0  0  0  0  0  0  0  0  0  0  0  0
    5.3627   -5.3431    1.2212 H   0  0  0  0  0  0  0  0  0  0  0  0
    3.2471   -5.1629   -0.9801 H   0  0  0  0  0  0  0  0  0  0  0  0
  1  2  1  0
  1 13  1  0
  1 14  1  0
  1 15  1  0
  2  9  1  0
  2  3  1  0
  2  4  1  0
  3 16  1  0
  3 17  1  0
  3 18  1  0
  4  5  1  0
  4 19  1  0
  4 20  1  0
  5 10  1  0
  5  6  1  1
  5  7  1  0
  6 21  1  0
  6 22  1  0
  6 23  1  0
  7  8  1  0
  7 24  1  0
  7 25  1  0
  8  9  1  0
  8 26  1  0
  8 27  1  0
  9 10  1  0
  9 28  1  6
 10 11  1  0
 10 12  1  6
 11 29  1  0
 11 30  1  0
 11 31  1  0
 12 32  1  0
M  END
>  <i_m_ct_stereo_status>  (94) 
1

>  <s_m_source_file>  (94) 
/var/tmp/pbs.5076255.sched01/tmpt68d_85j/0g9mu2vg5.sdf

>  <i_m_source_file_index>  (94) 
39

>  <i_lp_mmshare_version>  (94) 
48012

>  <i_f3d_flags>  (94) 
0

>  <s_epik_input>  (94) 
W0NIMl0xW0NIMl1bQ0BASF0oW0NAXTIoW0NIM10pW09IXSlDKFtDSDNdKShbQ0gzXSlbQ0gyXVtDQF0xMltDSDNd

>  <s_epik_cmdline>  (94) 
J2VwaWtfcHl0aG9uJywgJy1waHQnLCAnMi4wJywgJy1waCcsICc3LjAnLCAnLXRuJywgJzgnLCAnLW1hJywgJzIwMCcsICctaW1hZScsICc8aW5maWxlLm1hZT4nLCAnLW9tYWUnLCAnPG91dGZpbGUubWFlPic=

>  <r_lp_tautomer_probability>  (94) 
1

>  <r_epik_Ionization_Penalty>  (94) 
2.41184e-06

>  <r_epik_Ionization_Penalty_Charging>  (94) 
0

>  <r_epik_Ionization_Penalty_Neutral>  (94) 
2.41184e-06

>  <r_epik_State_Penalty>  (94) 
-0

>  <r_epik_Charging_Adjusted_Penalty>  (94) 
0

>  <i_epik_Tot_Q>  (94) 
0

>  <i_epik_Tot_abs_Q>  (94) 
0

>  <s_lp_Force_Field>  (94) 
OPLS3e

>  <r_lp_Energy>  (94) 
37.8927

>  <b_lp_Chiralities_Consistent>  (94) 
1

>  <s_lp_Variant>  (94) 
28:0-1

>  <s_i_glide_gridfile>  (94) 
pfpi4k_grid

>  <i_i_glide_lignum>  (94) 
39

>  <i_i_glide_rotatable_bonds>  (94) 
1

>  <r_i_docking_score>  (94) 
-4.16395

>  <r_i_glide_ligand_efficiency>  (94) 
-0.346996

>  <r_i_glide_ligand_efficiency_sa>  (94) 
-0.794423

>  <r_i_glide_ligand_efficiency_ln>  (94) 
-1.19485

>  <r_i_glide_gscore>  (94) 
-4.16395

>  <r_i_glide_lipo>  (94) 
-0.248515

>  <r_i_glide_hbond>  (94) 
-0.32

>  <r_i_glide_metal>  (94) 
-0

>  <r_i_glide_rewards>  (94) 
-2.25

>  <r_i_glide_evdw>  (94) 
-18.8302

>  <r_i_glide_ecoul>  (94) 
-2.69287

>  <r_i_glide_erotb>  (94) 
0

>  <r_i_glide_esite>  (94) 
0

>  <r_i_glide_emodel>  (94) 
-26.4472

>  <r_i_glide_energy>  (94) 
-21.523

>  <r_i_glide_einternal>  (94) 
0.219123

>  <r_i_glide_intrahb_reward>  (94) 
-0

>  <i_i_glide_confnum>  (94) 
2

>  <i_i_glide_posenum>  (94) 
34

>  <r_i_glide_eff_state_penalty>  (94) 
0

>  <ligand_id>  (94) 
28

>  <original_smiles>  (94) 
CC1(C)CC2(C)CCC1C2(C)O

>  <smiles>  (94) 
[H]OC1(C([H])([H])[H])C2([H])C([H])([H])C([H])([H])C1(C([H])([H])[H])C([H])([H])C2(C([H])([H])[H])C([H])([H])[H]

$$$$
28:0:1
     RDKit          3D

 32 33  0  0  1  0  0  0  0  0999 V2000
    2.6573   -4.5669    0.4927 C   0  0  0  0  0  0  0  0  0  0  0  0
    3.8975   -3.6448    0.3590 C   0  0  0  0  0  0  0  0  0  0  0  0
    4.5196   -3.5811    1.7798 C   0  0  0  0  0  0  0  0  0  0  0  0
    4.9013   -4.1533   -0.7086 C   0  0  0  0  0  0  0  0  0  0  0  0
    4.9524   -3.0087   -1.7566 C   0  0  2  0  0  0  0  0  0  0  0  0
    5.4483   -3.4607   -3.1303 C   0  0  0  0  0  0  0  0  0  0  0  0
    5.7613   -1.8494   -1.1323 C   0  0  0  0  0  0  0  0  0  0  0  0
    4.7774   -1.2900   -0.0854 C   0  0  0  0  0  0  0  0  0  0  0  0
    3.5513   -2.2333   -0.2300 C   0  0  1  0  0  0  0  0  0  0  0  0
    3.5246   -2.4568   -1.7596 C   0  0  1  0  0  0  0  0  0  0  0  0
    3.2746   -1.1813   -2.6310 C   0  0  0  0  0  0  0  0  0  0  0  0
    2.5654   -3.3898   -2.2096 O   0  0  0  0  0  0  0  0  0  0  0  0
    2.9091   -5.5158    0.9717 H   0  0  0  0  0  0  0  0  0  0  0  0
    2.1835   -4.7913   -0.4730 H   0  0  0  0  0  0  0  0  0  0  0  0
    1.9026   -4.1114    1.1299 H   0  0  0  0  0  0  0  0  0  0  0  0
    5.5273   -3.1753    1.7907 H   0  0  0  0  0  0  0  0  0  0  0  0
    4.5976   -4.5711    2.2359 H   0  0  0  0  0  0  0  0  0  0  0  0
    3.9103   -2.9719    2.4486 H   0  0  0  0  0  0  0  0  0  0  0  0
    5.8872   -4.3490   -0.2884 H   0  0  0  0  0  0  0  0  0  0  0  0
    4.5699   -5.0943   -1.1440 H   0  0  0  0  0  0  0  0  0  0  0  0
    5.4148   -2.6304   -3.8417 H   0  0  0  0  0  0  0  0  0  0  0  0
    4.8271   -4.2544   -3.5297 H   0  0  0  0  0  0  0  0  0  0  0  0
    6.4731   -3.8257   -3.0840 H   0  0  0  0  0  0  0  0  0  0  0  0
    6.7108   -2.1787   -0.7016 H   0  0  0  0  0  0  0  0  0  0  0  0
    5.9915   -1.0886   -1.8818 H   0  0  0  0  0  0  0  0  0  0  0  0
    5.2146   -1.2309    0.9116 H   0  0  0  0  0  0  0  0  0  0  0  0
    4.5006   -0.2634   -0.3219 H   0  0  0  0  0  0  0  0  0  0  0  0
    2.6397   -1.8118    0.1826 H   0  0  0  0  0  0  0  0  0  0  0  0
    3.9848   -0.3603   -2.5097 H   0  0  0  0  0  0  0  0  0  0  0  0
    2.2936   -0.7652   -2.3909 H   0  0  0  0  0  0  0  0  0  0  0  0
    3.2500   -1.4209   -3.6989 H   0  0  0  0  0  0  0  0  0  0  0  0
    2.9192   -4.2965   -2.1225 H   0  0  0  0  0  0  0  0  0  0  0  0
  1  2  1  0
  1 13  1  0
  1 14  1  0
  1 15  1  0
  2  9  1  0
  2  3  1  0
  2  4  1  0
  3 16  1  0
  3 17  1  0
  3 18  1  0
  4  5  1  0
  4 19  1  0
  4 20  1  0
  5 10  1  0
  5  6  1  6
  5  7  1  0
  6 21  1  0
  6 22  1  0
  6 23  1  0
  7  8  1  0
  7 24  1  0
  7 25  1  0
  8  9  1  0
  8 26  1  0
  8 27  1  0
  9 10  1  0
  9 28  1  1
 10 11  1  0
 10 12  1  1
 11 29  1  0
 11 30  1  0
 11 31  1  0
 12 32  1  0
M  END
>  <i_m_ct_stereo_status>  (95) 
1

>  <s_m_source_file>  (95) 
/var/tmp/pbs.5076255.sched01/tmpt68d_85j/0g9mu2vg5.sdf

>  <i_m_source_file_index>  (95) 
39

>  <i_lp_mmshare_version>  (95) 
48012

>  <i_f3d_flags>  (95) 
0

>  <s_epik_input>  (95) 
W0NIMl0xW0NIMl1bQ0BASF0oW0NAXTIoW0NIM10pW09IXSlDKFtDSDNdKShbQ0gzXSlbQ0gyXVtDQF0xMltDSDNd

>  <s_epik_cmdline>  (95) 
J2VwaWtfcHl0aG9uJywgJy1waHQnLCAnMi4wJywgJy1waCcsICc3LjAnLCAnLXRuJywgJzgnLCAnLW1hJywgJzIwMCcsICctaW1hZScsICc8aW5maWxlLm1hZT4nLCAnLW9tYWUnLCAnPG91dGZpbGUubWFlPic=

>  <r_lp_tautomer_probability>  (95) 
1

>  <r_epik_Ionization_Penalty>  (95) 
2.41184e-06

>  <r_epik_Ionization_Penalty_Charging>  (95) 
0

>  <r_epik_Ionization_Penalty_Neutral>  (95) 
2.41184e-06

>  <r_epik_State_Penalty>  (95) 
-0

>  <r_epik_Charging_Adjusted_Penalty>  (95) 
0

>  <i_epik_Tot_Q>  (95) 
0

>  <i_epik_Tot_abs_Q>  (95) 
0

>  <s_lp_Force_Field>  (95) 
OPLS3e

>  <r_lp_Energy>  (95) 
37.8927

>  <b_lp_Chiralities_Consistent>  (95) 
1

>  <s_lp_Variant>  (95) 
28:0-1

>  <s_i_glide_gridfile>  (95) 
pfpi4k_grid

>  <i_i_glide_lignum>  (95) 
39

>  <i_i_glide_rotatable_bonds>  (95) 
1

>  <r_i_docking_score>  (95) 
-4.02375

>  <r_i_glide_ligand_efficiency>  (95) 
-0.335313

>  <r_i_glide_ligand_efficiency_sa>  (95) 
-0.767674

>  <r_i_glide_ligand_efficiency_ln>  (95) 
-1.15462

>  <r_i_glide_gscore>  (95) 
-4.02375

>  <r_i_glide_lipo>  (95) 
-0.277319

>  <r_i_glide_hbond>  (95) 
-0.32

>  <r_i_glide_metal>  (95) 
-0

>  <r_i_glide_rewards>  (95) 
-2.25

>  <r_i_glide_evdw>  (95) 
-17.1544

>  <r_i_glide_ecoul>  (95) 
-2.12477

>  <r_i_glide_erotb>  (95) 
0

>  <r_i_glide_esite>  (95) 
0

>  <r_i_glide_emodel>  (95) 
-23.5612

>  <r_i_glide_energy>  (95) 
-19.2791

>  <r_i_glide_einternal>  (95) 
0.843078

>  <r_i_glide_intrahb_reward>  (95) 
-0

>  <i_i_glide_confnum>  (95) 
2

>  <i_i_glide_posenum>  (95) 
6

>  <r_i_glide_eff_state_penalty>  (95) 
0

>  <ligand_id>  (95) 
28

>  <original_smiles>  (95) 
CC1(C)CC2(C)CCC1C2(C)O

>  <smiles>  (95) 
[H]OC1(C([H])([H])[H])C2([H])C([H])([H])C([H])([H])C1(C([H])([H])[H])C([H])([H])C2(C([H])([H])[H])C([H])([H])[H]

$$$$
28:0:2
     RDKit          3D

 32 33  0  0  1  0  0  0  0  0999 V2000
    2.2364   -3.0467   -2.7223 C   0  0  0  0  0  0  0  0  0  0  0  0
    3.7081   -2.6610   -2.3798 C   0  0  0  0  0  0  0  0  0  0  0  0
    4.4342   -2.6606   -3.7389 C   0  0  0  0  0  0  0  0  0  0  0  0
    3.8183   -1.2950   -1.6494 C   0  0  0  0  0  0  0  0  0  0  0  0
    4.4568   -1.6323   -0.2740 C   0  0  2  0  0  0  0  0  0  0  0  0
    4.1877   -0.5706    0.8030 C   0  0  0  0  0  0  0  0  0  0  0  0
    5.9555   -1.9196   -0.5307 C   0  0  0  0  0  0  0  0  0  0  0  0
    5.9113   -3.2898   -1.2409 C   0  0  0  0  0  0  0  0  0  0  0  0
    4.3879   -3.5908   -1.3166 C   0  0  1  0  0  0  0  0  0  0  0  0
    3.9211   -3.0352    0.0395 C   0  0  1  0  0  0  0  0  0  0  0  0
    4.4725   -3.7536    1.3044 C   0  0  0  0  0  0  0  0  0  0  0  0
    2.5212   -3.0663    0.2117 O   0  0  0  0  0  0  0  0  0  0  0  0
    1.8259   -2.4199   -3.5233 H   0  0  0  0  0  0  0  0  0  0  0  0
    1.5614   -2.9988   -1.8602 H   0  0  0  0  0  0  0  0  0  0  0  0
    2.1948   -4.0620   -3.1173 H   0  0  0  0  0  0  0  0  0  0  0  0
    5.4009   -2.1751   -3.6837 H   0  0  0  0  0  0  0  0  0  0  0  0
    3.8720   -2.1256   -4.5072 H   0  0  0  0  0  0  0  0  0  0  0  0
    4.5961   -3.6781   -4.1055 H   0  0  0  0  0  0  0  0  0  0  0  0
    4.4108   -0.5656   -2.2079 H   0  0  0  0  0  0  0  0  0  0  0  0
    2.8347   -0.8458   -1.5437 H   0  0  0  0  0  0  0  0  0  0  0  0
    4.6180   -0.8609    1.7619 H   0  0  0  0  0  0  0  0  0  0  0  0
    3.1154   -0.4398    0.9579 H   0  0  0  0  0  0  0  0  0  0  0  0
    4.5964    0.4050    0.5291 H   0  0  0  0  0  0  0  0  0  0  0  0
    6.4105   -1.1418   -1.1416 H   0  0  0  0  0  0  0  0  0  0  0  0
    6.5208   -1.9759    0.4046 H   0  0  0  0  0  0  0  0  0  0  0  0
    6.4399   -3.2956   -2.1928 H   0  0  0  0  0  0  0  0  0  0  0  0
    6.4122   -4.0502   -0.6499 H   0  0  0  0  0  0  0  0  0  0  0  0
    4.1921   -4.6560   -1.4748 H   0  0  0  0  0  0  0  0  0  0  0  0
    5.5652   -3.7602    1.4153 H   0  0  0  0  0  0  0  0  0  0  0  0
    4.1499   -4.8021    1.3100 H   0  0  0  0  0  0  0  0  0  0  0  0
    4.0738   -3.3056    2.2206 H   0  0  0  0  0  0  0  0  0  0  0  0
    2.1252   -2.3809   -0.2974 H   0  0  0  0  0  0  0  0  0  0  0  0
  1  2  1  0
  1 13  1  0
  1 14  1  0
  1 15  1  0
  2  9  1  0
  2  3  1  0
  2  4  1  0
  3 16  1  0
  3 17  1  0
  3 18  1  0
  4  5  1  0
  4 19  1  0
  4 20  1  0
  5 10  1  0
  5  6  1  1
  5  7  1  0
  6 21  1  0
  6 22  1  0
  6 23  1  0
  7  8  1  0
  7 24  1  0
  7 25  1  0
  8  9  1  0
  8 26  1  0
  8 27  1  0
  9 10  1  0
  9 28  1  6
 10 11  1  0
 10 12  1  6
 11 29  1  0
 11 30  1  0
 11 31  1  0
 12 32  1  0
M  END
>  <i_m_ct_stereo_status>  (96) 
1

>  <s_m_source_file>  (96) 
/var/tmp/pbs.5076255.sched01/tmpt68d_85j/0g9mu2vg5.sdf

>  <i_m_source_file_index>  (96) 
39

>  <i_lp_mmshare_version>  (96) 
48012

>  <i_f3d_flags>  (96) 
0

>  <s_epik_input>  (96) 
W0NIMl0xW0NIMl1bQ0BASF0oW0NAXTIoW0NIM10pW09IXSlDKFtDSDNdKShbQ0gzXSlbQ0gyXVtDQF0xMltDSDNd

>  <s_epik_cmdline>  (96) 
J2VwaWtfcHl0aG9uJywgJy1waHQnLCAnMi4wJywgJy1waCcsICc3LjAnLCAnLXRuJywgJzgnLCAnLW1hJywgJzIwMCcsICctaW1hZScsICc8aW5maWxlLm1hZT4nLCAnLW9tYWUnLCAnPG91dGZpbGUubWFlPic=

>  <r_lp_tautomer_probability>  (96) 
1

>  <r_epik_Ionization_Penalty>  (96) 
2.41184e-06

>  <r_epik_Ionization_Penalty_Charging>  (96) 
0

>  <r_epik_Ionization_Penalty_Neutral>  (96) 
2.41184e-06

>  <r_epik_State_Penalty>  (96) 
-0

>  <r_epik_Charging_Adjusted_Penalty>  (96) 
0

>  <i_epik_Tot_Q>  (96) 
0

>  <i_epik_Tot_abs_Q>  (96) 
0

>  <s_lp_Force_Field>  (96) 
OPLS3e

>  <r_lp_Energy>  (96) 
37.8927

>  <b_lp_Chiralities_Consistent>  (96) 
1

>  <s_lp_Variant>  (96) 
28:0-1

>  <s_i_glide_gridfile>  (96) 
pfpi4k_grid

>  <i_i_glide_lignum>  (96) 
39

>  <i_i_glide_rotatable_bonds>  (96) 
1

>  <r_i_docking_score>  (96) 
-3.92587

>  <r_i_glide_ligand_efficiency>  (96) 
-0.327156

>  <r_i_glide_ligand_efficiency_sa>  (96) 
-0.749

>  <r_i_glide_ligand_efficiency_ln>  (96) 
-1.12653

>  <r_i_glide_gscore>  (96) 
-3.92587

>  <r_i_glide_lipo>  (96) 
-0.455585

>  <r_i_glide_hbond>  (96) 
-0.16

>  <r_i_glide_metal>  (96) 
-0

>  <r_i_glide_rewards>  (96) 
-2.25

>  <r_i_glide_evdw>  (96) 
-16.7374

>  <r_i_glide_ecoul>  (96) 
-1.48943

>  <r_i_glide_erotb>  (96) 
0

>  <r_i_glide_esite>  (96) 
0

>  <r_i_glide_emodel>  (96) 
-22.7219

>  <r_i_glide_energy>  (96) 
-18.2268

>  <r_i_glide_einternal>  (96) 
0.530329

>  <r_i_glide_intrahb_reward>  (96) 
-0

>  <i_i_glide_confnum>  (96) 
2

>  <i_i_glide_posenum>  (96) 
31

>  <r_i_glide_eff_state_penalty>  (96) 
0

>  <ligand_id>  (96) 
28

>  <original_smiles>  (96) 
CC1(C)CC2(C)CCC1C2(C)O

>  <smiles>  (96) 
[H]OC1(C([H])([H])[H])C2([H])C([H])([H])C([H])([H])C1(C([H])([H])[H])C([H])([H])C2(C([H])([H])[H])C([H])([H])[H]

$$$$
29:0:0
     RDKit          3D

 19 20  0  0  1  0  0  0  0  0999 V2000
    3.4037    0.5263   -5.7125 C   0  0  0  0  0  0  0  0  0  0  0  0
    2.5762   -0.1733   -4.6384 C   0  0  0  0  0  0  0  0  0  0  0  0
    3.3462   -1.1531   -3.8330 C   0  0  0  0  0  0  0  0  0  0  0  0
    3.4209   -2.4534   -4.1351 N   0  0  0  0  0  0  0  0  0  0  0  0
    4.2034   -3.1553   -3.2375 N   0  0  0  0  0  0  0  0  0  0  0  0
    4.7325   -2.3612   -2.2957 C   0  0  0  0  0  0  0  0  0  0  0  0
    5.5993   -2.8391   -1.2181 C   0  0  0  0  0  0  0  0  0  0  0  0
    5.7058   -4.1560   -0.7064 C   0  0  0  0  0  0  0  0  0  0  0  0
    6.6460   -4.0621    0.2730 C   0  0  0  0  0  0  0  0  0  0  0  0
    7.0765   -2.7776    0.3929 O   0  0  0  0  0  0  0  0  0  0  0  0
    6.3745   -1.9975   -0.5364 N   0  0  0  0  0  0  0  0  0  0  0  0
    4.2478   -0.6711   -2.4067 S   0  0  0  0  0  0  0  0  0  0  0  0
    2.7721    1.2124   -6.2797 H   0  0  0  0  0  0  0  0  0  0  0  0
    3.8103   -0.2001   -6.4149 H   0  0  0  0  0  0  0  0  0  0  0  0
    4.2194    1.1001   -5.2730 H   0  0  0  0  0  0  0  0  0  0  0  0
    2.1273    0.5380   -3.9450 H   0  0  0  0  0  0  0  0  0  0  0  0
    1.7426   -0.6678   -5.1192 H   0  0  0  0  0  0  0  0  0  0  0  0
    5.1744   -5.0401   -1.0221 H   0  0  0  0  0  0  0  0  0  0  0  0
    7.0910   -4.7895    0.9379 H   0  0  0  0  0  0  0  0  0  0  0  0
  1  2  1  0
  1 13  1  0
  1 14  1  0
  1 15  1  0
  2  3  1  0
  2 16  1  0
  2 17  1  0
  3 12  1  0
  3  4  2  0
  4  5  1  0
  5  6  2  0
  6  7  1  0
  6 12  1  0
  7 11  2  0
  7  8  1  0
  8  9  2  0
  8 18  1  0
  9 10  1  0
  9 19  1  0
 10 11  1  0
M  END
>  <i_m_ct_stereo_status>  (97) 
1

>  <s_m_source_file>  (97) 
/var/tmp/pbs.5076255.sched01/tmpt68d_85j/0g9mu2vg5.sdf

>  <i_m_source_file_index>  (97) 
40

>  <i_lp_mmshare_version>  (97) 
48012

>  <i_f3d_flags>  (97) 
0

>  <s_epik_input>  (97) 
W0NIM11bQ0gyXWMxbm5jKHMxKS1jMltjSF1bY0hdb24y

>  <s_epik_cmdline>  (97) 
J2VwaWtfcHl0aG9uJywgJy1waHQnLCAnMi4wJywgJy1waCcsICc3LjAnLCAnLXRuJywgJzgnLCAnLW1hJywgJzIwMCcsICctaW1hZScsICc8aW5maWxlLm1hZT4nLCAnLW9tYWUnLCAnPG91dGZpbGUubWFlPic=

>  <r_lp_tautomer_probability>  (97) 
1

>  <r_epik_Ionization_Penalty>  (97) 
3.38384e-08

>  <r_epik_Ionization_Penalty_Charging>  (97) 
0

>  <r_epik_Ionization_Penalty_Neutral>  (97) 
3.38384e-08

>  <r_epik_State_Penalty>  (97) 
-0

>  <r_epik_Charging_Adjusted_Penalty>  (97) 
0

>  <i_epik_Tot_Q>  (97) 
0

>  <i_epik_Tot_abs_Q>  (97) 
0

>  <s_lp_Force_Field>  (97) 
OPLS3e

>  <r_lp_Energy>  (97) 
4.08006

>  <b_lp_Chiralities_Consistent>  (97) 
1

>  <s_lp_Variant>  (97) 
29:0-1

>  <s_i_glide_gridfile>  (97) 
pfpi4k_grid

>  <i_i_glide_lignum>  (97) 
40

>  <i_i_glide_rotatable_bonds>  (97) 
2

>  <r_i_docking_score>  (97) 
-3.99282

>  <r_i_glide_ligand_efficiency>  (97) 
-0.332735

>  <r_i_glide_ligand_efficiency_sa>  (97) 
-0.761772

>  <r_i_glide_ligand_efficiency_ln>  (97) 
-1.14575

>  <r_i_glide_gscore>  (97) 
-3.99282

>  <r_i_glide_lipo>  (97) 
-0.790697

>  <r_i_glide_hbond>  (97) 
0

>  <r_i_glide_metal>  (97) 
-0

>  <r_i_glide_rewards>  (97) 
-2.22353

>  <r_i_glide_evdw>  (97) 
-21.8019

>  <r_i_glide_ecoul>  (97) 
-2.0797

>  <r_i_glide_erotb>  (97) 
0.480761

>  <r_i_glide_esite>  (97) 
-0.0573008

>  <r_i_glide_emodel>  (97) 
-28.8691

>  <r_i_glide_energy>  (97) 
-23.8816

>  <r_i_glide_einternal>  (97) 
1.61155

>  <r_i_glide_intrahb_reward>  (97) 
-0

>  <i_i_glide_confnum>  (97) 
1

>  <i_i_glide_posenum>  (97) 
32

>  <r_i_glide_eff_state_penalty>  (97) 
0

>  <ligand_id>  (97) 
29

>  <original_smiles>  (97) 
CCc1nnc(-c2ccon2)s1

>  <smiles>  (97) 
[H]c1onc(-c2nnc(C([H])([H])C([H])([H])[H])s2)c1[H]

$$$$
29:0:1
     RDKit          3D

 19 20  0  0  1  0  0  0  0  0999 V2000
   -1.7047   -8.4500    3.9609 C   0  0  0  0  0  0  0  0  0  0  0  0
   -1.2623   -8.7948    2.5358 C   0  0  0  0  0  0  0  0  0  0  0  0
   -0.0884   -7.9929    2.0858 C   0  0  0  0  0  0  0  0  0  0  0  0
   -0.2206   -6.8049    1.4822 N   0  0  0  0  0  0  0  0  0  0  0  0
    0.9954   -6.2563    1.1281 N   0  0  0  0  0  0  0  0  0  0  0  0
    2.0332   -6.9929    1.5427 C   0  0  0  0  0  0  0  0  0  0  0  0
    3.4432   -6.6426    1.3506 C   0  0  0  0  0  0  0  0  0  0  0  0
    4.6028   -7.4095    1.6567 C   0  0  0  0  0  0  0  0  0  0  0  0
    5.6411   -6.6037    1.2824 C   0  0  0  0  0  0  0  0  0  0  0  0
    5.1711   -5.4360    0.7807 O   0  0  0  0  0  0  0  0  0  0  0  0
    3.7744   -5.4692    0.8335 N   0  0  0  0  0  0  0  0  0  0  0  0
    1.5767   -8.4925    2.3478 S   0  0  0  0  0  0  0  0  0  0  0  0
   -2.5733   -9.0513    4.2370 H   0  0  0  0  0  0  0  0  0  0  0  0
   -1.9764   -7.3990    4.0585 H   0  0  0  0  0  0  0  0  0  0  0  0
   -0.9140   -8.6693    4.6787 H   0  0  0  0  0  0  0  0  0  0  0  0
   -1.0189   -9.8550    2.4605 H   0  0  0  0  0  0  0  0  0  0  0  0
   -2.0848   -8.6154    1.8435 H   0  0  0  0  0  0  0  0  0  0  0  0
    4.6738   -8.3973    2.0851 H   0  0  0  0  0  0  0  0  0  0  0  0
    6.7140   -6.7106    1.3080 H   0  0  0  0  0  0  0  0  0  0  0  0
  1  2  1  0
  1 13  1  0
  1 14  1  0
  1 15  1  0
  2  3  1  0
  2 16  1  0
  2 17  1  0
  3 12  1  0
  3  4  2  0
  4  5  1  0
  5  6  2  0
  6  7  1  0
  6 12  1  0
  7 11  2  0
  7  8  1  0
  8  9  2  0
  8 18  1  0
  9 10  1  0
  9 19  1  0
 10 11  1  0
M  END
>  <i_m_ct_stereo_status>  (98) 
1

>  <s_m_source_file>  (98) 
/var/tmp/pbs.5076255.sched01/tmpt68d_85j/0g9mu2vg5.sdf

>  <i_m_source_file_index>  (98) 
40

>  <i_lp_mmshare_version>  (98) 
48012

>  <i_f3d_flags>  (98) 
0

>  <s_epik_input>  (98) 
W0NIM11bQ0gyXWMxbm5jKHMxKS1jMltjSF1bY0hdb24y

>  <s_epik_cmdline>  (98) 
J2VwaWtfcHl0aG9uJywgJy1waHQnLCAnMi4wJywgJy1waCcsICc3LjAnLCAnLXRuJywgJzgnLCAnLW1hJywgJzIwMCcsICctaW1hZScsICc8aW5maWxlLm1hZT4nLCAnLW9tYWUnLCAnPG91dGZpbGUubWFlPic=

>  <r_lp_tautomer_probability>  (98) 
1

>  <r_epik_Ionization_Penalty>  (98) 
3.38384e-08

>  <r_epik_Ionization_Penalty_Charging>  (98) 
0

>  <r_epik_Ionization_Penalty_Neutral>  (98) 
3.38384e-08

>  <r_epik_State_Penalty>  (98) 
-0

>  <r_epik_Charging_Adjusted_Penalty>  (98) 
0

>  <i_epik_Tot_Q>  (98) 
0

>  <i_epik_Tot_abs_Q>  (98) 
0

>  <s_lp_Force_Field>  (98) 
OPLS3e

>  <r_lp_Energy>  (98) 
4.08006

>  <b_lp_Chiralities_Consistent>  (98) 
1

>  <s_lp_Variant>  (98) 
29:0-1

>  <s_i_glide_gridfile>  (98) 
pfpi4k_grid

>  <i_i_glide_lignum>  (98) 
40

>  <i_i_glide_rotatable_bonds>  (98) 
2

>  <r_i_docking_score>  (98) 
-3.50442

>  <r_i_glide_ligand_efficiency>  (98) 
-0.292035

>  <r_i_glide_ligand_efficiency_sa>  (98) 
-0.668593

>  <r_i_glide_ligand_efficiency_ln>  (98) 
-1.0056

>  <r_i_glide_gscore>  (98) 
-3.50442

>  <r_i_glide_lipo>  (98) 
-0.277316

>  <r_i_glide_hbond>  (98) 
0

>  <r_i_glide_metal>  (98) 
-0

>  <r_i_glide_rewards>  (98) 
-2.17353

>  <r_i_glide_evdw>  (98) 
-17.235

>  <r_i_glide_ecoul>  (98) 
-3.16826

>  <r_i_glide_erotb>  (98) 
0.480761

>  <r_i_glide_esite>  (98) 
-0.197351

>  <r_i_glide_emodel>  (98) 
-23.4228

>  <r_i_glide_energy>  (98) 
-20.4032

>  <r_i_glide_einternal>  (98) 
4.64016

>  <r_i_glide_intrahb_reward>  (98) 
-0

>  <i_i_glide_confnum>  (98) 
4

>  <i_i_glide_posenum>  (98) 
14

>  <r_i_glide_eff_state_penalty>  (98) 
0

>  <ligand_id>  (98) 
29

>  <original_smiles>  (98) 
CCc1nnc(-c2ccon2)s1

>  <smiles>  (98) 
[H]c1onc(-c2nnc(C([H])([H])C([H])([H])[H])s2)c1[H]

$$$$
29:0:2
     RDKit          3D

 19 20  0  0  1  0  0  0  0  0999 V2000
   -2.5059    4.2741    9.3972 C   0  0  0  0  0  0  0  0  0  0  0  0
   -3.2559    3.0802    8.7982 C   0  0  0  0  0  0  0  0  0  0  0  0
   -2.5303    2.4475    7.6577 C   0  0  0  0  0  0  0  0  0  0  0  0
   -1.7714    1.3573    7.8208 N   0  0  0  0  0  0  0  0  0  0  0  0
   -1.2042    0.9236    6.6356 N   0  0  0  0  0  0  0  0  0  0  0  0
   -1.5082    1.7161    5.5968 C   0  0  0  0  0  0  0  0  0  0  0  0
   -1.0091    1.4846    4.2408 C   0  0  0  0  0  0  0  0  0  0  0  0
   -0.0851    0.4843    3.8086 C   0  0  0  0  0  0  0  0  0  0  0  0
    0.0418    0.7127    2.4697 C   0  0  0  0  0  0  0  0  0  0  0  0
   -0.7448    1.7466    2.0918 O   0  0  0  0  0  0  0  0  0  0  0  0
   -1.3952    2.2458    3.2279 N   0  0  0  0  0  0  0  0  0  0  0  0
   -2.5674    3.0727    6.0132 S   0  0  0  0  0  0  0  0  0  0  0  0
   -3.0699    4.7103   10.2208 H   0  0  0  0  0  0  0  0  0  0  0  0
   -2.3477    5.0533    8.6521 H   0  0  0  0  0  0  0  0  0  0  0  0
   -1.5344    3.9737    9.7913 H   0  0  0  0  0  0  0  0  0  0  0  0
   -3.4008    2.3300    9.5770 H   0  0  0  0  0  0  0  0  0  0  0  0
   -4.2513    3.3754    8.4668 H   0  0  0  0  0  0  0  0  0  0  0  0
    0.4113   -0.2745    4.3938 H   0  0  0  0  0  0  0  0  0  0  0  0
    0.6126    0.2361    1.6820 H   0  0  0  0  0  0  0  0  0  0  0  0
  1  2  1  0
  1 13  1  0
  1 14  1  0
  1 15  1  0
  2  3  1  0
  2 16  1  0
  2 17  1  0
  3 12  1  0
  3  4  2  0
  4  5  1  0
  5  6  2  0
  6  7  1  0
  6 12  1  0
  7 11  2  0
  7  8  1  0
  8  9  2  0
  8 18  1  0
  9 10  1  0
  9 19  1  0
 10 11  1  0
M  END
>  <i_m_ct_stereo_status>  (99) 
1

>  <s_m_source_file>  (99) 
/var/tmp/pbs.5076255.sched01/tmpt68d_85j/0g9mu2vg5.sdf

>  <i_m_source_file_index>  (99) 
40

>  <i_lp_mmshare_version>  (99) 
48012

>  <i_f3d_flags>  (99) 
0

>  <s_epik_input>  (99) 
W0NIM11bQ0gyXWMxbm5jKHMxKS1jMltjSF1bY0hdb24y

>  <s_epik_cmdline>  (99) 
J2VwaWtfcHl0aG9uJywgJy1waHQnLCAnMi4wJywgJy1waCcsICc3LjAnLCAnLXRuJywgJzgnLCAnLW1hJywgJzIwMCcsICctaW1hZScsICc8aW5maWxlLm1hZT4nLCAnLW9tYWUnLCAnPG91dGZpbGUubWFlPic=

>  <r_lp_tautomer_probability>  (99) 
1

>  <r_epik_Ionization_Penalty>  (99) 
3.38384e-08

>  <r_epik_Ionization_Penalty_Charging>  (99) 
0

>  <r_epik_Ionization_Penalty_Neutral>  (99) 
3.38384e-08

>  <r_epik_State_Penalty>  (99) 
-0

>  <r_epik_Charging_Adjusted_Penalty>  (99) 
0

>  <i_epik_Tot_Q>  (99) 
0

>  <i_epik_Tot_abs_Q>  (99) 
0

>  <s_lp_Force_Field>  (99) 
OPLS3e

>  <r_lp_Energy>  (99) 
4.08006

>  <b_lp_Chiralities_Consistent>  (99) 
1

>  <s_lp_Variant>  (99) 
29:0-1

>  <s_i_glide_gridfile>  (99) 
pfpi4k_grid

>  <i_i_glide_lignum>  (99) 
40

>  <i_i_glide_rotatable_bonds>  (99) 
2

>  <r_i_docking_score>  (99) 
-3.22669

>  <r_i_glide_ligand_efficiency>  (99) 
-0.268891

>  <r_i_glide_ligand_efficiency_sa>  (99) 
-0.615606

>  <r_i_glide_ligand_efficiency_ln>  (99) 
-0.925904

>  <r_i_glide_gscore>  (99) 
-3.22669

>  <r_i_glide_lipo>  (99) 
-0.147866

>  <r_i_glide_hbond>  (99) 
0

>  <r_i_glide_metal>  (99) 
-0

>  <r_i_glide_rewards>  (99) 
-2.17353

>  <r_i_glide_evdw>  (99) 
-16.6929

>  <r_i_glide_ecoul>  (99) 
-2.08812

>  <r_i_glide_erotb>  (99) 
0.480761

>  <r_i_glide_esite>  (99) 
-0.238195

>  <r_i_glide_emodel>  (99) 
-23.4817

>  <r_i_glide_energy>  (99) 
-18.781

>  <r_i_glide_einternal>  (99) 
0.312475

>  <r_i_glide_intrahb_reward>  (99) 
-0

>  <i_i_glide_confnum>  (99) 
1

>  <i_i_glide_posenum>  (99) 
24

>  <r_i_glide_eff_state_penalty>  (99) 
0

>  <ligand_id>  (99) 
29

>  <original_smiles>  (99) 
CCc1nnc(-c2ccon2)s1

>  <smiles>  (99) 
[H]c1onc(-c2nnc(C([H])([H])C([H])([H])[H])s2)c1[H]

$$$$
30:0:0
     RDKit          3D

 60 64  0  0  1  0  0  0  0  0999 V2000
    1.8837    4.4380    4.3750 C   0  0  0  0  0  0  0  0  0  0  0  0
    1.0135    3.3969    3.6461 C   0  0  2  0  0  0  0  0  0  0  0  0
   -0.5091    3.6796    3.8625 C   0  0  1  0  0  0  0  0  0  0  0  0
   -0.8737    4.9150    3.2826 O   0  0  0  0  0  0  0  0  0  0  0  0
   -1.4535    2.5884    3.2941 C   0  0  0  0  0  0  0  0  0  0  0  0
   -1.0349    1.1451    3.6795 C   0  0  0  0  0  0  0  0  0  0  0  0
    0.4527    0.8979    3.3598 C   0  0  2  0  0  0  0  0  0  0  0  0
    0.6739    0.9917    1.8202 C   0  0  0  0  0  0  0  0  0  0  0  0
    1.1288   -0.4482    3.7917 C   0  0  2  0  0  0  0  0  0  0  0  0
    0.5628   -1.1307    5.0512 C   0  0  0  0  0  0  0  0  0  0  0  0
    1.0883   -2.5366    5.3039 C   0  0  0  0  0  0  0  0  0  0  0  0
    2.2205   -3.1258    4.8572 C   0  0  0  0  0  0  0  0  0  0  0  0
    3.3216   -2.5170    3.9843 C   0  0  1  0  0  0  0  0  0  0  0  0
    3.0627   -3.0394    2.5611 C   0  0  0  0  0  0  0  0  0  0  0  0
    2.9130   -2.3026    1.5887 O   0  0  0  0  0  0  0  0  0  0  0  0
    3.0115   -4.5668    2.4054 C   0  0  0  0  0  0  0  0  0  0  0  0
    2.8418   -5.3222    3.7259 C   0  0  2  0  0  0  0  0  0  0  0  0
    1.4658   -5.5325    4.3044 C   0  0  0  0  0  0  0  0  0  0  0  0
    2.4185   -4.5940    5.0042 C   0  0  2  0  0  0  0  0  0  0  0  0
    2.9968   -5.0302    6.3341 C   0  0  0  0  0  0  0  0  0  0  0  0
    3.7001   -1.0106    4.2179 C   0  0  0  0  0  0  0  0  0  0  0  0
    4.2114   -0.9021    5.6711 C   0  0  0  0  0  0  0  0  0  0  0  0
    4.8865   -0.6023    3.3114 C   0  0  0  0  0  0  0  0  0  0  0  0
    2.5596   -0.0061    4.0365 C   0  0  0  0  0  0  0  0  0  0  0  0
    2.6358    1.3308    4.1749 C   0  0  0  0  0  0  0  0  0  0  0  0
    1.2627    1.9494    4.1367 C   0  0  1  0  0  0  0  0  0  0  0  0
    1.6721    4.4675    5.4417 H   0  0  0  0  0  0  0  0  0  0  0  0
    1.6970    5.4340    3.9734 H   0  0  0  0  0  0  0  0  0  0  0  0
    2.9445    4.2348    4.2398 H   0  0  0  0  0  0  0  0  0  0  0  0
    1.2677    3.4786    2.5902 H   0  0  0  0  0  0  0  0  0  0  0  0
   -0.6981    3.7624    4.9310 H   0  0  0  0  0  0  0  0  0  0  0  0
   -0.5776    4.8911    2.3667 H   0  0  0  0  0  0  0  0  0  0  0  0
   -2.4703    2.7675    3.6442 H   0  0  0  0  0  0  0  0  0  0  0  0
   -1.5130    2.6730    2.2115 H   0  0  0  0  0  0  0  0  0  0  0  0
   -1.2148    1.0132    4.7462 H   0  0  0  0  0  0  0  0  0  0  0  0
   -1.6644    0.4191    3.1633 H   0  0  0  0  0  0  0  0  0  0  0  0
    1.7274    0.8895    1.5500 H   0  0  0  0  0  0  0  0  0  0  0  0
    0.3329    1.9256    1.3741 H   0  0  0  0  0  0  0  0  0  0  0  0
    0.1356    0.1956    1.3013 H   0  0  0  0  0  0  0  0  0  0  0  0
    1.0695   -1.1529    2.9623 H   0  0  0  0  0  0  0  0  0  0  0  0
    0.7151   -0.5162    5.9383 H   0  0  0  0  0  0  0  0  0  0  0  0
   -0.5132   -1.2448    4.9280 H   0  0  0  0  0  0  0  0  0  0  0  0
    0.4212   -3.1475    5.8928 H   0  0  0  0  0  0  0  0  0  0  0  0
    4.2272   -3.0526    4.2737 H   0  0  0  0  0  0  0  0  0  0  0  0
    2.1969   -4.8373    1.7311 H   0  0  0  0  0  0  0  0  0  0  0  0
    3.9353   -4.8960    1.9353 H   0  0  0  0  0  0  0  0  0  0  0  0
    3.5461   -6.1445    3.8563 H   0  0  0  0  0  0  0  0  0  0  0  0
    0.6274   -5.1034    3.7598 H   0  0  0  0  0  0  0  0  0  0  0  0
    1.2851   -6.5059    4.7553 H   0  0  0  0  0  0  0  0  0  0  0  0
    3.1466   -6.1108    6.3514 H   0  0  0  0  0  0  0  0  0  0  0  0
    2.3093   -4.7704    7.1389 H   0  0  0  0  0  0  0  0  0  0  0  0
    3.9551   -4.5431    6.5192 H   0  0  0  0  0  0  0  0  0  0  0  0
    5.0287   -1.6008    5.8501 H   0  0  0  0  0  0  0  0  0  0  0  0
    3.4262   -1.1257    6.3930 H   0  0  0  0  0  0  0  0  0  0  0  0
    4.5860    0.0973    5.8986 H   0  0  0  0  0  0  0  0  0  0  0  0
    5.6933   -1.3316    3.3625 H   0  0  0  0  0  0  0  0  0  0  0  0
    5.3089    0.3597    3.6061 H   0  0  0  0  0  0  0  0  0  0  0  0
    4.5973   -0.5066    2.2649 H   0  0  0  0  0  0  0  0  0  0  0  0
    3.5263    1.8873    4.4154 H   0  0  0  0  0  0  0  0  0  0  0  0
    0.9522    1.9297    5.1808 H   0  0  0  0  0  0  0  0  0  0  0  0
  1  2  1  0
  1 27  1  0
  1 28  1  0
  1 29  1  0
  2 26  1  0
  2  3  1  0
  2 30  1  6
  3  4  1  0
  3  5  1  0
  3 31  1  1
  4 32  1  0
  5  6  1  0
  5 33  1  0
  5 34  1  0
  6  7  1  0
  6 35  1  0
  6 36  1  0
  7 26  1  0
  7  8  1  6
  7  9  1  0
  8 37  1  0
  8 38  1  0
  8 39  1  0
  9 24  1  0
  9 10  1  0
  9 40  1  6
 10 11  1  0
 10 41  1  0
 10 42  1  0
 11 12  2  0
 11 43  1  0
 12 19  1  0
 12 13  1  0
 13 14  1  0
 13 21  1  0
 13 44  1  1
 14 15  2  0
 14 16  1  0
 16 17  1  0
 16 45  1  0
 16 46  1  0
 17 19  1  0
 17 18  1  0
 17 47  1  1
 18 19  1  0
 18 48  1  0
 18 49  1  0
 19 20  1  1
 20 50  1  0
 20 51  1  0
 20 52  1  0
 21 22  1  0
 21 23  1  0
 21 24  1  0
 22 53  1  0
 22 54  1  0
 22 55  1  0
 23 56  1  0
 23 57  1  0
 23 58  1  0
 24 25  2  0
 25 26  1  0
 25 59  1  0
 26 60  1  1
M  END
>  <i_m_ct_stereo_status>  (100) 
1

>  <s_m_source_file>  (100) 
/var/tmp/pbs.5076255.sched01/tmp06uo9b_r/40lj_pgbub.sdf

>  <i_m_source_file_index>  (100) 
1

>  <i_lp_mmshare_version>  (100) 
48012

>  <i_f3d_flags>  (100) 
0

>  <s_epik_input>  (100) 
W0NIMl0xW0NIMl1bQ0BIXShbT0hdKVtDQEBIXShbQ0gzXSlbQ0BASF0yW0NIXT1DKFtDQEBIXTNbQ0BAXTEyW0NIM10pQyhbQ0gzXSkoW0NIM10pW0NASF00Qyg9W0NIXVtDSDJdMylbQ0BdNShbQ0gzXSlbQ0BASF0oW0NIMl01KVtDSDJdQzQ9Tw==

>  <s_epik_cmdline>  (100) 
J2VwaWtfcHl0aG9uJywgJy1waHQnLCAnMi4wJywgJy1waCcsICc3LjAnLCAnLXRuJywgJzgnLCAnLW1hJywgJzIwMCcsICctaW1hZScsICc8aW5maWxlLm1hZT4nLCAnLW9tYWUnLCAnPG91dGZpbGUubWFlPic=

>  <r_lp_tautomer_probability>  (100) 
1

>  <r_epik_Ionization_Penalty>  (100) 
1.80017e-06

>  <r_epik_Ionization_Penalty_Charging>  (100) 
0

>  <r_epik_Ionization_Penalty_Neutral>  (100) 
1.80017e-06

>  <r_epik_State_Penalty>  (100) 
-0

>  <r_epik_Charging_Adjusted_Penalty>  (100) 
0

>  <i_epik_Tot_Q>  (100) 
0

>  <i_epik_Tot_abs_Q>  (100) 
0

>  <s_lp_Force_Field>  (100) 
OPLS3e

>  <r_lp_Energy>  (100) 
44.9627

>  <b_lp_Chiralities_Consistent>  (100) 
1

>  <s_lp_Variant>  (100) 
30:0-1

>  <s_i_glide_gridfile>  (100) 
pfpi4k_grid

>  <i_i_glide_lignum>  (100) 
1

>  <i_i_glide_rotatable_bonds>  (100) 
1

>  <r_i_docking_score>  (100) 
-3.18908

>  <r_i_glide_ligand_efficiency>  (100) 
-0.122657

>  <r_i_glide_ligand_efficiency_sa>  (100) 
-0.363371

>  <r_i_glide_ligand_efficiency_ln>  (100) 
-0.748946

>  <r_i_glide_gscore>  (100) 
-3.18908

>  <r_i_glide_lipo>  (100) 
-0.114008

>  <r_i_glide_hbond>  (100) 
-0.254361

>  <r_i_glide_metal>  (100) 
-0

>  <r_i_glide_rewards>  (100) 
-0.991871

>  <r_i_glide_evdw>  (100) 
-22.2593

>  <r_i_glide_ecoul>  (100) 
-4.77066

>  <r_i_glide_erotb>  (100) 
0

>  <r_i_glide_esite>  (100) 
-0.000278133

>  <r_i_glide_emodel>  (100) 
-32.9114

>  <r_i_glide_energy>  (100) 
-27.03

>  <r_i_glide_einternal>  (100) 
0.0682782

>  <r_i_glide_intrahb_reward>  (100) 
-0

>  <i_i_glide_confnum>  (100) 
1

>  <i_i_glide_posenum>  (100) 
9

>  <r_i_glide_eff_state_penalty>  (100) 
0

>  <ligand_id>  (100) 
30

>  <original_smiles>  (100) 
CC1C(O)CCC2(C)C3CC=C4C(C(=O)CC5CC45C)C(C)(C)C3=CC12

>  <smiles>  (100) 
[H]OC1([H])C([H])([H])C([H])([H])C2(C([H])([H])[H])C3([H])C(=C([H])C2([H])C1([H])C([H])([H])[H])C(C([H])([H])[H])(C([H])([H])[H])C1([H])C(=O)C([H])([H])C2([H])C([H])([H])C2(C([H])([H])[H])C1=C([H])C3([H])[H]

$$$$
30:0:1
     RDKit          3D

 60 64  0  0  1  0  0  0  0  0999 V2000
    7.6680   -3.0948    0.0703 C   0  0  0  0  0  0  0  0  0  0  0  0
    6.1763   -3.0772   -0.3176 C   0  0  2  0  0  0  0  0  0  0  0  0
    5.9769   -2.5498   -1.7728 C   0  0  1  0  0  0  0  0  0  0  0  0
    6.5583   -3.4147   -2.7168 O   0  0  0  0  0  0  0  0  0  0  0  0
    4.5037   -2.3506   -2.1982 C   0  0  0  0  0  0  0  0  0  0  0  0
    3.6705   -1.5830   -1.1532 C   0  0  0  0  0  0  0  0  0  0  0  0
    3.8203   -2.2068    0.2527 C   0  0  2  0  0  0  0  0  0  0  0  0
    3.2472   -3.6569    0.2408 C   0  0  0  0  0  0  0  0  0  0  0  0
    3.1704   -1.5054    1.4955 C   0  0  2  0  0  0  0  0  0  0  0  0
    3.0179    0.0232    1.4323 C   0  0  0  0  0  0  0  0  0  0  0  0
    2.1806    0.6352    2.5462 C   0  0  0  0  0  0  0  0  0  0  0  0
    1.8743    0.1341    3.7632 C   0  0  0  0  0  0  0  0  0  0  0  0
    2.3368   -1.1900    4.3813 C   0  0  1  0  0  0  0  0  0  0  0  0
    1.1497   -2.1598    4.2300 C   0  0  0  0  0  0  0  0  0  0  0  0
    1.2311   -3.2507    3.6715 O   0  0  0  0  0  0  0  0  0  0  0  0
   -0.1756   -1.6888    4.8487 C   0  0  0  0  0  0  0  0  0  0  0  0
   -0.2228   -0.1912    5.1738 C   0  0  2  0  0  0  0  0  0  0  0  0
   -0.6005    0.7981    4.1003 C   0  0  0  0  0  0  0  0  0  0  0  0
    0.8233    0.7731    4.6065 C   0  0  2  0  0  0  0  0  0  0  0  0
    1.2989    1.9352    5.4579 C   0  0  0  0  0  0  0  0  0  0  0  0
    3.8018   -1.6720    4.0808 C   0  0  0  0  0  0  0  0  0  0  0  0
    4.7531   -0.5907    4.6420 C   0  0  0  0  0  0  0  0  0  0  0  0
    4.1147   -2.9716    4.8614 C   0  0  0  0  0  0  0  0  0  0  0  0
    4.1362   -1.8833    2.6021 C   0  0  0  0  0  0  0  0  0  0  0  0
    5.3124   -2.2942    2.0957 C   0  0  0  0  0  0  0  0  0  0  0  0
    5.3219   -2.1654    0.5939 C   0  0  1  0  0  0  0  0  0  0  0  0
    8.1261   -2.1103   -0.0137 H   0  0  0  0  0  0  0  0  0  0  0  0
    8.2227   -3.7726   -0.5793 H   0  0  0  0  0  0  0  0  0  0  0  0
    7.8091   -3.4487    1.0915 H   0  0  0  0  0  0  0  0  0  0  0  0
    5.8297   -4.1083   -0.2462 H   0  0  0  0  0  0  0  0  0  0  0  0
    6.4648   -1.5826   -1.8609 H   0  0  0  0  0  0  0  0  0  0  0  0
    7.4486   -3.1446   -2.9216 H   0  0  0  0  0  0  0  0  0  0  0  0
    4.4705   -1.8088   -3.1433 H   0  0  0  0  0  0  0  0  0  0  0  0
    4.0380   -3.3114   -2.4097 H   0  0  0  0  0  0  0  0  0  0  0  0
    4.0185   -0.5503   -1.1369 H   0  0  0  0  0  0  0  0  0  0  0  0
    2.6252   -1.5710   -1.4708 H   0  0  0  0  0  0  0  0  0  0  0  0
    3.3964   -4.1615    1.1975 H   0  0  0  0  0  0  0  0  0  0  0  0
    3.6782   -4.3060   -0.5201 H   0  0  0  0  0  0  0  0  0  0  0  0
    2.1738   -3.6394    0.0496 H   0  0  0  0  0  0  0  0  0  0  0  0
    2.1832   -1.9349    1.6595 H   0  0  0  0  0  0  0  0  0  0  0  0
    3.9812    0.5292    1.3744 H   0  0  0  0  0  0  0  0  0  0  0  0
    2.4776    0.2541    0.5177 H   0  0  0  0  0  0  0  0  0  0  0  0
    1.7325    1.5815    2.2763 H   0  0  0  0  0  0  0  0  0  0  0  0
    2.3515   -0.9991    5.4547 H   0  0  0  0  0  0  0  0  0  0  0  0
   -0.9908   -1.9326    4.1658 H   0  0  0  0  0  0  0  0  0  0  0  0
   -0.3445   -2.2525    5.7647 H   0  0  0  0  0  0  0  0  0  0  0  0
   -0.5816    0.0289    6.1784 H   0  0  0  0  0  0  0  0  0  0  0  0
   -0.7991    0.4076    3.1045 H   0  0  0  0  0  0  0  0  0  0  0  0
   -1.2385    1.6231    4.4108 H   0  0  0  0  0  0  0  0  0  0  0  0
    0.4853    2.3244    6.0718 H   0  0  0  0  0  0  0  0  0  0  0  0
    1.6536    2.7416    4.8165 H   0  0  0  0  0  0  0  0  0  0  0  0
    2.1132    1.6277    6.1142 H   0  0  0  0  0  0  0  0  0  0  0  0
    4.5543   -0.4068    5.6979 H   0  0  0  0  0  0  0  0  0  0  0  0
    4.6413    0.3583    4.1177 H   0  0  0  0  0  0  0  0  0  0  0  0
    5.8002   -0.8846    4.5594 H   0  0  0  0  0  0  0  0  0  0  0  0
    3.8276   -2.8828    5.9085 H   0  0  0  0  0  0  0  0  0  0  0  0
    5.1792   -3.2099    4.8443 H   0  0  0  0  0  0  0  0  0  0  0  0
    3.5960   -3.8388    4.4529 H   0  0  0  0  0  0  0  0  0  0  0  0
    6.1896   -2.5519    2.6673 H   0  0  0  0  0  0  0  0  0  0  0  0
    5.6888   -1.1500    0.4392 H   0  0  0  0  0  0  0  0  0  0  0  0
  1  2  1  0
  1 27  1  0
  1 28  1  0
  1 29  1  0
  2 26  1  0
  2  3  1  0
  2 30  1  6
  3  4  1  0
  3  5  1  0
  3 31  1  1
  4 32  1  0
  5  6  1  0
  5 33  1  0
  5 34  1  0
  6  7  1  0
  6 35  1  0
  6 36  1  0
  7 26  1  0
  7  8  1  6
  7  9  1  0
  8 37  1  0
  8 38  1  0
  8 39  1  0
  9 24  1  0
  9 10  1  0
  9 40  1  1
 10 11  1  0
 10 41  1  0
 10 42  1  0
 11 12  2  0
 11 43  1  0
 12 19  1  0
 12 13  1  0
 13 14  1  0
 13 21  1  0
 13 44  1  1
 14 15  2  0
 14 16  1  0
 16 17  1  0
 16 45  1  0
 16 46  1  0
 17 19  1  0
 17 18  1  0
 17 47  1  1
 18 19  1  0
 18 48  1  0
 18 49  1  0
 19 20  1  1
 20 50  1  0
 20 51  1  0
 20 52  1  0
 21 22  1  0
 21 23  1  0
 21 24  1  0
 22 53  1  0
 22 54  1  0
 22 55  1  0
 23 56  1  0
 23 57  1  0
 23 58  1  0
 24 25  2  0
 25 26  1  0
 25 59  1  0
 26 60  1  1
M  END
>  <i_m_ct_stereo_status>  (101) 
1

>  <s_m_source_file>  (101) 
/var/tmp/pbs.5076255.sched01/tmp06uo9b_r/40lj_pgbub.sdf

>  <i_m_source_file_index>  (101) 
1

>  <i_lp_mmshare_version>  (101) 
48012

>  <i_f3d_flags>  (101) 
0

>  <s_epik_input>  (101) 
W0NIMl0xW0NIMl1bQ0BIXShbT0hdKVtDQEBIXShbQ0gzXSlbQ0BASF0yW0NIXT1DKFtDQEBIXTNbQ0BAXTEyW0NIM10pQyhbQ0gzXSkoW0NIM10pW0NASF00Qyg9W0NIXVtDSDJdMylbQ0BdNShbQ0gzXSlbQ0BASF0oW0NIMl01KVtDSDJdQzQ9Tw==

>  <s_epik_cmdline>  (101) 
J2VwaWtfcHl0aG9uJywgJy1waHQnLCAnMi4wJywgJy1waCcsICc3LjAnLCAnLXRuJywgJzgnLCAnLW1hJywgJzIwMCcsICctaW1hZScsICc8aW5maWxlLm1hZT4nLCAnLW9tYWUnLCAnPG91dGZpbGUubWFlPic=

>  <r_lp_tautomer_probability>  (101) 
1

>  <r_epik_Ionization_Penalty>  (101) 
1.80017e-06

>  <r_epik_Ionization_Penalty_Charging>  (101) 
0

>  <r_epik_Ionization_Penalty_Neutral>  (101) 
1.80017e-06

>  <r_epik_State_Penalty>  (101) 
-0

>  <r_epik_Charging_Adjusted_Penalty>  (101) 
0

>  <i_epik_Tot_Q>  (101) 
0

>  <i_epik_Tot_abs_Q>  (101) 
0

>  <s_lp_Force_Field>  (101) 
OPLS3e

>  <r_lp_Energy>  (101) 
44.9627

>  <b_lp_Chiralities_Consistent>  (101) 
1

>  <s_lp_Variant>  (101) 
30:0-1

>  <s_i_glide_gridfile>  (101) 
pfpi4k_grid

>  <i_i_glide_lignum>  (101) 
1

>  <i_i_glide_rotatable_bonds>  (101) 
1

>  <r_i_docking_score>  (101) 
-3.08268

>  <r_i_glide_ligand_efficiency>  (101) 
-0.118564

>  <r_i_glide_ligand_efficiency_sa>  (101) 
-0.351247

>  <r_i_glide_ligand_efficiency_ln>  (101) 
-0.723956

>  <r_i_glide_gscore>  (101) 
-3.08268

>  <r_i_glide_lipo>  (101) 
-0.419551

>  <r_i_glide_hbond>  (101) 
-0.242578

>  <r_i_glide_metal>  (101) 
-0

>  <r_i_glide_rewards>  (101) 
-1.00255

>  <r_i_glide_evdw>  (101) 
-25.6292

>  <r_i_glide_ecoul>  (101) 
-0.910246

>  <r_i_glide_erotb>  (101) 
0

>  <r_i_glide_esite>  (101) 
0

>  <r_i_glide_emodel>  (101) 
-31.5331

>  <r_i_glide_energy>  (101) 
-26.5395

>  <r_i_glide_einternal>  (101) 
1.03359

>  <r_i_glide_intrahb_reward>  (101) 
-0

>  <i_i_glide_confnum>  (101) 
1

>  <i_i_glide_posenum>  (101) 
19

>  <r_i_glide_eff_state_penalty>  (101) 
0

>  <ligand_id>  (101) 
30

>  <original_smiles>  (101) 
CC1C(O)CCC2(C)C3CC=C4C(C(=O)CC5CC45C)C(C)(C)C3=CC12

>  <smiles>  (101) 
[H]OC1([H])C([H])([H])C([H])([H])C2(C([H])([H])[H])C3([H])C(=C([H])C2([H])C1([H])C([H])([H])[H])C(C([H])([H])[H])(C([H])([H])[H])C1([H])C(=O)C([H])([H])C2([H])C([H])([H])C2(C([H])([H])[H])C1=C([H])C3([H])[H]

$$$$
30:0:2
     RDKit          3D

 60 64  0  0  1  0  0  0  0  0999 V2000
    0.6110    4.0450    5.6714 C   0  0  0  0  0  0  0  0  0  0  0  0
    0.5392    3.1510    4.4192 C   0  0  2  0  0  0  0  0  0  0  0  0
   -0.8858    3.1985    3.7787 C   0  0  1  0  0  0  0  0  0  0  0  0
   -1.1776    4.4884    3.2845 O   0  0  0  0  0  0  0  0  0  0  0  0
   -1.1008    2.1808    2.6288 C   0  0  0  0  0  0  0  0  0  0  0  0
   -0.5987    0.7539    2.9332 C   0  0  0  0  0  0  0  0  0  0  0  0
    0.8448    0.7731    3.4704 C   0  0  2  0  0  0  0  0  0  0  0  0
    1.8049    1.3034    2.3593 C   0  0  0  0  0  0  0  0  0  0  0  0
    1.4939   -0.5551    3.9880 C   0  0  2  0  0  0  0  0  0  0  0  0
    0.5414   -1.6134    4.5794 C   0  0  0  0  0  0  0  0  0  0  0  0
    1.1798   -2.9657    4.8574 C   0  0  0  0  0  0  0  0  0  0  0  0
    2.4826   -3.2793    5.0372 C   0  0  0  0  0  0  0  0  0  0  0  0
    3.6905   -2.3381    5.0506 C   0  0  1  0  0  0  0  0  0  0  0  0
    4.3536   -2.4802    3.6693 C   0  0  0  0  0  0  0  0  0  0  0  0
    4.5699   -1.5284    2.9219 O   0  0  0  0  0  0  0  0  0  0  0  0
    4.7575   -3.9076    3.2688 C   0  0  0  0  0  0  0  0  0  0  0  0
    4.1188   -5.0058    4.1258 C   0  0  2  0  0  0  0  0  0  0  0  0
    2.7448   -5.5209    3.7796 C   0  0  0  0  0  0  0  0  0  0  0  0
    2.9254   -4.7039    5.0354 C   0  0  2  0  0  0  0  0  0  0  0  0
    2.8120   -5.4152    6.3683 C   0  0  0  0  0  0  0  0  0  0  0  0
    3.5093   -0.9189    5.6986 C   0  0  0  0  0  0  0  0  0  0  0  0
    3.1403   -1.1492    7.1810 C   0  0  0  0  0  0  0  0  0  0  0  0
    4.8528   -0.1490    5.7012 C   0  0  0  0  0  0  0  0  0  0  0  0
    2.4280   -0.0385    5.0664 C   0  0  0  0  0  0  0  0  0  0  0  0
    2.0904    1.2112    5.4383 C   0  0  0  0  0  0  0  0  0  0  0  0
    0.8412    1.6610    4.7250 C   0  0  1  0  0  0  0  0  0  0  0  0
   -0.1270    3.7562    6.4176 H   0  0  0  0  0  0  0  0  0  0  0  0
    0.4236    5.0841    5.4057 H   0  0  0  0  0  0  0  0  0  0  0  0
    1.5961    4.0047    6.1334 H   0  0  0  0  0  0  0  0  0  0  0  0
    1.2733    3.5451    3.7153 H   0  0  0  0  0  0  0  0  0  0  0  0
   -1.6171    2.9731    4.5581 H   0  0  0  0  0  0  0  0  0  0  0  0
   -0.6317    4.6232    2.5008 H   0  0  0  0  0  0  0  0  0  0  0  0
   -2.1578    2.1425    2.3654 H   0  0  0  0  0  0  0  0  0  0  0  0
   -0.5979    2.5303    1.7313 H   0  0  0  0  0  0  0  0  0  0  0  0
   -1.2722    0.3031    3.6629 H   0  0  0  0  0  0  0  0  0  0  0  0
   -0.6514    0.1599    2.0209 H   0  0  0  0  0  0  0  0  0  0  0  0
    2.8317    1.3977    2.7207 H   0  0  0  0  0  0  0  0  0  0  0  0
    1.5302    2.2806    1.9610 H   0  0  0  0  0  0  0  0  0  0  0  0
    1.8240    0.6214    1.5042 H   0  0  0  0  0  0  0  0  0  0  0  0
    2.0505   -1.0162    3.1714 H   0  0  0  0  0  0  0  0  0  0  0  0
    0.0494   -1.2481    5.4809 H   0  0  0  0  0  0  0  0  0  0  0  0
   -0.2432   -1.8141    3.8523 H   0  0  0  0  0  0  0  0  0  0  0  0
    0.4766   -3.7854    4.8552 H   0  0  0  0  0  0  0  0  0  0  0  0
    4.4104   -2.8253    5.7105 H   0  0  0  0  0  0  0  0  0  0  0  0
    4.5110   -4.0788    2.2191 H   0  0  0  0  0  0  0  0  0  0  0  0
    5.8372   -3.9922    3.3573 H   0  0  0  0  0  0  0  0  0  0  0  0
    4.8296   -5.7463    4.4930 H   0  0  0  0  0  0  0  0  0  0  0  0
    2.2426   -5.0608    2.9302 H   0  0  0  0  0  0  0  0  0  0  0  0
    2.6001   -6.5936    3.8824 H   0  0  0  0  0  0  0  0  0  0  0  0
    3.1893   -6.4354    6.2928 H   0  0  0  0  0  0  0  0  0  0  0  0
    1.7665   -5.4617    6.6725 H   0  0  0  0  0  0  0  0  0  0  0  0
    3.3794   -4.8898    7.1381 H   0  0  0  0  0  0  0  0  0  0  0  0
    3.8853   -1.7727    7.6754 H   0  0  0  0  0  0  0  0  0  0  0  0
    2.1768   -1.6478    7.2846 H   0  0  0  0  0  0  0  0  0  0  0  0
    3.0836   -0.2129    7.7382 H   0  0  0  0  0  0  0  0  0  0  0  0
    5.6618   -0.7697    6.0832 H   0  0  0  0  0  0  0  0  0  0  0  0
    4.8096    0.7398    6.3324 H   0  0  0  0  0  0  0  0  0  0  0  0
    5.1418    0.1910    4.7070 H   0  0  0  0  0  0  0  0  0  0  0  0
    2.5510    1.7764    6.2313 H   0  0  0  0  0  0  0  0  0  0  0  0
    0.0454    1.3253    5.3886 H   0  0  0  0  0  0  0  0  0  0  0  0
  1  2  1  0
  1 27  1  0
  1 28  1  0
  1 29  1  0
  2 26  1  0
  2  3  1  0
  2 30  1  6
  3  4  1  0
  3  5  1  0
  3 31  1  1
  4 32  1  0
  5  6  1  0
  5 33  1  0
  5 34  1  0
  6  7  1  0
  6 35  1  0
  6 36  1  0
  7 26  1  0
  7  8  1  6
  7  9  1  0
  8 37  1  0
  8 38  1  0
  8 39  1  0
  9 24  1  0
  9 10  1  0
  9 40  1  6
 10 11  1  0
 10 41  1  0
 10 42  1  0
 11 12  2  0
 11 43  1  0
 12 19  1  0
 12 13  1  0
 13 14  1  0
 13 21  1  0
 13 44  1  1
 14 15  2  0
 14 16  1  0
 16 17  1  0
 16 45  1  0
 16 46  1  0
 17 19  1  0
 17 18  1  0
 17 47  1  1
 18 19  1  0
 18 48  1  0
 18 49  1  0
 19 20  1  1
 20 50  1  0
 20 51  1  0
 20 52  1  0
 21 22  1  0
 21 23  1  0
 21 24  1  0
 22 53  1  0
 22 54  1  0
 22 55  1  0
 23 56  1  0
 23 57  1  0
 23 58  1  0
 24 25  2  0
 25 26  1  0
 25 59  1  0
 26 60  1  1
M  END
>  <i_m_ct_stereo_status>  (102) 
1

>  <s_m_source_file>  (102) 
/var/tmp/pbs.5076255.sched01/tmp06uo9b_r/40lj_pgbub.sdf

>  <i_m_source_file_index>  (102) 
1

>  <i_lp_mmshare_version>  (102) 
48012

>  <i_f3d_flags>  (102) 
0

>  <s_epik_input>  (102) 
W0NIMl0xW0NIMl1bQ0BIXShbT0hdKVtDQEBIXShbQ0gzXSlbQ0BASF0yW0NIXT1DKFtDQEBIXTNbQ0BAXTEyW0NIM10pQyhbQ0gzXSkoW0NIM10pW0NASF00Qyg9W0NIXVtDSDJdMylbQ0BdNShbQ0gzXSlbQ0BASF0oW0NIMl01KVtDSDJdQzQ9Tw==

>  <s_epik_cmdline>  (102) 
J2VwaWtfcHl0aG9uJywgJy1waHQnLCAnMi4wJywgJy1waCcsICc3LjAnLCAnLXRuJywgJzgnLCAnLW1hJywgJzIwMCcsICctaW1hZScsICc8aW5maWxlLm1hZT4nLCAnLW9tYWUnLCAnPG91dGZpbGUubWFlPic=

>  <r_lp_tautomer_probability>  (102) 
1

>  <r_epik_Ionization_Penalty>  (102) 
1.80017e-06

>  <r_epik_Ionization_Penalty_Charging>  (102) 
0

>  <r_epik_Ionization_Penalty_Neutral>  (102) 
1.80017e-06

>  <r_epik_State_Penalty>  (102) 
-0

>  <r_epik_Charging_Adjusted_Penalty>  (102) 
0

>  <i_epik_Tot_Q>  (102) 
0

>  <i_epik_Tot_abs_Q>  (102) 
0

>  <s_lp_Force_Field>  (102) 
OPLS3e

>  <r_lp_Energy>  (102) 
44.9627

>  <b_lp_Chiralities_Consistent>  (102) 
1

>  <s_lp_Variant>  (102) 
30:0-1

>  <s_i_glide_gridfile>  (102) 
pfpi4k_grid

>  <i_i_glide_lignum>  (102) 
1

>  <i_i_glide_rotatable_bonds>  (102) 
1

>  <r_i_docking_score>  (102) 
-2.94663

>  <r_i_glide_ligand_efficiency>  (102) 
-0.113332

>  <r_i_glide_ligand_efficiency_sa>  (102) 
-0.335746

>  <r_i_glide_ligand_efficiency_ln>  (102) 
-0.692007

>  <r_i_glide_gscore>  (102) 
-2.94663

>  <r_i_glide_lipo>  (102) 
-0.0456587

>  <r_i_glide_hbond>  (102) 
-0.20707

>  <r_i_glide_metal>  (102) 
-0

>  <r_i_glide_rewards>  (102) 
-1.01053

>  <r_i_glide_evdw>  (102) 
-18.8761

>  <r_i_glide_ecoul>  (102) 
-4.93049

>  <r_i_glide_erotb>  (102) 
0

>  <r_i_glide_esite>  (102) 
0

>  <r_i_glide_emodel>  (102) 
-29.2043

>  <r_i_glide_energy>  (102) 
-23.8066

>  <r_i_glide_einternal>  (102) 
0.114413

>  <r_i_glide_intrahb_reward>  (102) 
-0

>  <i_i_glide_confnum>  (102) 
1

>  <i_i_glide_posenum>  (102) 
4

>  <r_i_glide_eff_state_penalty>  (102) 
0

>  <ligand_id>  (102) 
30

>  <original_smiles>  (102) 
CC1C(O)CCC2(C)C3CC=C4C(C(=O)CC5CC45C)C(C)(C)C3=CC12

>  <smiles>  (102) 
[H]OC1([H])C([H])([H])C([H])([H])C2(C([H])([H])[H])C3([H])C(=C([H])C2([H])C1([H])C([H])([H])[H])C(C([H])([H])[H])(C([H])([H])[H])C1([H])C(=O)C([H])([H])C2([H])C([H])([H])C2(C([H])([H])[H])C1=C([H])C3([H])[H]

$$$$
33:0:0
     RDKit          3D

 69 75  0  0  1  0  0  0  0  0999 V2000
    5.3346   -1.5435    3.0424 C   0  0  0  0  0  0  0  0  0  0  0  0
    5.6825   -2.5354    2.1874 C   0  0  0  0  0  0  0  0  0  0  0  0
    5.3161   -3.9227    2.3329 C   0  0  0  0  0  0  0  0  0  0  0  0
    5.2126   -4.6599    3.4762 C   0  0  0  0  0  0  0  0  0  0  0  0
    5.4284   -4.0719    4.8743 C   0  0  0  0  0  0  0  0  0  0  0  0
    4.9296   -6.1716    3.5394 C   0  0  0  0  0  0  0  0  0  0  0  0
    3.6700   -6.7916    2.8449 C   0  0  1  0  0  0  0  0  0  0  0  0
    3.9432   -6.7550    1.3137 C   0  0  0  0  0  0  0  0  0  0  0  0
    3.9985   -5.3845    0.6235 C   0  0  0  0  0  0  0  0  0  0  0  0
    5.2264   -4.5066    0.9244 C   0  0  1  0  0  0  0  0  0  0  0  0
    5.2841   -3.2665   -0.0212 C   0  0  2  0  0  0  0  0  0  0  0  0
    6.1339   -3.4660   -1.2694 C   0  0  1  0  0  0  0  0  0  0  0  0
    5.6631   -2.6423   -2.3114 O   0  0  0  0  0  0  0  0  0  0  0  0
    7.5483   -3.1168   -0.8961 C   0  0  2  0  0  0  0  0  0  0  0  0
    8.1049   -3.6451    0.3267 O   0  0  0  0  0  0  0  0  0  0  0  0
    7.4920   -2.3360    0.3831 C   0  0  1  0  0  0  0  0  0  0  0  0
    8.3915   -1.1640    0.5078 C   0  0  0  0  0  0  0  0  0  0  0  0
    6.0260   -2.1898    0.7685 C   0  0  2  0  0  0  0  0  0  0  0  0
    3.5869   -8.2826    3.2888 C   0  0  1  0  0  0  0  0  0  0  0  0
    3.0261   -8.2896    4.7159 C   0  0  0  0  0  0  0  0  0  0  0  0
    2.1345   -7.0464    4.8028 C   0  0  1  0  0  0  0  0  0  0  0  0
    2.4614   -6.1801    6.0358 C   0  0  0  0  0  0  0  0  0  0  0  0
    2.2510   -6.3637    3.3928 C   0  0  1  0  0  0  0  0  0  0  0  0
    1.9663   -4.8416    3.4617 C   0  0  0  0  0  0  0  0  0  0  0  0
    1.2040   -7.0096    2.4402 C   0  0  2  0  0  0  0  0  0  0  0  0
   -0.2061   -6.9939    2.9521 C   0  0  0  0  0  0  0  0  0  0  0  0
   -0.7243   -8.1896    3.1199 C   0  0  0  0  0  0  0  0  0  0  0  0
   -2.1111   -8.4829    3.6212 C   0  0  0  0  0  0  0  0  0  0  0  0
    0.2427   -9.2993    2.8618 C   0  0  0  0  0  0  0  0  0  0  0  0
    1.4087   -8.5296    2.1966 C   0  0  2  0  0  0  0  0  0  0  0  0
    2.7214   -9.0457    2.4403 O   0  0  0  0  0  0  0  0  0  0  0  0
    5.4990   -0.5134    2.7878 H   0  0  0  0  0  0  0  0  0  0  0  0
    4.8694   -1.7606    3.9950 H   0  0  0  0  0  0  0  0  0  0  0  0
    5.8191   -4.8088    5.5750 H   0  0  0  0  0  0  0  0  0  0  0  0
    4.5091   -3.6505    5.2961 H   0  0  0  0  0  0  0  0  0  0  0  0
    6.1802   -3.2946    4.8643 H   0  0  0  0  0  0  0  0  0  0  0  0
    5.8164   -6.6457    3.1248 H   0  0  0  0  0  0  0  0  0  0  0  0
    4.9559   -6.4809    4.5774 H   0  0  0  0  0  0  0  0  0  0  0  0
    4.8708   -7.2947    1.1139 H   0  0  0  0  0  0  0  0  0  0  0  0
    3.2106   -7.3428    0.7796 H   0  0  0  0  0  0  0  0  0  0  0  0
    4.0391   -5.6045   -0.4419 H   0  0  0  0  0  0  0  0  0  0  0  0
    3.0706   -4.8356    0.7513 H   0  0  0  0  0  0  0  0  0  0  0  0
    6.1215   -5.1392    0.8344 H   0  0  0  0  0  0  0  0  0  0  0  0
    4.2685   -2.9707   -0.2789 H   0  0  0  0  0  0  0  0  0  0  0  0
    6.0198   -4.4881   -1.5712 H   0  0  0  0  0  0  0  0  0  0  0  0
    4.7896   -2.9203   -2.5183 H   0  0  0  0  0  0  0  0  0  0  0  0
    8.2673   -2.8474   -1.6711 H   0  0  0  0  0  0  0  0  0  0  0  0
    7.8936   -0.3033    0.0793 H   0  0  0  0  0  0  0  0  0  0  0  0
    9.3881   -1.3584    0.0815 H   0  0  0  0  0  0  0  0  0  0  0  0
    8.4916   -0.7904    1.5248 H   0  0  0  0  0  0  0  0  0  0  0  0
    5.6502   -1.1864    0.4773 H   0  0  0  0  0  0  0  0  0  0  0  0
    4.5514   -8.7786    3.2579 H   0  0  0  0  0  0  0  0  0  0  0  0
    2.4909   -9.2090    4.9592 H   0  0  0  0  0  0  0  0  0  0  0  0
    3.8478   -8.2221    5.4258 H   0  0  0  0  0  0  0  0  0  0  0  0
    1.1220   -7.3951    4.9923 H   0  0  0  0  0  0  0  0  0  0  0  0
    3.4595   -5.7525    5.9995 H   0  0  0  0  0  0  0  0  0  0  0  0
    2.4003   -6.7761    6.9452 H   0  0  0  0  0  0  0  0  0  0  0  0
    1.7522   -5.3602    6.1467 H   0  0  0  0  0  0  0  0  0  0  0  0
    0.9747   -4.6441    3.8674 H   0  0  0  0  0  0  0  0  0  0  0  0
    2.0053   -4.3630    2.4907 H   0  0  0  0  0  0  0  0  0  0  0  0
    2.6684   -4.3238    4.1053 H   0  0  0  0  0  0  0  0  0  0  0  0
    1.1922   -6.4846    1.4797 H   0  0  0  0  0  0  0  0  0  0  0  0
   -0.7149   -6.0912    3.2067 H   0  0  0  0  0  0  0  0  0  0  0  0
   -2.5766   -9.1612    2.9142 H   0  0  0  0  0  0  0  0  0  0  0  0
   -2.7102   -7.5735    3.7271 H   0  0  0  0  0  0  0  0  0  0  0  0
   -2.0519   -8.9880    4.5813 H   0  0  0  0  0  0  0  0  0  0  0  0
    0.5091   -9.7353    3.8254 H   0  0  0  0  0  0  0  0  0  0  0  0
   -0.2077  -10.0633    2.2235 H   0  0  0  0  0  0  0  0  0  0  0  0
    1.2678   -8.6307    1.1253 H   0  0  0  0  0  0  0  0  0  0  0  0
  1  2  2  0
  1 32  1  0
  1 33  1  0
  2 18  1  0
  2  3  1  0
  3 10  1  0
  3  4  2  0
  4  5  1  0
  4  6  1  0
  5 34  1  0
  5 35  1  0
  5 36  1  0
  7  6  1  1
  6 37  1  0
  6 38  1  0
  7 23  1  0
  7  8  1  0
  7 19  1  0
  8  9  1  0
  8 39  1  0
  8 40  1  0
  9 10  1  0
  9 41  1  0
  9 42  1  0
 10 11  1  0
 10 43  1  6
 11 18  1  0
 11 12  1  0
 11 44  1  6
 12 13  1  0
 12 14  1  0
 12 45  1  6
 13 46  1  0
 14 16  1  0
 14 15  1  0
 14 47  1  6
 15 16  1  0
 16 17  1  6
 16 18  1  0
 17 48  1  0
 17 49  1  0
 17 50  1  0
 18 51  1  6
 19 31  1  0
 19 20  1  0
 19 52  1  1
 20 21  1  0
 20 53  1  0
 20 54  1  0
 21 22  1  0
 21 23  1  0
 21 55  1  1
 22 56  1  0
 22 57  1  0
 22 58  1  0
 23 24  1  1
 23 25  1  0
 24 59  1  0
 24 60  1  0
 24 61  1  0
 25 30  1  0
 25 26  1  0
 25 62  1  6
 26 27  2  0
 26 63  1  0
 27 28  1  0
 27 29  1  0
 28 64  1  0
 28 65  1  0
 28 66  1  0
 29 30  1  0
 29 67  1  0
 29 68  1  0
 30 31  1  0
 30 69  1  6
M  END
>  <i_m_ct_stereo_status>  (103) 
1

>  <s_m_source_file>  (103) 
/var/tmp/pbs.5076255.sched01/tmp06uo9b_r/40lj_pgbub.sdf

>  <i_m_source_file_index>  (103) 
4

>  <i_lp_mmshare_version>  (103) 
48012

>  <i_f3d_flags>  (103) 
0

>  <s_epik_input>  (103) 
W09IXVtDQEhdMVtDQEhdKE8yKVtDQEBdMihbQ0gzXSlbQ0BIXShDMz1bQ0gyXSlbQ0BASF0xW0NASF0oW0NIMl1bQ0gyXTQpQzM9QyhbQ0gzXSlbQ0gyXVtDQF00NVtDQEhdNltDSDJdW0NAQEhdKFtDSDNdKVtDQF01KFtDSDNdKVtDQEhdN1tDQEBIXShPNilbQ0gyXUMoPVtDSF03KVtDSDNd

>  <s_epik_cmdline>  (103) 
J2VwaWtfcHl0aG9uJywgJy1waHQnLCAnMi4wJywgJy1waCcsICc3LjAnLCAnLXRuJywgJzgnLCAnLW1hJywgJzIwMCcsICctaW1hZScsICc8aW5maWxlLm1hZT4nLCAnLW9tYWUnLCAnPG91dGZpbGUubWFlPic=

>  <r_lp_tautomer_probability>  (103) 
1

>  <r_epik_Ionization_Penalty>  (103) 
4.862e-08

>  <r_epik_Ionization_Penalty_Charging>  (103) 
0

>  <r_epik_Ionization_Penalty_Neutral>  (103) 
4.862e-08

>  <r_epik_State_Penalty>  (103) 
-0

>  <r_epik_Charging_Adjusted_Penalty>  (103) 
0

>  <i_epik_Tot_Q>  (103) 
0

>  <i_epik_Tot_abs_Q>  (103) 
0

>  <s_lp_Force_Field>  (103) 
OPLS3e

>  <r_lp_Energy>  (103) 
65.5118

>  <b_lp_Chiralities_Consistent>  (103) 
1

>  <s_lp_Variant>  (103) 
33:0-1

>  <s_i_glide_gridfile>  (103) 
pfpi4k_grid

>  <i_i_glide_lignum>  (103) 
4

>  <i_i_glide_rotatable_bonds>  (103) 
1

>  <r_i_docking_score>  (103) 
-2.46665

>  <r_i_glide_ligand_efficiency>  (103) 
-0.0795695

>  <r_i_glide_ligand_efficiency_sa>  (103) 
-0.249958

>  <r_i_glide_ligand_efficiency_ln>  (103) 
-0.556306

>  <r_i_glide_gscore>  (103) 
-2.46665

>  <r_i_glide_lipo>  (103) 
-0.797438

>  <r_i_glide_hbond>  (103) 
0

>  <r_i_glide_metal>  (103) 
-0

>  <r_i_glide_rewards>  (103) 
-0.527731

>  <r_i_glide_evdw>  (103) 
-20.9832

>  <r_i_glide_ecoul>  (103) 
-0.615516

>  <r_i_glide_erotb>  (103) 
0

>  <r_i_glide_esite>  (103) 
0

>  <r_i_glide_emodel>  (103) 
-21.9659

>  <r_i_glide_energy>  (103) 
-21.5987

>  <r_i_glide_einternal>  (103) 
0.30865

>  <r_i_glide_intrahb_reward>  (103) 
-0

>  <i_i_glide_confnum>  (103) 
1

>  <i_i_glide_posenum>  (103) 
8

>  <r_i_glide_eff_state_penalty>  (103) 
0

>  <ligand_id>  (103) 
33

>  <original_smiles>  (103) 
C=C1C2=C(C)CC3(CCC2C2C(O)C4OC4(C)C12)C1CC(C)C3(C)C2C=C(C)CC2O1

>  <smiles>  (103) 
[H]OC1([H])C2([H])OC2(C([H])([H])[H])C2([H])C(=C([H])[H])C3=C(C([H])([H])[H])C([H])([H])C4(C([H])([H])C([H])([H])C3([H])C12[H])C1([H])OC2([H])C([H])([H])C(C([H])([H])[H])=C([H])C2([H])C4(C([H])([H])[H])C([H])(C([H])([H])[H])C1([H])[H]

$$$$
33:0:1
     RDKit          3D

 69 75  0  0  1  0  0  0  0  0999 V2000
    3.5119   -0.5319    0.7975 C   0  0  0  0  0  0  0  0  0  0  0  0
    3.6835   -1.5455   -0.0841 C   0  0  0  0  0  0  0  0  0  0  0  0
    3.8915   -2.9297    0.3182 C   0  0  0  0  0  0  0  0  0  0  0  0
    4.6296   -3.3608    1.3961 C   0  0  0  0  0  0  0  0  0  0  0  0
    5.3379   -2.4096    2.3280 C   0  0  0  0  0  0  0  0  0  0  0  0
    4.8806   -4.8368    1.6988 C   0  0  0  0  0  0  0  0  0  0  0  0
    3.7101   -5.8555    1.9063 C   0  0  1  0  0  0  0  0  0  0  0  0
    3.0923   -6.1148    0.5062 C   0  0  0  0  0  0  0  0  0  0  0  0
    2.3532   -4.9525   -0.1477 C   0  0  0  0  0  0  0  0  0  0  0  0
    3.2761   -3.8437   -0.7183 C   0  0  1  0  0  0  0  0  0  0  0  0
    2.5070   -2.9313   -1.7275 C   0  0  2  0  0  0  0  0  0  0  0  0
    2.6218   -3.1972   -3.2196 C   0  0  1  0  0  0  0  0  0  0  0  0
    1.4381   -2.7179   -3.8968 O   0  0  0  0  0  0  0  0  0  0  0  0
    3.8110   -2.4473   -3.6906 C   0  0  2  0  0  0  0  0  0  0  0  0
    5.0588   -2.4754   -2.9674 O   0  0  0  0  0  0  0  0  0  0  0  0
    4.1269   -1.4561   -2.6633 C   0  0  1  0  0  0  0  0  0  0  0  0
    4.2779   -0.0718   -3.1967 C   0  0  0  0  0  0  0  0  0  0  0  0
    3.1971   -1.5504   -1.5088 C   0  0  2  0  0  0  0  0  0  0  0  0
    4.3385   -7.1808    2.4092 C   0  0  1  0  0  0  0  0  0  0  0  0
    4.6687   -6.9654    3.8921 C   0  0  0  0  0  0  0  0  0  0  0  0
    3.6210   -5.9664    4.3917 C   0  0  1  0  0  0  0  0  0  0  0  0
    4.2621   -4.7784    5.1411 C   0  0  0  0  0  0  0  0  0  0  0  0
    2.7360   -5.6299    3.1357 C   0  0  1  0  0  0  0  0  0  0  0  0
    2.0888   -4.2313    3.2510 C   0  0  0  0  0  0  0  0  0  0  0  0
    1.5920   -6.6939    3.0122 C   0  0  2  0  0  0  0  0  0  0  0  0
    0.7166   -6.8485    4.2233 C   0  0  0  0  0  0  0  0  0  0  0  0
    0.8211   -8.0785    4.7954 C   0  0  0  0  0  0  0  0  0  0  0  0
    0.1382   -8.5598    6.0259 C   0  0  0  0  0  0  0  0  0  0  0  0
    1.8042   -8.9446    4.0673 C   0  0  0  0  0  0  0  0  0  0  0  0
    2.1016   -8.1450    2.7849 C   0  0  2  0  0  0  0  0  0  0  0  0
    3.4408   -8.2838    2.2788 O   0  0  0  0  0  0  0  0  0  0  0  0
    3.1804    0.4656    0.5068 H   0  0  0  0  0  0  0  0  0  0  0  0
    3.6860   -0.6568    1.8381 H   0  0  0  0  0  0  0  0  0  0  0  0
    6.2377   -2.8576    2.7327 H   0  0  0  0  0  0  0  0  0  0  0  0
    4.6951   -2.1053    3.1572 H   0  0  0  0  0  0  0  0  0  0  0  0
    5.6840   -1.5213    1.8074 H   0  0  0  0  0  0  0  0  0  0  0  0
    5.5051   -5.1786    0.8735 H   0  0  0  0  0  0  0  0  0  0  0  0
    5.5591   -4.8685    2.5489 H   0  0  0  0  0  0  0  0  0  0  0  0
    3.8793   -6.4587   -0.1687 H   0  0  0  0  0  0  0  0  0  0  0  0
    2.4063   -6.9522    0.5361 H   0  0  0  0  0  0  0  0  0  0  0  0
    1.8125   -5.3757   -0.9845 H   0  0  0  0  0  0  0  0  0  0  0  0
    1.5574   -4.6132    0.5025 H   0  0  0  0  0  0  0  0  0  0  0  0
    4.1143   -4.3170   -1.2566 H   0  0  0  0  0  0  0  0  0  0  0  0
    1.4610   -3.0042   -1.4148 H   0  0  0  0  0  0  0  0  0  0  0  0
    2.7547   -4.2421   -3.5039 H   0  0  0  0  0  0  0  0  0  0  0  0
    0.7638   -3.3133   -3.7574 H   0  0  0  0  0  0  0  0  0  0  0  0
    3.7792   -2.1035   -4.7346 H   0  0  0  0  0  0  0  0  0  0  0  0
    3.3451    0.5040   -3.2627 H   0  0  0  0  0  0  0  0  0  0  0  0
    4.6596   -0.2504   -4.1941 H   0  0  0  0  0  0  0  0  0  0  0  0
    4.9778    0.4216   -2.5064 H   0  0  0  0  0  0  0  0  0  0  0  0
    2.6021   -0.6670   -1.6965 H   0  0  0  0  0  0  0  0  0  0  0  0
    5.2495   -7.4346    1.8575 H   0  0  0  0  0  0  0  0  0  0  0  0
    4.6669   -7.8963    4.4603 H   0  0  0  0  0  0  0  0  0  0  0  0
    5.6709   -6.5525    3.9879 H   0  0  0  0  0  0  0  0  0  0  0  0
    3.0309   -6.4715    5.1520 H   0  0  0  0  0  0  0  0  0  0  0  0
    4.8926   -4.1626    4.5044 H   0  0  0  0  0  0  0  0  0  0  0  0
    4.8843   -5.1402    5.9597 H   0  0  0  0  0  0  0  0  0  0  0  0
    3.5071   -4.1291    5.5832 H   0  0  0  0  0  0  0  0  0  0  0  0
    1.4606   -4.1658    4.1388 H   0  0  0  0  0  0  0  0  0  0  0  0
    1.4412   -3.9895    2.4170 H   0  0  0  0  0  0  0  0  0  0  0  0
    2.8198   -3.4318    3.3267 H   0  0  0  0  0  0  0  0  0  0  0  0
    0.9285   -6.4227    2.1885 H   0  0  0  0  0  0  0  0  0  0  0  0
    0.0840   -6.0733    4.5993 H   0  0  0  0  0  0  0  0  0  0  0  0
   -0.4684   -9.4468    5.8052 H   0  0  0  0  0  0  0  0  0  0  0  0
   -0.5096   -7.7721    6.4110 H   0  0  0  0  0  0  0  0  0  0  0  0
    0.8665   -8.8231    6.8016 H   0  0  0  0  0  0  0  0  0  0  0  0
    2.6730   -9.0845    4.7088 H   0  0  0  0  0  0  0  0  0  0  0  0
    1.3605   -9.9218    3.8652 H   0  0  0  0  0  0  0  0  0  0  0  0
    1.4572   -8.5827    2.0208 H   0  0  0  0  0  0  0  0  0  0  0  0
  1  2  2  0
  1 32  1  0
  1 33  1  0
  2 18  1  0
  2  3  1  0
  3 10  1  0
  3  4  2  0
  4  5  1  0
  4  6  1  0
  5 34  1  0
  5 35  1  0
  5 36  1  0
  7  6  1  6
  6 37  1  0
  6 38  1  0
  7 23  1  0
  7  8  1  0
  7 19  1  0
  8  9  1  0
  8 39  1  0
  8 40  1  0
  9 10  1  0
  9 41  1  0
  9 42  1  0
 10 11  1  0
 10 43  1  6
 11 18  1  0
 11 12  1  0
 11 44  1  1
 12 13  1  0
 12 14  1  0
 12 45  1  1
 13 46  1  0
 14 16  1  0
 14 15  1  0
 14 47  1  6
 15 16  1  0
 16 17  1  6
 16 18  1  0
 17 48  1  0
 17 49  1  0
 17 50  1  0
 18 51  1  1
 19 31  1  0
 19 20  1  0
 19 52  1  6
 20 21  1  0
 20 53  1  0
 20 54  1  0
 21 22  1  0
 21 23  1  0
 21 55  1  1
 22 56  1  0
 22 57  1  0
 22 58  1  0
 23 24  1  1
 23 25  1  0
 24 59  1  0
 24 60  1  0
 24 61  1  0
 25 30  1  0
 25 26  1  0
 25 62  1  6
 26 27  2  0
 26 63  1  0
 27 28  1  0
 27 29  1  0
 28 64  1  0
 28 65  1  0
 28 66  1  0
 29 30  1  0
 29 67  1  0
 29 68  1  0
 30 31  1  0
 30 69  1  6
M  END
>  <i_m_ct_stereo_status>  (104) 
1

>  <s_m_source_file>  (104) 
/var/tmp/pbs.5076255.sched01/tmp06uo9b_r/40lj_pgbub.sdf

>  <i_m_source_file_index>  (104) 
4

>  <i_lp_mmshare_version>  (104) 
48012

>  <i_f3d_flags>  (104) 
0

>  <s_epik_input>  (104) 
W09IXVtDQEhdMVtDQEhdKE8yKVtDQEBdMihbQ0gzXSlbQ0BIXShDMz1bQ0gyXSlbQ0BASF0xW0NASF0oW0NIMl1bQ0gyXTQpQzM9QyhbQ0gzXSlbQ0gyXVtDQF00NVtDQEhdNltDSDJdW0NAQEhdKFtDSDNdKVtDQF01KFtDSDNdKVtDQEhdN1tDQEBIXShPNilbQ0gyXUMoPVtDSF03KVtDSDNd

>  <s_epik_cmdline>  (104) 
J2VwaWtfcHl0aG9uJywgJy1waHQnLCAnMi4wJywgJy1waCcsICc3LjAnLCAnLXRuJywgJzgnLCAnLW1hJywgJzIwMCcsICctaW1hZScsICc8aW5maWxlLm1hZT4nLCAnLW9tYWUnLCAnPG91dGZpbGUubWFlPic=

>  <r_lp_tautomer_probability>  (104) 
1

>  <r_epik_Ionization_Penalty>  (104) 
4.862e-08

>  <r_epik_Ionization_Penalty_Charging>  (104) 
0

>  <r_epik_Ionization_Penalty_Neutral>  (104) 
4.862e-08

>  <r_epik_State_Penalty>  (104) 
-0

>  <r_epik_Charging_Adjusted_Penalty>  (104) 
0

>  <i_epik_Tot_Q>  (104) 
0

>  <i_epik_Tot_abs_Q>  (104) 
0

>  <s_lp_Force_Field>  (104) 
OPLS3e

>  <r_lp_Energy>  (104) 
65.5118

>  <b_lp_Chiralities_Consistent>  (104) 
1

>  <s_lp_Variant>  (104) 
33:0-1

>  <s_i_glide_gridfile>  (104) 
pfpi4k_grid

>  <i_i_glide_lignum>  (104) 
4

>  <i_i_glide_rotatable_bonds>  (104) 
1

>  <r_i_docking_score>  (104) 
-2.39051

>  <r_i_glide_ligand_efficiency>  (104) 
-0.0771132

>  <r_i_glide_ligand_efficiency_sa>  (104) 
-0.242242

>  <r_i_glide_ligand_efficiency_ln>  (104) 
-0.539133

>  <r_i_glide_gscore>  (104) 
-2.39051

>  <r_i_glide_lipo>  (104) 
-0.56727

>  <r_i_glide_hbond>  (104) 
-0.32

>  <r_i_glide_metal>  (104) 
-0

>  <r_i_glide_rewards>  (104) 
-0.527731

>  <r_i_glide_evdw>  (104) 
-9.17442

>  <r_i_glide_ecoul>  (104) 
-3.44525

>  <r_i_glide_erotb>  (104) 
0

>  <r_i_glide_esite>  (104) 
0

>  <r_i_glide_emodel>  (104) 
-10.4121

>  <r_i_glide_energy>  (104) 
-12.6197

>  <r_i_glide_einternal>  (104) 
1.02282

>  <r_i_glide_intrahb_reward>  (104) 
-0

>  <i_i_glide_confnum>  (104) 
2

>  <i_i_glide_posenum>  (104) 
21

>  <r_i_glide_eff_state_penalty>  (104) 
0

>  <ligand_id>  (104) 
33

>  <original_smiles>  (104) 
C=C1C2=C(C)CC3(CCC2C2C(O)C4OC4(C)C12)C1CC(C)C3(C)C2C=C(C)CC2O1

>  <smiles>  (104) 
[H]OC1([H])C2([H])OC2(C([H])([H])[H])C2([H])C(=C([H])[H])C3=C(C([H])([H])[H])C([H])([H])C4(C([H])([H])C([H])([H])C3([H])C12[H])C1([H])OC2([H])C([H])([H])C(C([H])([H])[H])=C([H])C2([H])C4(C([H])([H])[H])C([H])(C([H])([H])[H])C1([H])[H]

$$$$
33:0:2
     RDKit          3D

 69 75  0  0  1  0  0  0  0  0999 V2000
    5.3348   -1.5496    3.0609 C   0  0  0  0  0  0  0  0  0  0  0  0
    5.6446   -2.5269    2.1840 C   0  0  0  0  0  0  0  0  0  0  0  0
    5.3295   -3.9442    2.3251 C   0  0  0  0  0  0  0  0  0  0  0  0
    5.1995   -4.6635    3.4774 C   0  0  0  0  0  0  0  0  0  0  0  0
    5.4301   -4.0728    4.8686 C   0  0  0  0  0  0  0  0  0  0  0  0
    4.9297   -6.1765    3.5336 C   0  0  0  0  0  0  0  0  0  0  0  0
    3.6726   -6.7984    2.8424 C   0  0  1  0  0  0  0  0  0  0  0  0
    3.9403   -6.7594    1.3054 C   0  0  0  0  0  0  0  0  0  0  0  0
    4.0008   -5.3881    0.6152 C   0  0  0  0  0  0  0  0  0  0  0  0
    5.2328   -4.5170    0.9256 C   0  0  1  0  0  0  0  0  0  0  0  0
    5.2996   -3.2644   -0.0162 C   0  0  2  0  0  0  0  0  0  0  0  0
    6.1406   -3.4767   -1.2741 C   0  0  1  0  0  0  0  0  0  0  0  0
    5.7043   -2.6637   -2.3389 O   0  0  0  0  0  0  0  0  0  0  0  0
    7.5537   -3.0937   -0.9028 C   0  0  2  0  0  0  0  0  0  0  0  0
    8.1206   -3.5993    0.3164 O   0  0  0  0  0  0  0  0  0  0  0  0
    7.5024   -2.3169    0.3574 C   0  0  1  0  0  0  0  0  0  0  0  0
    8.3888   -1.1118    0.5186 C   0  0  0  0  0  0  0  0  0  0  0  0
    6.0321   -2.1783    0.7779 C   0  0  2  0  0  0  0  0  0  0  0  0
    3.5767   -8.2919    3.2789 C   0  0  1  0  0  0  0  0  0  0  0  0
    3.0276   -8.2962    4.7117 C   0  0  0  0  0  0  0  0  0  0  0  0
    2.1362   -7.0518    4.7995 C   0  0  1  0  0  0  0  0  0  0  0  0
    2.4655   -6.1860    6.0330 C   0  0  0  0  0  0  0  0  0  0  0  0
    2.2525   -6.3671    3.3875 C   0  0  1  0  0  0  0  0  0  0  0  0
    1.9687   -4.8463    3.4595 C   0  0  0  0  0  0  0  0  0  0  0  0
    1.1945   -7.0068    2.4333 C   0  0  2  0  0  0  0  0  0  0  0  0
   -0.2202   -6.9888    2.9380 C   0  0  0  0  0  0  0  0  0  0  0  0
   -0.7406   -8.1900    3.1331 C   0  0  0  0  0  0  0  0  0  0  0  0
   -2.1188   -8.4881    3.6403 C   0  0  0  0  0  0  0  0  0  0  0  0
    0.2373   -9.2942    2.8590 C   0  0  0  0  0  0  0  0  0  0  0  0
    1.4017   -8.5257    2.1851 C   0  0  2  0  0  0  0  0  0  0  0  0
    2.7022   -9.0504    2.4409 O   0  0  0  0  0  0  0  0  0  0  0  0
    5.5005   -0.5150    2.7967 H   0  0  0  0  0  0  0  0  0  0  0  0
    4.8665   -1.7511    3.9999 H   0  0  0  0  0  0  0  0  0  0  0  0
    5.8268   -4.8079    5.5705 H   0  0  0  0  0  0  0  0  0  0  0  0
    4.5176   -3.6527    5.2938 H   0  0  0  0  0  0  0  0  0  0  0  0
    6.1879   -3.2948    4.8512 H   0  0  0  0  0  0  0  0  0  0  0  0
    5.8163   -6.6493    3.1171 H   0  0  0  0  0  0  0  0  0  0  0  0
    4.9611   -6.4924    4.5714 H   0  0  0  0  0  0  0  0  0  0  0  0
    4.8671   -7.2983    1.1034 H   0  0  0  0  0  0  0  0  0  0  0  0
    3.2040   -7.3478    0.7680 H   0  0  0  0  0  0  0  0  0  0  0  0
    4.0372   -5.6046   -0.4521 H   0  0  0  0  0  0  0  0  0  0  0  0
    3.0751   -4.8361    0.7470 H   0  0  0  0  0  0  0  0  0  0  0  0
    6.1214   -5.1442    0.8240 H   0  0  0  0  0  0  0  0  0  0  0  0
    4.2789   -2.9710   -0.2803 H   0  0  0  0  0  0  0  0  0  0  0  0
    6.0439   -4.5087   -1.5696 H   0  0  0  0  0  0  0  0  0  0  0  0
    6.2230   -2.8825   -3.1048 H   0  0  0  0  0  0  0  0  0  0  0  0
    8.2757   -2.8503   -1.6899 H   0  0  0  0  0  0  0  0  0  0  0  0
    7.8887   -0.2604    0.0786 H   0  0  0  0  0  0  0  0  0  0  0  0
    9.3783   -1.2913    0.0822 H   0  0  0  0  0  0  0  0  0  0  0  0
    8.5057   -0.7834    1.5472 H   0  0  0  0  0  0  0  0  0  0  0  0
    5.6439   -1.2068    0.4782 H   0  0  0  0  0  0  0  0  0  0  0  0
    4.5418   -8.7949    3.2407 H   0  0  0  0  0  0  0  0  0  0  0  0
    2.4913   -9.2152    4.9549 H   0  0  0  0  0  0  0  0  0  0  0  0
    3.8518   -8.2332    5.4194 H   0  0  0  0  0  0  0  0  0  0  0  0
    1.1222   -7.3983    4.9890 H   0  0  0  0  0  0  0  0  0  0  0  0
    3.4637   -5.7584    5.9973 H   0  0  0  0  0  0  0  0  0  0  0  0
    2.4049   -6.7818    6.9440 H   0  0  0  0  0  0  0  0  0  0  0  0
    1.7567   -5.3659    6.1460 H   0  0  0  0  0  0  0  0  0  0  0  0
    0.9770   -4.6454    3.8657 H   0  0  0  0  0  0  0  0  0  0  0  0
    2.0076   -4.3643    2.4876 H   0  0  0  0  0  0  0  0  0  0  0  0
    2.6711   -4.3271    4.1031 H   0  0  0  0  0  0  0  0  0  0  0  0
    1.1917   -6.4835    1.4762 H   0  0  0  0  0  0  0  0  0  0  0  0
   -0.7326   -6.0804    3.1729 H   0  0  0  0  0  0  0  0  0  0  0  0
   -2.5937   -9.1621    2.9323 H   0  0  0  0  0  0  0  0  0  0  0  0
   -2.7229   -7.5837    3.7559 H   0  0  0  0  0  0  0  0  0  0  0  0
   -2.0579   -9.0029    4.5966 H   0  0  0  0  0  0  0  0  0  0  0  0
    0.5143   -9.7347    3.8167 H   0  0  0  0  0  0  0  0  0  0  0  0
   -0.2100  -10.0578    2.2192 H   0  0  0  0  0  0  0  0  0  0  0  0
    1.2590   -8.6352    1.1155 H   0  0  0  0  0  0  0  0  0  0  0  0
  1  2  2  0
  1 32  1  0
  1 33  1  0
  2 18  1  0
  2  3  1  0
  3 10  1  0
  3  4  2  0
  4  5  1  0
  4  6  1  0
  5 34  1  0
  5 35  1  0
  5 36  1  0
  7  6  1  1
  6 37  1  0
  6 38  1  0
  7 23  1  0
  7  8  1  0
  7 19  1  0
  8  9  1  0
  8 39  1  0
  8 40  1  0
  9 10  1  0
  9 41  1  0
  9 42  1  0
 10 11  1  0
 10 43  1  6
 11 18  1  0
 11 12  1  0
 11 44  1  6
 12 13  1  0
 12 14  1  0
 12 45  1  6
 13 46  1  0
 14 16  1  0
 14 15  1  0
 14 47  1  6
 15 16  1  0
 16 17  1  6
 16 18  1  0
 17 48  1  0
 17 49  1  0
 17 50  1  0
 18 51  1  6
 19 31  1  0
 19 20  1  0
 19 52  1  1
 20 21  1  0
 20 53  1  0
 20 54  1  0
 21 22  1  0
 21 23  1  0
 21 55  1  1
 22 56  1  0
 22 57  1  0
 22 58  1  0
 23 24  1  1
 23 25  1  0
 24 59  1  0
 24 60  1  0
 24 61  1  0
 25 30  1  0
 25 26  1  0
 25 62  1  6
 26 27  2  0
 26 63  1  0
 27 28  1  0
 27 29  1  0
 28 64  1  0
 28 65  1  0
 28 66  1  0
 29 30  1  0
 29 67  1  0
 29 68  1  0
 30 31  1  0
 30 69  1  6
M  END
>  <i_m_ct_stereo_status>  (105) 
1

>  <s_m_source_file>  (105) 
/var/tmp/pbs.5076255.sched01/tmp06uo9b_r/40lj_pgbub.sdf

>  <i_m_source_file_index>  (105) 
4

>  <i_lp_mmshare_version>  (105) 
48012

>  <i_f3d_flags>  (105) 
0

>  <s_epik_input>  (105) 
W09IXVtDQEhdMVtDQEhdKE8yKVtDQEBdMihbQ0gzXSlbQ0BIXShDMz1bQ0gyXSlbQ0BASF0xW0NASF0oW0NIMl1bQ0gyXTQpQzM9QyhbQ0gzXSlbQ0gyXVtDQF00NVtDQEhdNltDSDJdW0NAQEhdKFtDSDNdKVtDQF01KFtDSDNdKVtDQEhdN1tDQEBIXShPNilbQ0gyXUMoPVtDSF03KVtDSDNd

>  <s_epik_cmdline>  (105) 
J2VwaWtfcHl0aG9uJywgJy1waHQnLCAnMi4wJywgJy1waCcsICc3LjAnLCAnLXRuJywgJzgnLCAnLW1hJywgJzIwMCcsICctaW1hZScsICc8aW5maWxlLm1hZT4nLCAnLW9tYWUnLCAnPG91dGZpbGUubWFlPic=

>  <r_lp_tautomer_probability>  (105) 
1

>  <r_epik_Ionization_Penalty>  (105) 
4.862e-08

>  <r_epik_Ionization_Penalty_Charging>  (105) 
0

>  <r_epik_Ionization_Penalty_Neutral>  (105) 
4.862e-08

>  <r_epik_State_Penalty>  (105) 
-0

>  <r_epik_Charging_Adjusted_Penalty>  (105) 
0

>  <i_epik_Tot_Q>  (105) 
0

>  <i_epik_Tot_abs_Q>  (105) 
0

>  <s_lp_Force_Field>  (105) 
OPLS3e

>  <r_lp_Energy>  (105) 
65.5118

>  <b_lp_Chiralities_Consistent>  (105) 
1

>  <s_lp_Variant>  (105) 
33:0-1

>  <s_i_glide_gridfile>  (105) 
pfpi4k_grid

>  <i_i_glide_lignum>  (105) 
4

>  <i_i_glide_rotatable_bonds>  (105) 
1

>  <r_i_docking_score>  (105) 
-2.26159

>  <r_i_glide_ligand_efficiency>  (105) 
-0.0729545

>  <r_i_glide_ligand_efficiency_sa>  (105) 
-0.229178

>  <r_i_glide_ligand_efficiency_ln>  (105) 
-0.510057

>  <r_i_glide_gscore>  (105) 
-2.26159

>  <r_i_glide_lipo>  (105) 
-0.777181

>  <r_i_glide_hbond>  (105) 
0

>  <r_i_glide_metal>  (105) 
-0

>  <r_i_glide_rewards>  (105) 
-0.527731

>  <r_i_glide_evdw>  (105) 
-19.5148

>  <r_i_glide_ecoul>  (105) 
0.127076

>  <r_i_glide_erotb>  (105) 
0

>  <r_i_glide_esite>  (105) 
0

>  <r_i_glide_emodel>  (105) 
-19.3993

>  <r_i_glide_energy>  (105) 
-19.3877

>  <r_i_glide_einternal>  (105) 
0.334851

>  <r_i_glide_intrahb_reward>  (105) 
-0

>  <i_i_glide_confnum>  (105) 
1

>  <i_i_glide_posenum>  (105) 
14

>  <r_i_glide_eff_state_penalty>  (105) 
0

>  <ligand_id>  (105) 
33

>  <original_smiles>  (105) 
C=C1C2=C(C)CC3(CCC2C2C(O)C4OC4(C)C12)C1CC(C)C3(C)C2C=C(C)CC2O1

>  <smiles>  (105) 
[H]OC1([H])C2([H])OC2(C([H])([H])[H])C2([H])C(=C([H])[H])C3=C(C([H])([H])[H])C([H])([H])C4(C([H])([H])C([H])([H])C3([H])C12[H])C1([H])OC2([H])C([H])([H])C(C([H])([H])[H])=C([H])C2([H])C4(C([H])([H])[H])C([H])(C([H])([H])[H])C1([H])[H]

$$$$
34:0:0
     RDKit          3D

 43 47  0  0  1  0  0  0  0  0999 V2000
    5.8677   -9.9625    1.3275 C   0  0  0  0  0  0  0  0  0  0  0  0
    5.7443   -8.4994    1.7812 C   0  0  0  0  0  0  0  0  0  0  0  0
    6.5832   -8.2705    3.0521 C   0  0  0  0  0  0  0  0  0  0  0  0
    4.2956   -8.0461    1.9736 C   0  0  0  0  0  0  0  0  0  0  0  0
    3.4121   -8.9567    2.6021 C   0  0  0  0  0  0  0  0  0  0  0  0
    2.0582   -8.6337    2.7502 C   0  0  0  0  0  0  0  0  0  0  0  0
    1.5354   -7.4692    2.3338 N   0  0  0  0  0  0  0  0  0  0  0  0
    2.3667   -6.5911    1.7361 C   0  0  0  0  0  0  0  0  0  0  0  0
    3.7692   -6.7803    1.5486 C   0  0  0  0  0  0  0  0  0  0  0  0
    4.5077   -5.6486    0.8780 C   0  0  0  0  0  0  0  0  0  0  0  0
    3.7387   -4.6848    0.2393 C   0  0  0  0  0  0  0  0  0  0  0  0
    2.2451   -4.8388    0.1573 C   0  0  0  0  0  0  0  0  0  0  0  0
    1.7157   -5.4576    1.3218 O   0  0  0  0  0  0  0  0  0  0  0  0
    4.4181   -3.5423   -0.3936 C   0  0  0  0  0  0  0  0  0  0  0  0
    4.2587   -2.2207   -0.1027 C   0  0  0  0  0  0  0  0  0  0  0  0
    5.4061   -1.4478    0.5135 C   0  0  0  0  0  0  0  0  0  0  0  0
    6.7603   -1.5692    0.1907 C   0  0  0  0  0  0  0  0  0  0  0  0
    7.4450   -2.9320    0.4800 C   0  0  0  0  0  0  0  0  0  0  0  0
    8.6379   -3.2063    0.4460 O   0  0  0  0  0  0  0  0  0  0  0  0
    6.3333   -3.9317    0.7916 C   0  0  1  0  0  0  0  0  0  0  0  0
    5.7144   -3.1810    2.0258 C   0  0  0  0  0  0  0  0  0  0  0  0
    5.2843   -1.9060    1.8804 C   0  0  0  0  0  0  0  0  0  0  0  0
    5.7762   -3.9083   -0.6748 C   0  0  0  0  0  0  0  0  0  0  0  0
    6.0822   -5.4315    1.0605 C   0  0  0  0  0  0  0  0  0  0  0  0
    5.2118  -10.1598    0.4864 H   0  0  0  0  0  0  0  0  0  0  0  0
    5.6065  -10.6720    2.1090 H   0  0  0  0  0  0  0  0  0  0  0  0
    6.8838  -10.1930    1.0145 H   0  0  0  0  0  0  0  0  0  0  0  0
    6.1592   -7.9464    0.9526 H   0  0  0  0  0  0  0  0  0  0  0  0
    6.4742   -7.2645    3.4504 H   0  0  0  0  0  0  0  0  0  0  0  0
    7.6433   -8.4361    2.8517 H   0  0  0  0  0  0  0  0  0  0  0  0
    6.2819   -8.9486    3.8497 H   0  0  0  0  0  0  0  0  0  0  0  0
    3.7518   -9.9182    2.9615 H   0  0  0  0  0  0  0  0  0  0  0  0
    1.3747   -9.3348    3.2068 H   0  0  0  0  0  0  0  0  0  0  0  0
    1.8208   -3.8447    0.0260 H   0  0  0  0  0  0  0  0  0  0  0  0
    1.9778   -5.4352   -0.7175 H   0  0  0  0  0  0  0  0  0  0  0  0
    3.2827   -1.9159    0.2609 H   0  0  0  0  0  0  0  0  0  0  0  0
    7.3876   -0.7789    0.5822 H   0  0  0  0  0  0  0  0  0  0  0  0
    5.6775   -3.6807    2.9809 H   0  0  0  0  0  0  0  0  0  0  0  0
    4.8694   -1.3169    2.6849 H   0  0  0  0  0  0  0  0  0  0  0  0
    5.7867   -4.8705   -1.1825 H   0  0  0  0  0  0  0  0  0  0  0  0
    6.1832   -3.2605   -1.4574 H   0  0  0  0  0  0  0  0  0  0  0  0
    6.4015   -5.6414    2.0772 H   0  0  0  0  0  0  0  0  0  0  0  0
    6.6639   -6.0555    0.3820 H   0  0  0  0  0  0  0  0  0  0  0  0
  1  2  1  0
  1 25  1  0
  1 26  1  0
  1 27  1  0
  2  3  1  0
  2  4  1  0
  2 28  1  0
  3 29  1  0
  3 30  1  0
  3 31  1  0
  4  9  2  0
  4  5  1  0
  5  6  2  0
  5 32  1  0
  6  7  1  0
  6 33  1  0
  7  8  2  0
  8 13  1  0
  8  9  1  0
  9 10  1  0
 10 24  1  0
 10 11  2  0
 11 12  1  0
 11 14  1  0
 12 13  1  0
 12 34  1  0
 12 35  1  0
 14 23  1  0
 14 15  2  0
 15 16  1  0
 15 36  1  0
 16 22  1  0
 16 17  2  0
 17 18  1  0
 17 37  1  0
 18 19  2  0
 18 20  1  0
 20 21  1  0
 20 23  1  0
 20 24  1  1
 21 22  2  0
 21 38  1  0
 22 39  1  0
 23 40  1  0
 23 41  1  0
 24 42  1  0
 24 43  1  0
M  END
>  <i_m_ct_stereo_status>  (106) 
1

>  <s_m_source_file>  (106) 
/var/tmp/pbs.5076255.sched01/tmp06uo9b_r/40lj_pgbub.sdf

>  <i_m_source_file_index>  (106) 
5

>  <i_lp_mmshare_version>  (106) 
48012

>  <i_f3d_flags>  (106) 
0

>  <s_epik_input>  (106) 
W0NIM11bQ0hdKFtDSDNdKWMxW2NIXVtjSF1uYyhPW0NIMl0yKWMxQyhbQ0gyXTMpPUMyQyhbQ0gyXTQpPVtDSF1DKD1bQ0hdQyg9TylbQ0BdMzQ1KVtDSF09W0NIXTU=

>  <s_epik_cmdline>  (106) 
J2VwaWtfcHl0aG9uJywgJy1waHQnLCAnMi4wJywgJy1waCcsICc3LjAnLCAnLXRuJywgJzgnLCAnLW1hJywgJzIwMCcsICctaW1hZScsICc8aW5maWxlLm1hZT4nLCAnLW9tYWUnLCAnPG91dGZpbGUubWFlPic=

>  <r_lp_tautomer_probability>  (106) 
1

>  <r_epik_Ionization_Penalty>  (106) 
4.9246e-06

>  <r_epik_Ionization_Penalty_Charging>  (106) 
0

>  <r_epik_Ionization_Penalty_Neutral>  (106) 
4.9246e-06

>  <r_epik_State_Penalty>  (106) 
-0

>  <r_epik_Charging_Adjusted_Penalty>  (106) 
0

>  <i_epik_Tot_Q>  (106) 
0

>  <i_epik_Tot_abs_Q>  (106) 
0

>  <s_lp_Force_Field>  (106) 
OPLS3e

>  <r_lp_Energy>  (106) 
274.637

>  <b_lp_Chiralities_Consistent>  (106) 
1

>  <s_lp_Variant>  (106) 
34:0-1

>  <s_i_glide_gridfile>  (106) 
pfpi4k_grid

>  <i_i_glide_lignum>  (106) 
5

>  <i_i_glide_rotatable_bonds>  (106) 
1

>  <r_i_docking_score>  (106) 
-3.73795

>  <r_i_glide_ligand_efficiency>  (106) 
-0.155748

>  <r_i_glide_ligand_efficiency_sa>  (106) 
-0.449254

>  <r_i_glide_ligand_efficiency_ln>  (106) 
-0.894662

>  <r_i_glide_gscore>  (106) 
-3.73795

>  <r_i_glide_lipo>  (106) 
-0.681082

>  <r_i_glide_hbond>  (106) 
-0.0980103

>  <r_i_glide_metal>  (106) 
-0

>  <r_i_glide_rewards>  (106) 
-1.45825

>  <r_i_glide_evdw>  (106) 
-24.0323

>  <r_i_glide_ecoul>  (106) 
-1.99326

>  <r_i_glide_erotb>  (106) 
0

>  <r_i_glide_esite>  (106) 
0

>  <r_i_glide_emodel>  (106) 
-31.8289

>  <r_i_glide_energy>  (106) 
-26.0256

>  <r_i_glide_einternal>  (106) 
0.0653963

>  <r_i_glide_intrahb_reward>  (106) 
-0

>  <i_i_glide_confnum>  (106) 
1

>  <i_i_glide_posenum>  (106) 
37

>  <r_i_glide_eff_state_penalty>  (106) 
0

>  <ligand_id>  (106) 
34

>  <original_smiles>  (106) 
CC(C)c1ccnc2c1C1=C(CO2)C2=CC3=CC(=O)C(C=C3)(C2)C1

>  <smiles>  (106) 
[H]C1=C2C([H])=C3C4=C(c5c(nc([H])c([H])c5C([H])(C([H])([H])[H])C([H])([H])[H])OC4([H])[H])C([H])([H])C(C1=O)(C([H])=C2[H])C3([H])[H]

$$$$
34:0:1
     RDKit          3D

 43 47  0  0  1  0  0  0  0  0999 V2000
    5.4446  -10.1817    2.2101 C   0  0  0  0  0  0  0  0  0  0  0  0
    5.2704   -8.7780    2.8024 C   0  0  0  0  0  0  0  0  0  0  0  0
    5.8351   -8.6891    4.2279 C   0  0  0  0  0  0  0  0  0  0  0  0
    3.8158   -8.2890    2.7379 C   0  0  0  0  0  0  0  0  0  0  0  0
    2.8637   -9.0872    3.4116 C   0  0  0  0  0  0  0  0  0  0  0  0
    1.5042   -8.7422    3.3706 C   0  0  0  0  0  0  0  0  0  0  0  0
    1.0426   -7.6644    2.7146 N   0  0  0  0  0  0  0  0  0  0  0  0
    1.9393   -6.9013    2.0573 C   0  0  0  0  0  0  0  0  0  0  0  0
    3.3572   -7.1147    2.0522 C   0  0  0  0  0  0  0  0  0  0  0  0
    4.1762   -6.1102    1.2834 C   0  0  0  0  0  0  0  0  0  0  0  0
    3.4855   -5.2627    0.4222 C   0  0  0  0  0  0  0  0  0  0  0  0
    2.0052   -5.4519    0.2016 C   0  0  0  0  0  0  0  0  0  0  0  0
    1.3467   -5.8568    1.3877 O   0  0  0  0  0  0  0  0  0  0  0  0
    4.2489   -4.2579   -0.3187 C   0  0  0  0  0  0  0  0  0  0  0  0
    4.0847   -2.9025   -0.2891 C   0  0  0  0  0  0  0  0  0  0  0  0
    5.1775   -2.0373    0.2975 C   0  0  0  0  0  0  0  0  0  0  0  0
    6.5565   -2.2012    0.1410 C   0  0  0  0  0  0  0  0  0  0  0  0
    7.1819   -3.4916    0.7361 C   0  0  0  0  0  0  0  0  0  0  0  0
    8.3626   -3.7783    0.8516 O   0  0  0  0  0  0  0  0  0  0  0  0
    6.0254   -4.4201    1.1103 C   0  0  1  0  0  0  0  0  0  0  0  0
    5.3006   -3.4688    2.1167 C   0  0  0  0  0  0  0  0  0  0  0  0
    4.9020   -2.2382    1.7000 C   0  0  0  0  0  0  0  0  0  0  0  0
    5.6242   -4.6613   -0.3868 C   0  0  0  0  0  0  0  0  0  0  0  0
    5.7230   -5.8489    1.6027 C   0  0  0  0  0  0  0  0  0  0  0  0
    5.0004  -10.2440    1.2239 H   0  0  0  0  0  0  0  0  0  0  0  0
    5.0053  -10.9578    2.8323 H   0  0  0  0  0  0  0  0  0  0  0  0
    6.5079  -10.4027    2.0972 H   0  0  0  0  0  0  0  0  0  0  0  0
    5.9031   -8.1840    2.1796 H   0  0  0  0  0  0  0  0  0  0  0  0
    5.6703   -7.7030    4.6587 H   0  0  0  0  0  0  0  0  0  0  0  0
    6.9109   -8.8754    4.2272 H   0  0  0  0  0  0  0  0  0  0  0  0
    5.3752   -9.4280    4.8876 H   0  0  0  0  0  0  0  0  0  0  0  0
    3.1658   -9.9712    3.9591 H   0  0  0  0  0  0  0  0  0  0  0  0
    0.7659   -9.3522    3.8685 H   0  0  0  0  0  0  0  0  0  0  0  0
    1.5838   -4.5217   -0.1736 H   0  0  0  0  0  0  0  0  0  0  0  0
    1.8300   -6.1995   -0.5674 H   0  0  0  0  0  0  0  0  0  0  0  0
    3.0807   -2.5445   -0.0951 H   0  0  0  0  0  0  0  0  0  0  0  0
    7.1499   -1.3564    0.4618 H   0  0  0  0  0  0  0  0  0  0  0  0
    5.1476   -3.7981    3.1297 H   0  0  0  0  0  0  0  0  0  0  0  0
    4.4063   -1.5253    2.3397 H   0  0  0  0  0  0  0  0  0  0  0  0
    5.6780   -5.6966   -0.7244 H   0  0  0  0  0  0  0  0  0  0  0  0
    6.1161   -4.1566   -1.2223 H   0  0  0  0  0  0  0  0  0  0  0  0
    5.9212   -5.9132    2.6764 H   0  0  0  0  0  0  0  0  0  0  0  0
    6.3719   -6.5576    1.0907 H   0  0  0  0  0  0  0  0  0  0  0  0
  1  2  1  0
  1 25  1  0
  1 26  1  0
  1 27  1  0
  2  3  1  0
  2  4  1  0
  2 28  1  0
  3 29  1  0
  3 30  1  0
  3 31  1  0
  4  9  2  0
  4  5  1  0
  5  6  2  0
  5 32  1  0
  6  7  1  0
  6 33  1  0
  7  8  2  0
  8 13  1  0
  8  9  1  0
  9 10  1  0
 10 24  1  0
 10 11  2  0
 11 12  1  0
 11 14  1  0
 12 13  1  0
 12 34  1  0
 12 35  1  0
 14 23  1  0
 14 15  2  0
 15 16  1  0
 15 36  1  0
 16 22  1  0
 16 17  2  0
 17 18  1  0
 17 37  1  0
 18 19  2  0
 18 20  1  0
 20 21  1  0
 20 23  1  0
 20 24  1  1
 21 22  2  0
 21 38  1  0
 22 39  1  0
 23 40  1  0
 23 41  1  0
 24 42  1  0
 24 43  1  0
M  END
>  <i_m_ct_stereo_status>  (107) 
1

>  <s_m_source_file>  (107) 
/var/tmp/pbs.5076255.sched01/tmp06uo9b_r/40lj_pgbub.sdf

>  <i_m_source_file_index>  (107) 
5

>  <i_lp_mmshare_version>  (107) 
48012

>  <i_f3d_flags>  (107) 
0

>  <s_epik_input>  (107) 
W0NIM11bQ0hdKFtDSDNdKWMxW2NIXVtjSF1uYyhPW0NIMl0yKWMxQyhbQ0gyXTMpPUMyQyhbQ0gyXTQpPVtDSF1DKD1bQ0hdQyg9TylbQ0BdMzQ1KVtDSF09W0NIXTU=

>  <s_epik_cmdline>  (107) 
J2VwaWtfcHl0aG9uJywgJy1waHQnLCAnMi4wJywgJy1waCcsICc3LjAnLCAnLXRuJywgJzgnLCAnLW1hJywgJzIwMCcsICctaW1hZScsICc8aW5maWxlLm1hZT4nLCAnLW9tYWUnLCAnPG91dGZpbGUubWFlPic=

>  <r_lp_tautomer_probability>  (107) 
1

>  <r_epik_Ionization_Penalty>  (107) 
4.9246e-06

>  <r_epik_Ionization_Penalty_Charging>  (107) 
0

>  <r_epik_Ionization_Penalty_Neutral>  (107) 
4.9246e-06

>  <r_epik_State_Penalty>  (107) 
-0

>  <r_epik_Charging_Adjusted_Penalty>  (107) 
0

>  <i_epik_Tot_Q>  (107) 
0

>  <i_epik_Tot_abs_Q>  (107) 
0

>  <s_lp_Force_Field>  (107) 
OPLS3e

>  <r_lp_Energy>  (107) 
274.637

>  <b_lp_Chiralities_Consistent>  (107) 
1

>  <s_lp_Variant>  (107) 
34:0-1

>  <s_i_glide_gridfile>  (107) 
pfpi4k_grid

>  <i_i_glide_lignum>  (107) 
5

>  <i_i_glide_rotatable_bonds>  (107) 
1

>  <r_i_docking_score>  (107) 
-3.23293

>  <r_i_glide_ligand_efficiency>  (107) 
-0.134706

>  <r_i_glide_ligand_efficiency_sa>  (107) 
-0.388558

>  <r_i_glide_ligand_efficiency_ln>  (107) 
-0.773789

>  <r_i_glide_gscore>  (107) 
-3.23293

>  <r_i_glide_lipo>  (107) 
-0.397349

>  <r_i_glide_hbond>  (107) 
-0.140644

>  <r_i_glide_metal>  (107) 
-0

>  <r_i_glide_rewards>  (107) 
-1.39025

>  <r_i_glide_evdw>  (107) 
-21.4347

>  <r_i_glide_ecoul>  (107) 
-1.553

>  <r_i_glide_erotb>  (107) 
0

>  <r_i_glide_esite>  (107) 
0

>  <r_i_glide_emodel>  (107) 
-27.757

>  <r_i_glide_energy>  (107) 
-22.9877

>  <r_i_glide_einternal>  (107) 
0.304853

>  <r_i_glide_intrahb_reward>  (107) 
-0

>  <i_i_glide_confnum>  (107) 
2

>  <i_i_glide_posenum>  (107) 
24

>  <r_i_glide_eff_state_penalty>  (107) 
0

>  <ligand_id>  (107) 
34

>  <original_smiles>  (107) 
CC(C)c1ccnc2c1C1=C(CO2)C2=CC3=CC(=O)C(C=C3)(C2)C1

>  <smiles>  (107) 
[H]C1=C2C([H])=C3C4=C(c5c(nc([H])c([H])c5C([H])(C([H])([H])[H])C([H])([H])[H])OC4([H])[H])C([H])([H])C(C1=O)(C([H])=C2[H])C3([H])[H]

$$$$
34:0:2
     RDKit          3D

 43 47  0  0  1  0  0  0  0  0999 V2000
    2.6537    2.8504    3.6299 C   0  0  0  0  0  0  0  0  0  0  0  0
    2.4010    1.5528    2.8457 C   0  0  0  0  0  0  0  0  0  0  0  0
    1.0893    1.6363    2.0499 C   0  0  0  0  0  0  0  0  0  0  0  0
    2.4310    0.3055    3.7292 C   0  0  0  0  0  0  0  0  0  0  0  0
    1.6888    0.3647    4.9339 C   0  0  0  0  0  0  0  0  0  0  0  0
    1.7141   -0.7116    5.8237 C   0  0  0  0  0  0  0  0  0  0  0  0
    2.4104   -1.8367    5.5952 N   0  0  0  0  0  0  0  0  0  0  0  0
    3.1226   -1.9068    4.4494 C   0  0  0  0  0  0  0  0  0  0  0  0
    3.1574   -0.8997    3.4399 C   0  0  0  0  0  0  0  0  0  0  0  0
    4.0058   -1.1980    2.2266 C   0  0  0  0  0  0  0  0  0  0  0  0
    4.8852   -2.2679    2.3215 C   0  0  0  0  0  0  0  0  0  0  0  0
    5.0409   -3.0084    3.6318 C   0  0  0  0  0  0  0  0  0  0  0  0
    3.8208   -3.0881    4.3424 O   0  0  0  0  0  0  0  0  0  0  0  0
    5.6980   -2.6043    1.1455 C   0  0  0  0  0  0  0  0  0  0  0  0
    5.7153   -3.7877    0.4783 C   0  0  0  0  0  0  0  0  0  0  0  0
    5.1878   -3.8606   -0.9371 C   0  0  0  0  0  0  0  0  0  0  0  0
    5.3690   -2.9134   -1.9453 C   0  0  0  0  0  0  0  0  0  0  0  0
    4.7216   -1.5224   -1.7235 C   0  0  0  0  0  0  0  0  0  0  0  0
    4.6116   -0.6174   -2.5301 O   0  0  0  0  0  0  0  0  0  0  0  0
    4.3028   -1.4481   -0.2508 C   0  0  1  0  0  0  0  0  0  0  0  0
    3.3190   -2.6635   -0.2658 C   0  0  0  0  0  0  0  0  0  0  0  0
    3.7734   -3.8811   -0.6510 C   0  0  0  0  0  0  0  0  0  0  0  0
    5.7793   -1.4573    0.2773 C   0  0  0  0  0  0  0  0  0  0  0  0
    3.7329   -0.4885    0.8147 C   0  0  0  0  0  0  0  0  0  0  0  0
    3.5463    2.7665    4.2471 H   0  0  0  0  0  0  0  0  0  0  0  0
    1.8185    3.1246    4.2704 H   0  0  0  0  0  0  0  0  0  0  0  0
    2.8134    3.6794    2.9392 H   0  0  0  0  0  0  0  0  0  0  0  0
    3.2307    1.5210    2.1644 H   0  0  0  0  0  0  0  0  0  0  0  0
    0.8653    0.7105    1.5204 H   0  0  0  0  0  0  0  0  0  0  0  0
    1.1503    2.4301    1.3063 H   0  0  0  0  0  0  0  0  0  0  0  0
    0.2410    1.8582    2.6965 H   0  0  0  0  0  0  0  0  0  0  0  0
    1.1055    1.2414    5.1874 H   0  0  0  0  0  0  0  0  0  0  0  0
    1.1776   -0.6690    6.7600 H   0  0  0  0  0  0  0  0  0  0  0  0
    5.4146   -4.0173    3.4525 H   0  0  0  0  0  0  0  0  0  0  0  0
    5.7833   -2.4889    4.2399 H   0  0  0  0  0  0  0  0  0  0  0  0
    5.4995   -4.6779    1.0615 H   0  0  0  0  0  0  0  0  0  0  0  0
    5.1222   -3.2533   -2.9430 H   0  0  0  0  0  0  0  0  0  0  0  0
    2.2818   -2.5077   -0.0121 H   0  0  0  0  0  0  0  0  0  0  0  0
    3.1499   -4.7601   -0.7196 H   0  0  0  0  0  0  0  0  0  0  0  0
    6.0775   -0.5748    0.8493 H   0  0  0  0  0  0  0  0  0  0  0  0
    6.6391   -1.5651   -0.3865 H   0  0  0  0  0  0  0  0  0  0  0  0
    2.6659   -0.3495    0.6353 H   0  0  0  0  0  0  0  0  0  0  0  0
    4.2185    0.4835    0.7430 H   0  0  0  0  0  0  0  0  0  0  0  0
  1  2  1  0
  1 25  1  0
  1 26  1  0
  1 27  1  0
  2  3  1  0
  2  4  1  0
  2 28  1  0
  3 29  1  0
  3 30  1  0
  3 31  1  0
  4  9  2  0
  4  5  1  0
  5  6  2  0
  5 32  1  0
  6  7  1  0
  6 33  1  0
  7  8  2  0
  8 13  1  0
  8  9  1  0
  9 10  1  0
 10 24  1  0
 10 11  2  0
 11 12  1  0
 11 14  1  0
 12 13  1  0
 12 34  1  0
 12 35  1  0
 14 23  1  0
 14 15  2  0
 15 16  1  0
 15 36  1  0
 16 22  1  0
 16 17  2  0
 17 18  1  0
 17 37  1  0
 18 19  2  0
 18 20  1  0
 20 21  1  0
 20 23  1  0
 20 24  1  6
 21 22  2  0
 21 38  1  0
 22 39  1  0
 23 40  1  0
 23 41  1  0
 24 42  1  0
 24 43  1  0
M  END
>  <i_m_ct_stereo_status>  (108) 
1

>  <s_m_source_file>  (108) 
/var/tmp/pbs.5076255.sched01/tmp06uo9b_r/40lj_pgbub.sdf

>  <i_m_source_file_index>  (108) 
5

>  <i_lp_mmshare_version>  (108) 
48012

>  <i_f3d_flags>  (108) 
0

>  <s_epik_input>  (108) 
W0NIM11bQ0hdKFtDSDNdKWMxW2NIXVtjSF1uYyhPW0NIMl0yKWMxQyhbQ0gyXTMpPUMyQyhbQ0gyXTQpPVtDSF1DKD1bQ0hdQyg9TylbQ0BdMzQ1KVtDSF09W0NIXTU=

>  <s_epik_cmdline>  (108) 
J2VwaWtfcHl0aG9uJywgJy1waHQnLCAnMi4wJywgJy1waCcsICc3LjAnLCAnLXRuJywgJzgnLCAnLW1hJywgJzIwMCcsICctaW1hZScsICc8aW5maWxlLm1hZT4nLCAnLW9tYWUnLCAnPG91dGZpbGUubWFlPic=

>  <r_lp_tautomer_probability>  (108) 
1

>  <r_epik_Ionization_Penalty>  (108) 
4.9246e-06

>  <r_epik_Ionization_Penalty_Charging>  (108) 
0

>  <r_epik_Ionization_Penalty_Neutral>  (108) 
4.9246e-06

>  <r_epik_State_Penalty>  (108) 
-0

>  <r_epik_Charging_Adjusted_Penalty>  (108) 
0

>  <i_epik_Tot_Q>  (108) 
0

>  <i_epik_Tot_abs_Q>  (108) 
0

>  <s_lp_Force_Field>  (108) 
OPLS3e

>  <r_lp_Energy>  (108) 
274.637

>  <b_lp_Chiralities_Consistent>  (108) 
1

>  <s_lp_Variant>  (108) 
34:0-1

>  <s_i_glide_gridfile>  (108) 
pfpi4k_grid

>  <i_i_glide_lignum>  (108) 
5

>  <i_i_glide_rotatable_bonds>  (108) 
1

>  <r_i_docking_score>  (108) 
-3.09386

>  <r_i_glide_ligand_efficiency>  (108) 
-0.128911

>  <r_i_glide_ligand_efficiency_sa>  (108) 
-0.371843

>  <r_i_glide_ligand_efficiency_ln>  (108) 
-0.740502

>  <r_i_glide_gscore>  (108) 
-3.09386

>  <r_i_glide_lipo>  (108) 
-0.428764

>  <r_i_glide_hbond>  (108) 
0

>  <r_i_glide_metal>  (108) 
-0

>  <r_i_glide_rewards>  (108) 
-1.24513

>  <r_i_glide_evdw>  (108) 
-24.0284

>  <r_i_glide_ecoul>  (108) 
-1.17562

>  <r_i_glide_erotb>  (108) 
0

>  <r_i_glide_esite>  (108) 
-0.0422021

>  <r_i_glide_emodel>  (108) 
-30.0227

>  <r_i_glide_energy>  (108) 
-25.204

>  <r_i_glide_einternal>  (108) 
0.000627982

>  <r_i_glide_intrahb_reward>  (108) 
-0

>  <i_i_glide_confnum>  (108) 
1

>  <i_i_glide_posenum>  (108) 
40

>  <r_i_glide_eff_state_penalty>  (108) 
0

>  <ligand_id>  (108) 
34

>  <original_smiles>  (108) 
CC(C)c1ccnc2c1C1=C(CO2)C2=CC3=CC(=O)C(C=C3)(C2)C1

>  <smiles>  (108) 
[H]C1=C2C([H])=C3C4=C(c5c(nc([H])c([H])c5C([H])(C([H])([H])[H])C([H])([H])[H])OC4([H])[H])C([H])([H])C(C1=O)(C([H])=C2[H])C3([H])[H]

$$$$
35:0:0
     RDKit          3D

 75 80  0  0  1  0  0  0  0  0999 V2000
    3.0141   -3.8213   -3.9220 C   0  0  0  0  0  0  0  0  0  0  0  0
    3.6035   -2.8210   -2.9774 C   0  0  0  0  0  0  0  0  0  0  0  0
    3.7356   -1.4810   -3.3858 C   0  0  0  0  0  0  0  0  0  0  0  0
    4.2972   -0.5888   -2.4703 C   0  0  0  0  0  0  0  0  0  0  0  0
    4.7264   -1.0528   -1.2147 C   0  0  0  0  0  0  0  0  0  0  0  0
    4.5242   -2.4185   -0.8891 C   0  0  0  0  0  0  0  0  0  0  0  0
    4.9670   -2.9743    0.4759 C   0  0  2  0  0  0  0  0  0  0  0  0
    5.8778   -4.0624    0.3372 O   0  0  0  0  0  0  0  0  0  0  0  0
    5.1760   -5.2688    0.4519 C   0  0  0  0  0  0  0  0  0  0  0  0
    4.0638   -4.9848    1.4891 C   0  0  1  0  0  0  0  0  0  0  0  0
    2.8868   -5.9425    1.1447 C   0  0  0  0  0  0  0  0  0  0  0  0
    2.0699   -5.4574    0.0841 O   0  0  0  0  0  0  0  0  0  0  0  0
    4.6322   -5.3443    2.8853 C   0  0  0  0  0  0  0  0  0  0  0  0
    3.7609   -4.9025    4.0763 C   0  0  0  0  0  0  0  0  0  0  0  0
    2.9238   -3.5881    3.8940 C   0  0  1  0  0  0  0  0  0  0  0  0
    1.4458   -3.8766    3.4822 C   0  0  0  0  0  0  0  0  0  0  0  0
    0.5811   -4.6267    4.5373 C   0  0  1  0  0  0  0  0  0  0  0  0
    0.1375   -6.0074    4.0193 C   0  0  0  0  0  0  0  0  0  0  0  0
    1.2132   -4.7251    5.9403 C   0  0  0  0  0  0  0  0  0  0  0  0
    0.9501   -5.6950    6.6741 O   0  0  0  0  0  0  0  0  0  0  0  0
    2.1304   -3.5916    6.4487 C   0  0  0  0  0  0  0  0  0  0  0  0
    1.2462   -2.6627    7.3174 C   0  0  0  0  0  0  0  0  0  0  0  0
    3.2297   -4.1813    7.3681 C   0  0  0  0  0  0  0  0  0  0  0  0
    2.7144   -2.8014    5.2343 C   0  0  1  0  0  0  0  0  0  0  0  0
    3.8705   -1.8451    5.5218 C   0  0  0  0  0  0  0  0  0  0  0  0
    3.9333   -0.7547    4.4372 C   0  0  0  0  0  0  0  0  0  0  0  0
    3.4484   -1.1799    3.0225 C   0  0  1  0  0  0  0  0  0  0  0  0
    2.0303   -0.8703    2.8724 O   0  0  0  0  0  0  0  0  0  0  0  0
    1.9544    0.3452    2.1472 C   0  0  1  0  0  0  0  0  0  0  0  0
    1.6528    1.5138    3.1024 C   0  0  0  0  0  0  0  0  0  0  0  0
    3.1868    0.5690    1.5204 O   0  0  0  0  0  0  0  0  0  0  0  0
    4.0928   -0.2358    2.0551 C   0  0  0  0  0  0  0  0  0  0  0  0
    5.2992   -0.1887    1.8716 O   0  0  0  0  0  0  0  0  0  0  0  0
    3.7257   -2.7230    2.8246 C   0  0  2  0  0  0  0  0  0  0  0  0
    3.7912   -3.4328    1.4015 C   0  0  1  0  0  0  0  0  0  0  0  0
    3.9734   -3.2806   -1.7652 N   0  0  0  0  0  0  0  0  0  0  0  0
    2.7250   -3.3306   -4.8436 H   0  0  0  0  0  0  0  0  0  0  0  0
    2.1118   -4.2314   -3.4652 H   0  0  0  0  0  0  0  0  0  0  0  0
    3.7345   -4.6144   -4.1451 H   0  0  0  0  0  0  0  0  0  0  0  0
    3.3967   -1.1393   -4.3514 H   0  0  0  0  0  0  0  0  0  0  0  0
    4.4148    0.4523   -2.7303 H   0  0  0  0  0  0  0  0  0  0  0  0
    5.1903   -0.3697   -0.5278 H   0  0  0  0  0  0  0  0  0  0  0  0
    5.6034   -2.2462    0.9615 H   0  0  0  0  0  0  0  0  0  0  0  0
    4.7735   -5.5145   -0.5295 H   0  0  0  0  0  0  0  0  0  0  0  0
    5.8617   -6.0787    0.7323 H   0  0  0  0  0  0  0  0  0  0  0  0
    3.2838   -6.9257    0.8898 H   0  0  0  0  0  0  0  0  0  0  0  0
    2.2586   -6.1361    2.0062 H   0  0  0  0  0  0  0  0  0  0  0  0
    2.5645   -5.4404   -0.7213 H   0  0  0  0  0  0  0  0  0  0  0  0
    4.8466   -6.4151    2.9631 H   0  0  0  0  0  0  0  0  0  0  0  0
    5.5985   -4.8573    2.9926 H   0  0  0  0  0  0  0  0  0  0  0  0
    3.1143   -5.7340    4.3207 H   0  0  0  0  0  0  0  0  0  0  0  0
    4.4487   -4.7794    4.9206 H   0  0  0  0  0  0  0  0  0  0  0  0
    0.9296   -2.9344    3.3316 H   0  0  0  0  0  0  0  0  0  0  0  0
    1.3592   -4.3328    2.5020 H   0  0  0  0  0  0  0  0  0  0  0  0
   -0.3244   -4.0404    4.6951 H   0  0  0  0  0  0  0  0  0  0  0  0
   -0.6295   -6.4545    4.6572 H   0  0  0  0  0  0  0  0  0  0  0  0
    0.9761   -6.7006    3.9736 H   0  0  0  0  0  0  0  0  0  0  0  0
   -0.2627   -5.9439    3.0120 H   0  0  0  0  0  0  0  0  0  0  0  0
    1.8117   -1.8254    7.7266 H   0  0  0  0  0  0  0  0  0  0  0  0
    0.8109   -3.2002    8.1637 H   0  0  0  0  0  0  0  0  0  0  0  0
    0.4145   -2.2498    6.7469 H   0  0  0  0  0  0  0  0  0  0  0  0
    3.9469   -3.4268    7.6887 H   0  0  0  0  0  0  0  0  0  0  0  0
    3.7838   -4.9821    6.8895 H   0  0  0  0  0  0  0  0  0  0  0  0
    2.8055   -4.6237    8.2737 H   0  0  0  0  0  0  0  0  0  0  0  0
    1.9151   -2.0934    5.0359 H   0  0  0  0  0  0  0  0  0  0  0  0
    3.7326   -1.3377    6.4909 H   0  0  0  0  0  0  0  0  0  0  0  0
    4.8220   -2.3786    5.5810 H   0  0  0  0  0  0  0  0  0  0  0  0
    3.3338    0.0703    4.8201 H   0  0  0  0  0  0  0  0  0  0  0  0
    4.9479   -0.4013    4.3843 H   0  0  0  0  0  0  0  0  0  0  0  0
    1.1925    0.2060    1.3829 H   0  0  0  0  0  0  0  0  0  0  0  0
    2.4274    1.6486    3.8669 H   0  0  0  0  0  0  0  0  0  0  0  0
    0.7040    1.3161    3.6020 H   0  0  0  0  0  0  0  0  0  0  0  0
    1.5821    2.4280    2.5376 H   0  0  0  0  0  0  0  0  0  0  0  0
    4.7514   -2.7650    3.1614 H   0  0  0  0  0  0  0  0  0  0  0  0
    2.8490   -3.2296    0.9037 H   0  0  0  0  0  0  0  0  0  0  0  0
  1  2  1  0
  1 37  1  0
  1 38  1  0
  1 39  1  0
  2 36  2  0
  2  3  1  0
  3  4  2  0
  3 40  1  0
  4  5  1  0
  4 41  1  0
  5  6  2  0
  5 42  1  0
  6  7  1  0
  6 36  1  0
  7 35  1  0
  7  8  1  0
  7 43  1  1
  8  9  1  0
  9 10  1  0
  9 44  1  0
  9 45  1  0
 10 35  1  0
 10 11  1  6
 10 13  1  0
 11 12  1  0
 11 46  1  0
 11 47  1  0
 12 48  1  0
 13 14  1  0
 13 49  1  0
 13 50  1  0
 15 14  1  1
 14 51  1  0
 14 52  1  0
 15 24  1  0
 15 34  1  0
 15 16  1  0
 16 17  1  0
 16 53  1  0
 16 54  1  0
 17 18  1  0
 17 19  1  0
 17 55  1  1
 18 56  1  0
 18 57  1  0
 18 58  1  0
 19 20  2  0
 19 21  1  0
 21 22  1  0
 21 23  1  0
 21 24  1  0
 22 59  1  0
 22 60  1  0
 22 61  1  0
 23 62  1  0
 23 63  1  0
 23 64  1  0
 24 25  1  0
 24 65  1  6
 25 26  1  0
 25 66  1  0
 25 67  1  0
 26 27  1  0
 26 68  1  0
 26 69  1  0
 27 32  1  0
 27 28  1  1
 27 34  1  0
 28 29  1  0
 29 30  1  0
 29 31  1  0
 29 70  1  6
 30 71  1  0
 30 72  1  0
 30 73  1  0
 31 32  1  0
 32 33  2  0
 34 35  1  0
 34 74  1  1
 35 75  1  6
M  END
>  <i_m_ct_stereo_status>  (109) 
1

>  <s_m_source_file>  (109) 
/var/tmp/pbs.5076255.sched01/tmp06uo9b_r/40lj_pgbub.sdf

>  <i_m_source_file_index>  (109) 
6

>  <i_lp_mmshare_version>  (109) 
48012

>  <i_f3d_flags>  (109) 
0

>  <s_epik_input>  (109) 
W0NIM11jMVtjSF1bY0hdW2NIXWMobjEpW0NAQEhdMk9bQ0gyXVtDQEBdKFtDSDJdW09IXSkoW0NIMl1bQ0gyXTMpW0NASF0yW0NASF00W0NAQF01KE9bQ0BASF0oW0NIM10pT0M1PU8pW0NIMl1bQ0gyXVtDQEBIXShbQ0BdMzQ2KUMoW0NIM10pKFtDSDNdKUMoPU8pW0NAQEhdKFtDSDJdNilbQ0gzXQ==

>  <s_epik_cmdline>  (109) 
J2VwaWtfcHl0aG9uJywgJy1waHQnLCAnMi4wJywgJy1waCcsICc3LjAnLCAnLXRuJywgJzgnLCAnLW1hJywgJzIwMCcsICctaW1hZScsICc8aW5maWxlLm1hZT4nLCAnLW9tYWUnLCAnPG91dGZpbGUubWFlPic=

>  <r_lp_tautomer_probability>  (109) 
0.99995

>  <r_epik_Ionization_Penalty>  (109) 
0.0605522

>  <r_epik_Ionization_Penalty_Charging>  (109) 
0

>  <r_epik_Ionization_Penalty_Neutral>  (109) 
0.0605522

>  <r_epik_State_Penalty>  (109) 
0.0525027

>  <r_epik_Charging_Adjusted_Penalty>  (109) 
0.0525027

>  <i_epik_Tot_Q>  (109) 
0

>  <i_epik_Tot_abs_Q>  (109) 
0

>  <s_epik_Chemistry_Notes>  (109) 
This compound has an ester and may undergo hydrolysis at high or low pH. This compound contains an acetal/aminal-like group ( X-CH(R)-Y where X, Y are N, S, or O) that may be acid/base labile, releasing an aldehyde.

>  <s_lp_Force_Field>  (109) 
OPLS3e

>  <r_lp_Energy>  (109) 
77.6345

>  <b_lp_Chiralities_Consistent>  (109) 
1

>  <s_lp_Variant>  (109) 
35:0-1

>  <s_i_glide_gridfile>  (109) 
pfpi4k_grid

>  <i_i_glide_lignum>  (109) 
6

>  <i_i_glide_rotatable_bonds>  (109) 
3

>  <r_i_docking_score>  (109) 
-3.09067

>  <r_i_glide_ligand_efficiency>  (109) 
-0.0858518

>  <r_i_glide_ligand_efficiency_sa>  (109) 
-0.283476

>  <r_i_glide_ligand_efficiency_ln>  (109) 
-0.6743

>  <r_i_glide_gscore>  (109) 
-3.09067

>  <r_i_glide_lipo>  (109) 
-0.423897

>  <r_i_glide_hbond>  (109) 
-0.535456

>  <r_i_glide_metal>  (109) 
-0

>  <r_i_glide_rewards>  (109) 
-0.0960621

>  <r_i_glide_evdw>  (109) 
-29.0584

>  <r_i_glide_ecoul>  (109) 
-4.74815

>  <r_i_glide_erotb>  (109) 
0.164766

>  <r_i_glide_esite>  (109) 
-0.0348739

>  <r_i_glide_emodel>  (109) 
-38.7001

>  <r_i_glide_energy>  (109) 
-33.8066

>  <r_i_glide_einternal>  (109) 
1.71741

>  <r_i_glide_intrahb_reward>  (109) 
-0

>  <i_i_glide_confnum>  (109) 
3

>  <i_i_glide_posenum>  (109) 
7

>  <r_i_glide_eff_state_penalty>  (109) 
0

>  <ligand_id>  (109) 
35

>  <original_smiles>  (109) 
Cc1cccc(C2OCC3(CO)CCC45CC(C)C(=O)C(C)(C)C4CCC4(OC(C)OC4=O)C5C23)n1

>  <smiles>  (109) 
[H]OC([H])([H])C12C([H])([H])OC([H])(c3nc(C([H])([H])[H])c([H])c([H])c3[H])C1([H])C1([H])C3(OC([H])(C([H])([H])[H])OC3=O)C([H])([H])C([H])([H])C3([H])C(C([H])([H])[H])(C([H])([H])[H])C(=O)C([H])(C([H])([H])[H])C([H])([H])C13C([H])([H])C2([H])[H]

$$$$
35:0:1
     RDKit          3D

 75 80  0  0  1  0  0  0  0  0999 V2000
    1.9021   -3.1679   -3.2664 C   0  0  0  0  0  0  0  0  0  0  0  0
    3.0187   -2.5020   -2.5060 C   0  0  0  0  0  0  0  0  0  0  0  0
    3.5574   -1.2835   -2.9562 C   0  0  0  0  0  0  0  0  0  0  0  0
    4.5853   -0.6991   -2.2045 C   0  0  0  0  0  0  0  0  0  0  0  0
    5.0356   -1.3453   -1.0384 C   0  0  0  0  0  0  0  0  0  0  0  0
    4.4267   -2.5623   -0.6613 C   0  0  0  0  0  0  0  0  0  0  0  0
    4.9033   -3.3128    0.5874 C   0  0  2  0  0  0  0  0  0  0  0  0
    5.6816   -4.4551    0.2769 O   0  0  0  0  0  0  0  0  0  0  0  0
    4.8480   -5.5827    0.3304 C   0  0  0  0  0  0  0  0  0  0  0  0
    3.8651   -5.3113    1.4890 C   0  0  1  0  0  0  0  0  0  0  0  0
    2.5460   -6.0732    1.1636 C   0  0  0  0  0  0  0  0  0  0  0  0
    1.8158   -5.5028    0.0832 O   0  0  0  0  0  0  0  0  0  0  0  0
    4.4875   -5.8646    2.7912 C   0  0  0  0  0  0  0  0  0  0  0  0
    3.7636   -5.4443    4.0908 C   0  0  0  0  0  0  0  0  0  0  0  0
    3.0959   -4.0239    4.1051 C   0  0  1  0  0  0  0  0  0  0  0  0
    1.5549   -4.0821    3.8258 C   0  0  0  0  0  0  0  0  0  0  0  0
    0.6959   -4.8382    4.8831 C   0  0  1  0  0  0  0  0  0  0  0  0
    0.0412   -6.0976    4.2819 C   0  0  0  0  0  0  0  0  0  0  0  0
    1.4272   -5.1617    6.2086 C   0  0  0  0  0  0  0  0  0  0  0  0
    1.1183   -6.1582    6.8609 O   0  0  0  0  0  0  0  0  0  0  0  0
    2.5227   -4.1908    6.7185 C   0  0  0  0  0  0  0  0  0  0  0  0
    1.8370   -3.2591    7.7483 C   0  0  0  0  0  0  0  0  0  0  0  0
    3.6157   -4.9990    7.4677 C   0  0  0  0  0  0  0  0  0  0  0  0
    3.0964   -3.3491    5.5258 C   0  0  1  0  0  0  0  0  0  0  0  0
    4.3662   -2.5318    5.7770 C   0  0  0  0  0  0  0  0  0  0  0  0
    4.4394   -1.3598    4.7595 C   0  0  0  0  0  0  0  0  0  0  0  0
    3.8110   -1.6299    3.3489 C   0  0  1  0  0  0  0  0  0  0  0  0
    2.4522   -1.2000    3.2852 O   0  0  0  0  0  0  0  0  0  0  0  0
    2.2872   -0.7116    1.9849 C   0  0  1  0  0  0  0  0  0  0  0  0
    1.1986    0.3619    1.9406 C   0  0  0  0  0  0  0  0  0  0  0  0
    3.4890   -0.1845    1.5606 O   0  0  0  0  0  0  0  0  0  0  0  0
    4.4461   -0.6882    2.3240 C   0  0  0  0  0  0  0  0  0  0  0  0
    5.6499   -0.4549    2.2383 O   0  0  0  0  0  0  0  0  0  0  0  0
    3.9129   -3.1747    3.0470 C   0  0  2  0  0  0  0  0  0  0  0  0
    3.7762   -3.7499    1.5751 C   0  0  1  0  0  0  0  0  0  0  0  0
    3.4489   -3.1380   -1.3948 N   0  0  0  0  0  0  0  0  0  0  0  0
    1.6075   -2.5926   -4.1439 H   0  0  0  0  0  0  0  0  0  0  0  0
    1.0352   -3.2734   -2.6138 H   0  0  0  0  0  0  0  0  0  0  0  0
    2.2131   -4.1557   -3.6039 H   0  0  0  0  0  0  0  0  0  0  0  0
    3.1724   -0.7945   -3.8369 H   0  0  0  0  0  0  0  0  0  0  0  0
    5.0139    0.2354   -2.5215 H   0  0  0  0  0  0  0  0  0  0  0  0
    5.8153   -0.9089   -0.4354 H   0  0  0  0  0  0  0  0  0  0  0  0
    5.6338   -2.6892    1.0917 H   0  0  0  0  0  0  0  0  0  0  0  0
    4.3474   -5.6700   -0.6332 H   0  0  0  0  0  0  0  0  0  0  0  0
    5.4427   -6.4881    0.4638 H   0  0  0  0  0  0  0  0  0  0  0  0
    2.7847   -7.1077    0.9113 H   0  0  0  0  0  0  0  0  0  0  0  0
    1.8938   -6.1671    2.0257 H   0  0  0  0  0  0  0  0  0  0  0  0
    2.3774   -5.4663   -0.6822 H   0  0  0  0  0  0  0  0  0  0  0  0
    4.5781   -6.9528    2.7506 H   0  0  0  0  0  0  0  0  0  0  0  0
    5.5126   -5.4990    2.8569 H   0  0  0  0  0  0  0  0  0  0  0  0
    3.0454   -6.2233    4.3322 H   0  0  0  0  0  0  0  0  0  0  0  0
    4.5313   -5.4856    4.8643 H   0  0  0  0  0  0  0  0  0  0  0  0
    1.1447   -3.0757    3.8351 H   0  0  0  0  0  0  0  0  0  0  0  0
    1.3097   -4.3871    2.8159 H   0  0  0  0  0  0  0  0  0  0  0  0
   -0.1227   -4.1781    5.1732 H   0  0  0  0  0  0  0  0  0  0  0  0
   -0.7141   -6.5209    4.9473 H   0  0  0  0  0  0  0  0  0  0  0  0
    0.7807   -6.8730    4.0814 H   0  0  0  0  0  0  0  0  0  0  0  0
   -0.4488   -5.8730    3.3381 H   0  0  0  0  0  0  0  0  0  0  0  0
    2.5344   -2.5391    8.1757 H   0  0  0  0  0  0  0  0  0  0  0  0
    1.4092   -3.8231    8.5801 H   0  0  0  0  0  0  0  0  0  0  0  0
    1.0192   -2.6947    7.2986 H   0  0  0  0  0  0  0  0  0  0  0  0
    4.4473   -4.3693    7.7861 H   0  0  0  0  0  0  0  0  0  0  0  0
    4.0250   -5.8063    6.8654 H   0  0  0  0  0  0  0  0  0  0  0  0
    3.2190   -5.4796    8.3650 H   0  0  0  0  0  0  0  0  0  0  0  0
    2.3762   -2.5360    5.4704 H   0  0  0  0  0  0  0  0  0  0  0  0
    4.3850   -2.1283    6.7937 H   0  0  0  0  0  0  0  0  0  0  0  0
    5.2458   -3.1735    5.7000 H   0  0  0  0  0  0  0  0  0  0  0  0
    3.9758   -0.4749    5.2002 H   0  0  0  0  0  0  0  0  0  0  0  0
    5.4963   -1.1184    4.6686 H   0  0  0  0  0  0  0  0  0  0  0  0
    2.0410   -1.5347    1.3207 H   0  0  0  0  0  0  0  0  0  0  0  0
    1.4318    1.1890    2.6198 H   0  0  0  0  0  0  0  0  0  0  0  0
    0.2433   -0.0855    2.2197 H   0  0  0  0  0  0  0  0  0  0  0  0
    1.1163    0.7437    0.9163 H   0  0  0  0  0  0  0  0  0  0  0  0
    4.9584   -3.3604    3.2926 H   0  0  0  0  0  0  0  0  0  0  0  0
    2.8122   -3.4358    1.1892 H   0  0  0  0  0  0  0  0  0  0  0  0
  1  2  1  0
  1 37  1  0
  1 38  1  0
  1 39  1  0
  2 36  2  0
  2  3  1  0
  3  4  2  0
  3 40  1  0
  4  5  1  0
  4 41  1  0
  5  6  2  0
  5 42  1  0
  6  7  1  0
  6 36  1  0
  7 35  1  0
  7  8  1  0
  7 43  1  1
  8  9  1  0
  9 10  1  0
  9 44  1  0
  9 45  1  0
 10 35  1  0
 10 11  1  6
 10 13  1  0
 11 12  1  0
 11 46  1  0
 11 47  1  0
 12 48  1  0
 13 14  1  0
 13 49  1  0
 13 50  1  0
 15 14  1  1
 14 51  1  0
 14 52  1  0
 15 24  1  0
 15 34  1  0
 15 16  1  0
 16 17  1  0
 16 53  1  0
 16 54  1  0
 17 18  1  0
 17 19  1  0
 17 55  1  1
 18 56  1  0
 18 57  1  0
 18 58  1  0
 19 20  2  0
 19 21  1  0
 21 22  1  0
 21 23  1  0
 21 24  1  0
 22 59  1  0
 22 60  1  0
 22 61  1  0
 23 62  1  0
 23 63  1  0
 23 64  1  0
 24 25  1  0
 24 65  1  6
 25 26  1  0
 25 66  1  0
 25 67  1  0
 26 27  1  0
 26 68  1  0
 26 69  1  0
 27 32  1  0
 27 28  1  1
 27 34  1  0
 28 29  1  0
 29 30  1  0
 29 31  1  0
 29 70  1  6
 30 71  1  0
 30 72  1  0
 30 73  1  0
 31 32  1  0
 32 33  2  0
 34 35  1  0
 34 74  1  1
 35 75  1  6
M  END
>  <i_m_ct_stereo_status>  (110) 
1

>  <s_m_source_file>  (110) 
/var/tmp/pbs.5076255.sched01/tmp06uo9b_r/40lj_pgbub.sdf

>  <i_m_source_file_index>  (110) 
6

>  <i_lp_mmshare_version>  (110) 
48012

>  <i_f3d_flags>  (110) 
0

>  <s_epik_input>  (110) 
W0NIM11jMVtjSF1bY0hdW2NIXWMobjEpW0NAQEhdMk9bQ0gyXVtDQEBdKFtDSDJdW09IXSkoW0NIMl1bQ0gyXTMpW0NASF0yW0NASF00W0NAQF01KE9bQ0BASF0oW0NIM10pT0M1PU8pW0NIMl1bQ0gyXVtDQEBIXShbQ0BdMzQ2KUMoW0NIM10pKFtDSDNdKUMoPU8pW0NAQEhdKFtDSDJdNilbQ0gzXQ==

>  <s_epik_cmdline>  (110) 
J2VwaWtfcHl0aG9uJywgJy1waHQnLCAnMi4wJywgJy1waCcsICc3LjAnLCAnLXRuJywgJzgnLCAnLW1hJywgJzIwMCcsICctaW1hZScsICc8aW5maWxlLm1hZT4nLCAnLW9tYWUnLCAnPG91dGZpbGUubWFlPic=

>  <r_lp_tautomer_probability>  (110) 
0.99995

>  <r_epik_Ionization_Penalty>  (110) 
0.0605522

>  <r_epik_Ionization_Penalty_Charging>  (110) 
0

>  <r_epik_Ionization_Penalty_Neutral>  (110) 
0.0605522

>  <r_epik_State_Penalty>  (110) 
0.0525027

>  <r_epik_Charging_Adjusted_Penalty>  (110) 
0.0525027

>  <i_epik_Tot_Q>  (110) 
0

>  <i_epik_Tot_abs_Q>  (110) 
0

>  <s_epik_Chemistry_Notes>  (110) 
This compound has an ester and may undergo hydrolysis at high or low pH. This compound contains an acetal/aminal-like group ( X-CH(R)-Y where X, Y are N, S, or O) that may be acid/base labile, releasing an aldehyde.

>  <s_lp_Force_Field>  (110) 
OPLS3e

>  <r_lp_Energy>  (110) 
77.6345

>  <b_lp_Chiralities_Consistent>  (110) 
1

>  <s_lp_Variant>  (110) 
35:0-1

>  <s_i_glide_gridfile>  (110) 
pfpi4k_grid

>  <i_i_glide_lignum>  (110) 
6

>  <i_i_glide_rotatable_bonds>  (110) 
3

>  <r_i_docking_score>  (110) 
-3.07701

>  <r_i_glide_ligand_efficiency>  (110) 
-0.0854724

>  <r_i_glide_ligand_efficiency_sa>  (110) 
-0.282224

>  <r_i_glide_ligand_efficiency_ln>  (110) 
-0.67132

>  <r_i_glide_gscore>  (110) 
-3.07701

>  <r_i_glide_lipo>  (110) 
-0.342286

>  <r_i_glide_hbond>  (110) 
-0.458833

>  <r_i_glide_metal>  (110) 
-0

>  <r_i_glide_rewards>  (110) 
-0.114435

>  <r_i_glide_evdw>  (110) 
-30.0328

>  <r_i_glide_ecoul>  (110) 
-5.17345

>  <r_i_glide_erotb>  (110) 
0.164766

>  <r_i_glide_esite>  (110) 
-0.0485638

>  <r_i_glide_emodel>  (110) 
-40.8365

>  <r_i_glide_energy>  (110) 
-35.2062

>  <r_i_glide_einternal>  (110) 
1.68274

>  <r_i_glide_intrahb_reward>  (110) 
-0

>  <i_i_glide_confnum>  (110) 
4

>  <i_i_glide_posenum>  (110) 
36

>  <r_i_glide_eff_state_penalty>  (110) 
0

>  <ligand_id>  (110) 
35

>  <original_smiles>  (110) 
Cc1cccc(C2OCC3(CO)CCC45CC(C)C(=O)C(C)(C)C4CCC4(OC(C)OC4=O)C5C23)n1

>  <smiles>  (110) 
[H]OC([H])([H])C12C([H])([H])OC([H])(c3nc(C([H])([H])[H])c([H])c([H])c3[H])C1([H])C1([H])C3(OC([H])(C([H])([H])[H])OC3=O)C([H])([H])C([H])([H])C3([H])C(C([H])([H])[H])(C([H])([H])[H])C(=O)C([H])(C([H])([H])[H])C([H])([H])C13C([H])([H])C2([H])[H]

$$$$
35:0:2
     RDKit          3D

 75 80  0  0  1  0  0  0  0  0999 V2000
    1.8867   -3.2016   -3.3266 C   0  0  0  0  0  0  0  0  0  0  0  0
    3.0074   -2.5209   -2.5955 C   0  0  0  0  0  0  0  0  0  0  0  0
    3.4938   -1.2704   -3.0665 C   0  0  0  0  0  0  0  0  0  0  0  0
    4.5145   -0.6509   -2.3290 C   0  0  0  0  0  0  0  0  0  0  0  0
    5.0263   -1.2927   -1.1839 C   0  0  0  0  0  0  0  0  0  0  0  0
    4.4581   -2.5406   -0.7901 C   0  0  0  0  0  0  0  0  0  0  0  0
    4.9976   -3.2756    0.4390 C   0  0  2  0  0  0  0  0  0  0  0  0
    5.7523   -4.4297    0.0872 O   0  0  0  0  0  0  0  0  0  0  0  0
    4.9369   -5.5574    0.2115 C   0  0  0  0  0  0  0  0  0  0  0  0
    4.0032   -5.2487    1.4014 C   0  0  1  0  0  0  0  0  0  0  0  0
    2.6902   -6.0505    1.1428 C   0  0  0  0  0  0  0  0  0  0  0  0
    1.8953   -5.4963    0.0829 O   0  0  0  0  0  0  0  0  0  0  0  0
    4.6909   -5.7991    2.6718 C   0  0  0  0  0  0  0  0  0  0  0  0
    4.0287   -5.3742    4.0018 C   0  0  0  0  0  0  0  0  0  0  0  0
    3.3352   -3.9644    4.0327 C   0  0  1  0  0  0  0  0  0  0  0  0
    1.7885   -4.0508    3.8096 C   0  0  0  0  0  0  0  0  0  0  0  0
    0.9832   -4.8072    4.9050 C   0  0  1  0  0  0  0  0  0  0  0  0
    0.3165   -6.0735    4.3384 C   0  0  0  0  0  0  0  0  0  0  0  0
    1.7721   -5.1155    6.1984 C   0  0  0  0  0  0  0  0  0  0  0  0
    1.4913   -6.1092    6.8730 O   0  0  0  0  0  0  0  0  0  0  0  0
    2.8734   -4.1337    6.6626 C   0  0  0  0  0  0  0  0  0  0  0  0
    2.2244   -3.2031    7.7175 C   0  0  0  0  0  0  0  0  0  0  0  0
    3.9990   -4.9230    7.3827 C   0  0  0  0  0  0  0  0  0  0  0  0
    3.3922   -3.2996    5.4473 C   0  0  1  0  0  0  0  0  0  0  0  0
    4.6884   -2.5057    5.6510 C   0  0  0  0  0  0  0  0  0  0  0  0
    4.7500   -1.3241    4.6588 C   0  0  0  0  0  0  0  0  0  0  0  0
    4.0427   -1.5517    3.2806 C   0  0  1  0  0  0  0  0  0  0  0  0
    2.6970   -1.0753    3.3644 O   0  0  0  0  0  0  0  0  0  0  0  0
    2.6340    0.1702    2.7555 C   0  0  1  0  0  0  0  0  0  0  0  0
    2.5932    1.2832    3.8326 C   0  0  0  0  0  0  0  0  0  0  0  0
    3.7608    0.3426    1.9791 O   0  0  0  0  0  0  0  0  0  0  0  0
    4.6417   -0.5652    2.3084 C   0  0  0  0  0  0  0  0  0  0  0  0
    5.8094   -0.5617    1.9496 O   0  0  0  0  0  0  0  0  0  0  0  0
    4.1045   -3.0974    2.9403 C   0  0  2  0  0  0  0  0  0  0  0  0
    3.9018   -3.6787    1.4792 C   0  0  1  0  0  0  0  0  0  0  0  0
    3.4894   -3.1365   -1.5029 N   0  0  0  0  0  0  0  0  0  0  0  0
    1.5447   -2.6347   -4.1913 H   0  0  0  0  0  0  0  0  0  0  0  0
    1.0510   -3.3297   -2.6377 H   0  0  0  0  0  0  0  0  0  0  0  0
    2.2100   -4.1847   -3.6736 H   0  0  0  0  0  0  0  0  0  0  0  0
    3.0688   -0.7966   -3.9308 H   0  0  0  0  0  0  0  0  0  0  0  0
    4.9154    0.2902   -2.6588 H   0  0  0  0  0  0  0  0  0  0  0  0
    5.8092   -0.8531   -0.6041 H   0  0  0  0  0  0  0  0  0  0  0  0
    5.7767   -2.6883    0.9049 H   0  0  0  0  0  0  0  0  0  0  0  0
    4.3927   -5.6589   -0.7238 H   0  0  0  0  0  0  0  0  0  0  0  0
    5.5457   -6.4575    0.3339 H   0  0  0  0  0  0  0  0  0  0  0  0
    2.9546   -7.0833    0.8800 H   0  0  0  0  0  0  0  0  0  0  0  0
    2.0754   -6.1620    2.0313 H   0  0  0  0  0  0  0  0  0  0  0  0
    2.4085   -5.4480   -0.6977 H   0  0  0  0  0  0  0  0  0  0  0  0
    4.7748   -6.8911    2.6398 H   0  0  0  0  0  0  0  0  0  0  0  0
    5.7186   -5.4324    2.6879 H   0  0  0  0  0  0  0  0  0  0  0  0
    3.3200   -6.1569    4.2613 H   0  0  0  0  0  0  0  0  0  0  0  0
    4.8239   -5.4138    4.7502 H   0  0  0  0  0  0  0  0  0  0  0  0
    1.3861   -3.0446    3.8209 H   0  0  0  0  0  0  0  0  0  0  0  0
    1.5095   -4.3638    2.8116 H   0  0  0  0  0  0  0  0  0  0  0  0
    0.1747   -4.1503    5.2225 H   0  0  0  0  0  0  0  0  0  0  0  0
   -0.4046   -6.5008    5.0382 H   0  0  0  0  0  0  0  0  0  0  0  0
    1.0541   -6.8453    4.1193 H   0  0  0  0  0  0  0  0  0  0  0  0
   -0.2127   -5.8615    3.4130 H   0  0  0  0  0  0  0  0  0  0  0  0
    2.9314   -2.4757    8.1143 H   0  0  0  0  0  0  0  0  0  0  0  0
    1.8365   -3.7711    8.5684 H   0  0  0  0  0  0  0  0  0  0  0  0
    1.3810   -2.6508    7.2995 H   0  0  0  0  0  0  0  0  0  0  0  0
    4.8357   -4.2843    7.6659 H   0  0  0  0  0  0  0  0  0  0  0  0
    4.3929   -5.7346    6.7744 H   0  0  0  0  0  0  0  0  0  0  0  0
    3.6392   -5.3976    8.3002 H   0  0  0  0  0  0  0  0  0  0  0  0
    2.6690   -2.4909    5.4215 H   0  0  0  0  0  0  0  0  0  0  0  0
    4.7297   -2.0893    6.6663 H   0  0  0  0  0  0  0  0  0  0  0  0
    5.5686   -3.1479    5.5423 H   0  0  0  0  0  0  0  0  0  0  0  0
    4.2955   -0.4883    5.1887 H   0  0  0  0  0  0  0  0  0  0  0  0
    5.7889   -1.0775    4.4983 H   0  0  0  0  0  0  0  0  0  0  0  0
    1.7614    0.1840    2.1076 H   0  0  0  0  0  0  0  0  0  0  0  0
    3.4652    1.2785    4.4890 H   0  0  0  0  0  0  0  0  0  0  0  0
    1.7055    1.1496    4.4428 H   0  0  0  0  0  0  0  0  0  0  0  0
    2.5586    2.2597    3.3544 H   0  0  0  0  0  0  0  0  0  0  0  0
    5.1521   -3.2864    3.1267 H   0  0  0  0  0  0  0  0  0  0  0  0
    2.9248   -3.3572    1.1289 H   0  0  0  0  0  0  0  0  0  0  0  0
  1  2  1  0
  1 37  1  0
  1 38  1  0
  1 39  1  0
  2 36  2  0
  2  3  1  0
  3  4  2  0
  3 40  1  0
  4  5  1  0
  4 41  1  0
  5  6  2  0
  5 42  1  0
  6  7  1  0
  6 36  1  0
  7 35  1  0
  7  8  1  0
  7 43  1  1
  8  9  1  0
  9 10  1  0
  9 44  1  0
  9 45  1  0
 10 35  1  0
 10 11  1  6
 10 13  1  0
 11 12  1  0
 11 46  1  0
 11 47  1  0
 12 48  1  0
 13 14  1  0
 13 49  1  0
 13 50  1  0
 15 14  1  1
 14 51  1  0
 14 52  1  0
 15 24  1  0
 15 34  1  0
 15 16  1  0
 16 17  1  0
 16 53  1  0
 16 54  1  0
 17 18  1  0
 17 19  1  0
 17 55  1  1
 18 56  1  0
 18 57  1  0
 18 58  1  0
 19 20  2  0
 19 21  1  0
 21 22  1  0
 21 23  1  0
 21 24  1  0
 22 59  1  0
 22 60  1  0
 22 61  1  0
 23 62  1  0
 23 63  1  0
 23 64  1  0
 24 25  1  0
 24 65  1  6
 25 26  1  0
 25 66  1  0
 25 67  1  0
 26 27  1  0
 26 68  1  0
 26 69  1  0
 27 32  1  0
 27 28  1  1
 27 34  1  0
 28 29  1  0
 29 30  1  0
 29 31  1  0
 29 70  1  6
 30 71  1  0
 30 72  1  0
 30 73  1  0
 31 32  1  0
 32 33  2  0
 34 35  1  0
 34 74  1  1
 35 75  1  6
M  END
>  <i_m_ct_stereo_status>  (111) 
1

>  <s_m_source_file>  (111) 
/var/tmp/pbs.5076255.sched01/tmp06uo9b_r/40lj_pgbub.sdf

>  <i_m_source_file_index>  (111) 
6

>  <i_lp_mmshare_version>  (111) 
48012

>  <i_f3d_flags>  (111) 
0

>  <s_epik_input>  (111) 
W0NIM11jMVtjSF1bY0hdW2NIXWMobjEpW0NAQEhdMk9bQ0gyXVtDQEBdKFtDSDJdW09IXSkoW0NIMl1bQ0gyXTMpW0NASF0yW0NASF00W0NAQF01KE9bQ0BASF0oW0NIM10pT0M1PU8pW0NIMl1bQ0gyXVtDQEBIXShbQ0BdMzQ2KUMoW0NIM10pKFtDSDNdKUMoPU8pW0NAQEhdKFtDSDJdNilbQ0gzXQ==

>  <s_epik_cmdline>  (111) 
J2VwaWtfcHl0aG9uJywgJy1waHQnLCAnMi4wJywgJy1waCcsICc3LjAnLCAnLXRuJywgJzgnLCAnLW1hJywgJzIwMCcsICctaW1hZScsICc8aW5maWxlLm1hZT4nLCAnLW9tYWUnLCAnPG91dGZpbGUubWFlPic=

>  <r_lp_tautomer_probability>  (111) 
0.99995

>  <r_epik_Ionization_Penalty>  (111) 
0.0605522

>  <r_epik_Ionization_Penalty_Charging>  (111) 
0

>  <r_epik_Ionization_Penalty_Neutral>  (111) 
0.0605522

>  <r_epik_State_Penalty>  (111) 
0.0525027

>  <r_epik_Charging_Adjusted_Penalty>  (111) 
0.0525027

>  <i_epik_Tot_Q>  (111) 
0

>  <i_epik_Tot_abs_Q>  (111) 
0

>  <s_epik_Chemistry_Notes>  (111) 
This compound has an ester and may undergo hydrolysis at high or low pH. This compound contains an acetal/aminal-like group ( X-CH(R)-Y where X, Y are N, S, or O) that may be acid/base labile, releasing an aldehyde.

>  <s_lp_Force_Field>  (111) 
OPLS3e

>  <r_lp_Energy>  (111) 
77.6345

>  <b_lp_Chiralities_Consistent>  (111) 
1

>  <s_lp_Variant>  (111) 
35:0-1

>  <s_i_glide_gridfile>  (111) 
pfpi4k_grid

>  <i_i_glide_lignum>  (111) 
6

>  <i_i_glide_rotatable_bonds>  (111) 
3

>  <r_i_docking_score>  (111) 
-2.77812

>  <r_i_glide_ligand_efficiency>  (111) 
-0.0771701

>  <r_i_glide_ligand_efficiency_sa>  (111) 
-0.25481

>  <r_i_glide_ligand_efficiency_ln>  (111) 
-0.606111

>  <r_i_glide_gscore>  (111) 
-2.77812

>  <r_i_glide_lipo>  (111) 
-0.356523

>  <r_i_glide_hbond>  (111) 
-0.414014

>  <r_i_glide_metal>  (111) 
-0

>  <r_i_glide_rewards>  (111) 
-0.148345

>  <r_i_glide_evdw>  (111) 
-28.4166

>  <r_i_glide_ecoul>  (111) 
-4.00186

>  <r_i_glide_erotb>  (111) 
0.164766

>  <r_i_glide_esite>  (111) 
-0.00290137

>  <r_i_glide_emodel>  (111) 
-36.9658

>  <r_i_glide_energy>  (111) 
-32.4184

>  <r_i_glide_einternal>  (111) 
1.6177

>  <r_i_glide_intrahb_reward>  (111) 
-0

>  <i_i_glide_confnum>  (111) 
3

>  <i_i_glide_posenum>  (111) 
26

>  <r_i_glide_eff_state_penalty>  (111) 
0

>  <ligand_id>  (111) 
35

>  <original_smiles>  (111) 
Cc1cccc(C2OCC3(CO)CCC45CC(C)C(=O)C(C)(C)C4CCC4(OC(C)OC4=O)C5C23)n1

>  <smiles>  (111) 
[H]OC([H])([H])C12C([H])([H])OC([H])(c3nc(C([H])([H])[H])c([H])c([H])c3[H])C1([H])C1([H])C3(OC([H])(C([H])([H])[H])OC3=O)C([H])([H])C([H])([H])C3([H])C(C([H])([H])[H])(C([H])([H])[H])C(=O)C([H])(C([H])([H])[H])C([H])([H])C13C([H])([H])C2([H])[H]

$$$$
35:1:0
     RDKit          3D

 76 81  0  0  1  0  0  0  0  0999 V2000
    2.6420   -3.8543   -3.9419 C   0  0  0  0  0  0  0  0  0  0  0  0
    3.3577   -2.8704   -3.0701 C   0  0  0  0  0  0  0  0  0  0  0  0
    3.4190   -1.5169   -3.3958 C   0  0  0  0  0  0  0  0  0  0  0  0
    4.1326   -0.6721   -2.5308 C   0  0  0  0  0  0  0  0  0  0  0  0
    4.7484   -1.2116   -1.3742 C   0  0  0  0  0  0  0  0  0  0  0  0
    4.6104   -2.5937   -1.0885 C   0  0  0  0  0  0  0  0  0  0  0  0
    5.2435   -3.2655    0.1426 C   0  0  2  0  0  0  0  0  0  0  0  0
    5.9852   -4.4190   -0.2202 O   0  0  0  0  0  0  0  0  0  0  0  0
    5.2412   -5.5772    0.0436 C   0  0  0  0  0  0  0  0  0  0  0  0
    4.3946   -5.2457    1.2877 C   0  0  1  0  0  0  0  0  0  0  0  0
    3.0987   -6.0955    1.1731 C   0  0  0  0  0  0  0  0  0  0  0  0
    2.2274   -5.5969    0.1659 O   0  0  0  0  0  0  0  0  0  0  0  0
    5.1968   -5.6718    2.5372 C   0  0  0  0  0  0  0  0  0  0  0  0
    4.6072   -5.1961    3.8785 C   0  0  0  0  0  0  0  0  0  0  0  0
    3.8527   -3.8199    3.8758 C   0  0  1  0  0  0  0  0  0  0  0  0
    2.2980   -3.9746    3.7741 C   0  0  0  0  0  0  0  0  0  0  0  0
    1.6058   -4.6876    4.9765 C   0  0  1  0  0  0  0  0  0  0  0  0
    0.9478   -6.0121    4.5419 C   0  0  0  0  0  0  0  0  0  0  0  0
    2.5073   -4.8788    6.2184 C   0  0  0  0  0  0  0  0  0  0  0  0
    2.3451   -5.8508    6.9636 O   0  0  0  0  0  0  0  0  0  0  0  0
    3.5904   -3.8227    6.5405 C   0  0  0  0  0  0  0  0  0  0  0  0
    2.9716   -2.8521    7.5766 C   0  0  0  0  0  0  0  0  0  0  0  0
    4.8093   -4.5110    7.2085 C   0  0  0  0  0  0  0  0  0  0  0  0
    3.9809   -3.0463    5.2401 C   0  0  1  0  0  0  0  0  0  0  0  0
    5.2353   -2.1748    5.3025 C   0  0  0  0  0  0  0  0  0  0  0  0
    5.1498   -1.0733    4.2319 C   0  0  0  0  0  0  0  0  0  0  0  0
    4.3422   -1.4366    2.9481 C   0  0  1  0  0  0  0  0  0  0  0  0
    2.9689   -1.0203    3.0735 O   0  0  0  0  0  0  0  0  0  0  0  0
    2.8397    0.1995    2.3894 C   0  0  1  0  0  0  0  0  0  0  0  0
    2.8423    1.3745    3.3978 C   0  0  0  0  0  0  0  0  0  0  0  0
    3.9081    0.3443    1.5197 O   0  0  0  0  0  0  0  0  0  0  0  0
    4.8530   -0.5149    1.8686 C   0  0  0  0  0  0  0  0  0  0  0  0
    5.9935   -0.5464    1.4318 O   0  0  0  0  0  0  0  0  0  0  0  0
    4.4808   -2.9915    2.6852 C   0  0  2  0  0  0  0  0  0  0  0  0
    4.2278   -3.6763    1.2659 C   0  0  1  0  0  0  0  0  0  0  0  0
    3.9271   -3.3718   -1.9626 N   0  0  0  0  0  0  0  0  0  0  0  0
    2.1579   -3.3480   -4.7810 H   0  0  0  0  0  0  0  0  0  0  0  0
    1.8137   -4.2825   -3.3447 H   0  0  0  0  0  0  0  0  0  0  0  0
    3.3312   -4.6071   -4.3248 H   0  0  0  0  0  0  0  0  0  0  0  0
    2.9378   -1.1045   -4.2701 H   0  0  0  0  0  0  0  0  0  0  0  0
    4.1990    0.3839   -2.7549 H   0  0  0  0  0  0  0  0  0  0  0  0
    5.3259   -0.5499   -0.7378 H   0  0  0  0  0  0  0  0  0  0  0  0
    6.0494   -2.6441    0.5277 H   0  0  0  0  0  0  0  0  0  0  0  0
    4.6366   -5.7718   -0.8396 H   0  0  0  0  0  0  0  0  0  0  0  0
    5.9050   -6.4374    0.1728 H   0  0  0  0  0  0  0  0  0  0  0  0
    3.3606   -7.1309    0.9521 H   0  0  0  0  0  0  0  0  0  0  0  0
    2.5675   -6.1794    2.1139 H   0  0  0  0  0  0  0  0  0  0  0  0
    2.6092   -5.7814   -0.6824 H   0  0  0  0  0  0  0  0  0  0  0  0
    5.3568   -6.7532    2.5581 H   0  0  0  0  0  0  0  0  0  0  0  0
    6.1958   -5.2502    2.4552 H   0  0  0  0  0  0  0  0  0  0  0  0
    3.9654   -5.9903    4.2434 H   0  0  0  0  0  0  0  0  0  0  0  0
    5.4569   -5.1399    4.5645 H   0  0  0  0  0  0  0  0  0  0  0  0
    1.8417   -2.9879    3.7555 H   0  0  0  0  0  0  0  0  0  0  0  0
    1.9565   -4.3727    2.8234 H   0  0  0  0  0  0  0  0  0  0  0  0
    0.7949   -4.0453    5.3235 H   0  0  0  0  0  0  0  0  0  0  0  0
    0.3099   -6.4240    5.3267 H   0  0  0  0  0  0  0  0  0  0  0  0
    1.6986   -6.7659    4.3021 H   0  0  0  0  0  0  0  0  0  0  0  0
    0.3247   -5.8698    3.6592 H   0  0  0  0  0  0  0  0  0  0  0  0
    3.6686   -2.0676    7.8718 H   0  0  0  0  0  0  0  0  0  0  0  0
    2.6700   -3.3737    8.4866 H   0  0  0  0  0  0  0  0  0  0  0  0
    2.0779   -2.3641    7.1882 H   0  0  0  0  0  0  0  0  0  0  0  0
    5.6336   -3.8178    7.3782 H   0  0  0  0  0  0  0  0  0  0  0  0
    5.1914   -5.3387    6.6197 H   0  0  0  0  0  0  0  0  0  0  0  0
    4.5480   -4.9412    8.1770 H   0  0  0  0  0  0  0  0  0  0  0  0
    3.2112   -2.2770    5.2142 H   0  0  0  0  0  0  0  0  0  0  0  0
    5.3247   -1.6760    6.2738 H   0  0  0  0  0  0  0  0  0  0  0  0
    6.1302   -2.7830    5.1776 H   0  0  0  0  0  0  0  0  0  0  0  0
    4.7059   -0.2181    4.7283 H   0  0  0  0  0  0  0  0  0  0  0  0
    6.1532   -0.7495    3.9679 H   0  0  0  0  0  0  0  0  0  0  0  0
    1.9264    0.1674    1.7965 H   0  0  0  0  0  0  0  0  0  0  0  0
    3.7640    1.4332    3.9930 H   0  0  0  0  0  0  0  0  0  0  0  0
    1.9932    1.2446    4.0755 H   0  0  0  0  0  0  0  0  0  0  0  0
    2.7420    2.3179    2.8648 H   0  0  0  0  0  0  0  0  0  0  0  0
    5.5537   -3.1138    2.8129 H   0  0  0  0  0  0  0  0  0  0  0  0
    3.2182   -3.4145    0.9541 H   0  0  0  0  0  0  0  0  0  0  0  0
    3.8576   -4.3782   -1.7941 H   0  0  0  0  0  0  0  0  0  0  0  0
  1  2  1  0
  1 37  1  0
  1 38  1  0
  1 39  1  0
  2 36  2  0
  2  3  1  0
  3  4  2  0
  3 40  1  0
  4  5  1  0
  4 41  1  0
  5  6  2  0
  5 42  1  0
  6  7  1  0
  6 36  1  0
  7 35  1  0
  7  8  1  0
  7 43  1  1
  8  9  1  0
  9 10  1  0
  9 44  1  0
  9 45  1  0
 10 35  1  0
 10 11  1  6
 10 13  1  0
 11 12  1  0
 11 46  1  0
 11 47  1  0
 12 48  1  0
 13 14  1  0
 13 49  1  0
 13 50  1  0
 15 14  1  1
 14 51  1  0
 14 52  1  0
 15 24  1  0
 15 34  1  0
 15 16  1  0
 16 17  1  0
 16 53  1  0
 16 54  1  0
 17 18  1  0
 17 19  1  0
 17 55  1  1
 18 56  1  0
 18 57  1  0
 18 58  1  0
 19 20  2  0
 19 21  1  0
 21 22  1  0
 21 23  1  0
 21 24  1  0
 22 59  1  0
 22 60  1  0
 22 61  1  0
 23 62  1  0
 23 63  1  0
 23 64  1  0
 24 25  1  0
 24 65  1  6
 25 26  1  0
 25 66  1  0
 25 67  1  0
 26 27  1  0
 26 68  1  0
 26 69  1  0
 27 32  1  0
 27 28  1  1
 27 34  1  0
 28 29  1  0
 29 30  1  0
 29 31  1  0
 29 70  1  6
 30 71  1  0
 30 72  1  0
 30 73  1  0
 31 32  1  0
 32 33  2  0
 34 35  1  0
 34 74  1  1
 35 75  1  6
 36 76  1  0
M  CHG  1  36   1
M  END
>  <i_m_ct_stereo_status>  (112) 
1

>  <s_m_source_file>  (112) 
/var/tmp/pbs.5076255.sched01/tmp06uo9b_r/40lj_pgbub.sdf

>  <i_m_source_file_index>  (112) 
7

>  <i_lp_mmshare_version>  (112) 
48012

>  <i_f3d_flags>  (112) 
0

>  <s_epik_input>  (112) 
W0NIM11jMVtjSF1bY0hdW2NIXWMobjEpW0NAQEhdMk9bQ0gyXVtDQEBdKFtDSDJdW09IXSkoW0NIMl1bQ0gyXTMpW0NASF0yW0NASF00W0NAQF01KE9bQ0BASF0oW0NIM10pT0M1PU8pW0NIMl1bQ0gyXVtDQEBIXShbQ0BdMzQ2KUMoW0NIM10pKFtDSDNdKUMoPU8pW0NAQEhdKFtDSDJdNilbQ0gzXQ==

>  <s_epik_cmdline>  (112) 
J2VwaWtfcHl0aG9uJywgJy1waHQnLCAnMi4wJywgJy1waCcsICc3LjAnLCAnLXRuJywgJzgnLCAnLW1hJywgJzIwMCcsICctaW1hZScsICc8aW5maWxlLm1hZT4nLCAnLW9tYWUnLCAnPG91dGZpbGUubWFlPic=

>  <r_lp_tautomer_probability>  (112) 
0.99995

>  <r_epik_Ionization_Penalty>  (112) 
1.38137

>  <r_epik_Ionization_Penalty_Charging>  (112) 
1.38137

>  <r_epik_Ionization_Penalty_Neutral>  (112) 
8.99569e-08

>  <r_epik_State_Penalty>  (112) 
1.46192

>  <r_epik_Charging_Adjusted_Penalty>  (112) 
2.8433

>  <i_epik_Tot_Q>  (112) 
1

>  <i_epik_Tot_abs_Q>  (112) 
1

>  <s_epik_Chemistry_Notes>  (112) 
This compound has an ester and may undergo hydrolysis at high or low pH. This compound contains an acetal/aminal-like group ( X-CH(R)-Y where X, Y are N, S, or O) that may be acid/base labile, releasing an aldehyde.

>  <s_lp_Force_Field>  (112) 
OPLS3e

>  <r_lp_Energy>  (112) 
82.8837

>  <b_lp_Chiralities_Consistent>  (112) 
1

>  <s_lp_Variant>  (112) 
35:0-2

>  <s_i_glide_gridfile>  (112) 
pfpi4k_grid

>  <i_i_glide_lignum>  (112) 
7

>  <i_i_glide_rotatable_bonds>  (112) 
3

>  <r_i_docking_score>  (112) 
-3.4473

>  <r_i_glide_ligand_efficiency>  (112) 
-0.0957584

>  <r_i_glide_ligand_efficiency_sa>  (112) 
-0.316187

>  <r_i_glide_ligand_efficiency_ln>  (112) 
-0.752108

>  <r_i_glide_gscore>  (112) 
-3.4473

>  <r_i_glide_lipo>  (112) 
-0.607136

>  <r_i_glide_hbond>  (112) 
-0.373269

>  <r_i_glide_metal>  (112) 
-0

>  <r_i_glide_rewards>  (112) 
-0.210016

>  <r_i_glide_evdw>  (112) 
-24.4268

>  <r_i_glide_ecoul>  (112) 
-7.856

>  <r_i_glide_erotb>  (112) 
0.164156

>  <r_i_glide_esite>  (112) 
-0.0212978

>  <r_i_glide_emodel>  (112) 
-38.4838

>  <r_i_glide_energy>  (112) 
-32.2828

>  <r_i_glide_einternal>  (112) 
0.645835

>  <r_i_glide_intrahb_reward>  (112) 
-0

>  <i_i_glide_confnum>  (112) 
3

>  <i_i_glide_posenum>  (112) 
34

>  <r_i_glide_eff_state_penalty>  (112) 
0

>  <ligand_id>  (112) 
35

>  <original_smiles>  (112) 
Cc1cccc(C2OCC3(CO)CCC45CC(C)C(=O)C(C)(C)C4CCC4(OC(C)OC4=O)C5C23)n1

>  <smiles>  (112) 
[H]OC([H])([H])C12C([H])([H])OC([H])(c3c([H])c([H])c([H])c(C([H])([H])[H])[n+]3[H])C1([H])C1([H])C3(OC([H])(C([H])([H])[H])OC3=O)C([H])([H])C([H])([H])C3([H])C(C([H])([H])[H])(C([H])([H])[H])C(=O)C([H])(C([H])([H])[H])C([H])([H])C13C([H])([H])C2([H])[H]

$$$$
35:1:1
     RDKit          3D

 76 81  0  0  1  0  0  0  0  0999 V2000
    2.5960   -3.8446   -3.9176 C   0  0  0  0  0  0  0  0  0  0  0  0
    3.3649   -2.8866   -3.0717 C   0  0  0  0  0  0  0  0  0  0  0  0
    3.4253   -1.5089   -3.4049 C   0  0  0  0  0  0  0  0  0  0  0  0
    4.1549   -0.6584   -2.5581 C   0  0  0  0  0  0  0  0  0  0  0  0
    4.7965   -1.1816   -1.4154 C   0  0  0  0  0  0  0  0  0  0  0  0
    4.6634   -2.5687   -1.1153 C   0  0  0  0  0  0  0  0  0  0  0  0
    5.3302   -3.1924    0.1136 C   0  0  2  0  0  0  0  0  0  0  0  0
    6.1961   -4.2467   -0.2727 O   0  0  0  0  0  0  0  0  0  0  0  0
    5.5606   -5.4761   -0.0594 C   0  0  0  0  0  0  0  0  0  0  0  0
    4.6680   -5.2936    1.1788 C   0  0  1  0  0  0  0  0  0  0  0  0
    3.4770   -6.2749    0.9783 C   0  0  0  0  0  0  0  0  0  0  0  0
    3.9366   -7.6158    0.8614 O   0  0  0  0  0  0  0  0  0  0  0  0
    5.4813   -5.6649    2.4370 C   0  0  0  0  0  0  0  0  0  0  0  0
    4.7960   -5.3028    3.7627 C   0  0  0  0  0  0  0  0  0  0  0  0
    3.9033   -4.0084    3.7765 C   0  0  1  0  0  0  0  0  0  0  0  0
    2.3712   -4.3022    3.6276 C   0  0  0  0  0  0  0  0  0  0  0  0
    1.7252   -5.1346    4.7761 C   0  0  1  0  0  0  0  0  0  0  0  0
    1.2199   -6.5033    4.2774 C   0  0  0  0  0  0  0  0  0  0  0  0
    2.6080   -5.2793    6.0418 C   0  0  0  0  0  0  0  0  0  0  0  0
    2.5255   -6.2902    6.7489 O   0  0  0  0  0  0  0  0  0  0  0  0
    3.5750   -4.1332    6.4283 C   0  0  0  0  0  0  0  0  0  0  0  0
    2.8326   -3.2692    7.4765 C   0  0  0  0  0  0  0  0  0  0  0  0
    4.8357   -4.7224    7.1126 C   0  0  0  0  0  0  0  0  0  0  0  0
    3.9168   -3.2766    5.1673 C   0  0  1  0  0  0  0  0  0  0  0  0
    5.0735   -2.2914    5.2874 C   0  0  0  0  0  0  0  0  0  0  0  0
    4.9133   -1.1622    4.2552 C   0  0  0  0  0  0  0  0  0  0  0  0
    4.2070   -1.5465    2.9260 C   0  0  1  0  0  0  0  0  0  0  0  0
    2.7666   -1.2976    3.0317 O   0  0  0  0  0  0  0  0  0  0  0  0
    2.5353   -0.0419    2.3956 C   0  0  1  0  0  0  0  0  0  0  0  0
    2.3872    1.0812    3.4414 C   0  0  0  0  0  0  0  0  0  0  0  0
    3.6258    0.2504    1.5554 O   0  0  0  0  0  0  0  0  0  0  0  0
    4.6454   -0.5215    1.8985 C   0  0  0  0  0  0  0  0  0  0  0  0
    5.7862   -0.4019    1.4912 O   0  0  0  0  0  0  0  0  0  0  0  0
    4.4770   -3.0803    2.6209 C   0  0  2  0  0  0  0  0  0  0  0  0
    4.3276   -3.7572    1.1806 C   0  0  1  0  0  0  0  0  0  0  0  0
    3.9647   -3.3485   -1.9638 N   0  0  0  0  0  0  0  0  0  0  0  0
    2.1189   -3.3424   -4.7354 H   0  0  0  0  0  0  0  0  0  0  0  0
    1.8136   -4.2630   -3.3060 H   0  0  0  0  0  0  0  0  0  0  0  0
    3.2799   -4.6233   -4.2982 H   0  0  0  0  0  0  0  0  0  0  0  0
    2.9141   -1.1128   -4.2712 H   0  0  0  0  0  0  0  0  0  0  0  0
    4.2183    0.3921   -2.7818 H   0  0  0  0  0  0  0  0  0  0  0  0
    5.3765   -0.5270   -0.7796 H   0  0  0  0  0  0  0  0  0  0  0  0
    6.0427   -2.4869    0.5489 H   0  0  0  0  0  0  0  0  0  0  0  0
    4.9867   -5.7033   -0.9575 H   0  0  0  0  0  0  0  0  0  0  0  0
    6.3130   -6.2554    0.0776 H   0  0  0  0  0  0  0  0  0  0  0  0
    2.8017   -6.3151    1.8197 H   0  0  0  0  0  0  0  0  0  0  0  0
    2.9003   -6.0098    0.0916 H   0  0  0  0  0  0  0  0  0  0  0  0
    4.2402   -7.9070    1.7043 H   0  0  0  0  0  0  0  0  0  0  0  0
    5.7607   -6.7211    2.4397 H   0  0  0  0  0  0  0  0  0  0  0  0
    6.4300   -5.1369    2.3903 H   0  0  0  0  0  0  0  0  0  0  0  0
    4.2214   -6.1661    4.0688 H   0  0  0  0  0  0  0  0  0  0  0  0
    5.6138   -5.1871    4.4828 H   0  0  0  0  0  0  0  0  0  0  0  0
    1.8253   -3.3640    3.6447 H   0  0  0  0  0  0  0  0  0  0  0  0
    2.0742   -4.6703    2.6495 H   0  0  0  0  0  0  0  0  0  0  0  0
    0.8456   -4.5926    5.1238 H   0  0  0  0  0  0  0  0  0  0  0  0
    0.6069   -7.0060    5.0294 H   0  0  0  0  0  0  0  0  0  0  0  0
    2.0482   -7.1693    4.0347 H   0  0  0  0  0  0  0  0  0  0  0  0
    0.6075   -6.3945    3.3839 H   0  0  0  0  0  0  0  0  0  0  0  0
    3.4394   -2.4312    7.8190 H   0  0  0  0  0  0  0  0  0  0  0  0
    2.5614   -3.8530    8.3584 H   0  0  0  0  0  0  0  0  0  0  0  0
    1.9045   -2.8604    7.0775 H   0  0  0  0  0  0  0  0  0  0  0  0
    5.5793   -3.9574    7.3296 H   0  0  0  0  0  0  0  0  0  0  0  0
    5.3122   -5.4877    6.5120 H   0  0  0  0  0  0  0  0  0  0  0  0
    4.5889   -5.2093    8.0582 H   0  0  0  0  0  0  0  0  0  0  0  0
    3.0770   -2.5879    5.1441 H   0  0  0  0  0  0  0  0  0  0  0  0
    5.0897   -1.8234    6.2847 H   0  0  0  0  0  0  0  0  0  0  0  0
    6.0304   -2.8019    5.1704 H   0  0  0  0  0  0  0  0  0  0  0  0
    4.3679   -0.3739    4.7644 H   0  0  0  0  0  0  0  0  0  0  0  0
    5.8839   -0.7618    4.0338 H   0  0  0  0  0  0  0  0  0  0  0  0
    1.6515   -0.1733    1.7627 H   0  0  0  0  0  0  0  0  0  0  0  0
    3.2842    1.1963    4.0601 H   0  0  0  0  0  0  0  0  0  0  0  0
    1.5414    0.8251    4.0791 H   0  0  0  0  0  0  0  0  0  0  0  0
    2.2012    2.0056    2.9289 H   0  0  0  0  0  0  0  0  0  0  0  0
    5.5446   -3.0996    2.7822 H   0  0  0  0  0  0  0  0  0  0  0  0
    3.3063   -3.6193    0.8387 H   0  0  0  0  0  0  0  0  0  0  0  0
    3.8893   -4.3598   -1.7763 H   0  0  0  0  0  0  0  0  0  0  0  0
  1  2  1  0
  1 37  1  0
  1 38  1  0
  1 39  1  0
  2 36  2  0
  2  3  1  0
  3  4  2  0
  3 40  1  0
  4  5  1  0
  4 41  1  0
  5  6  2  0
  5 42  1  0
  6  7  1  0
  6 36  1  0
  7 35  1  0
  7  8  1  0
  7 43  1  1
  8  9  1  0
  9 10  1  0
  9 44  1  0
  9 45  1  0
 10 35  1  0
 10 11  1  6
 10 13  1  0
 11 12  1  0
 11 46  1  0
 11 47  1  0
 12 48  1  0
 13 14  1  0
 13 49  1  0
 13 50  1  0
 15 14  1  1
 14 51  1  0
 14 52  1  0
 15 24  1  0
 15 34  1  0
 15 16  1  0
 16 17  1  0
 16 53  1  0
 16 54  1  0
 17 18  1  0
 17 19  1  0
 17 55  1  1
 18 56  1  0
 18 57  1  0
 18 58  1  0
 19 20  2  0
 19 21  1  0
 21 22  1  0
 21 23  1  0
 21 24  1  0
 22 59  1  0
 22 60  1  0
 22 61  1  0
 23 62  1  0
 23 63  1  0
 23 64  1  0
 24 25  1  0
 24 65  1  6
 25 26  1  0
 25 66  1  0
 25 67  1  0
 26 27  1  0
 26 68  1  0
 26 69  1  0
 27 32  1  0
 27 28  1  1
 27 34  1  0
 28 29  1  0
 29 30  1  0
 29 31  1  0
 29 70  1  6
 30 71  1  0
 30 72  1  0
 30 73  1  0
 31 32  1  0
 32 33  2  0
 34 35  1  0
 34 74  1  1
 35 75  1  6
 36 76  1  0
M  CHG  1  36   1
M  END
>  <i_m_ct_stereo_status>  (113) 
1

>  <s_m_source_file>  (113) 
/var/tmp/pbs.5076255.sched01/tmp06uo9b_r/40lj_pgbub.sdf

>  <i_m_source_file_index>  (113) 
7

>  <i_lp_mmshare_version>  (113) 
48012

>  <i_f3d_flags>  (113) 
0

>  <s_epik_input>  (113) 
W0NIM11jMVtjSF1bY0hdW2NIXWMobjEpW0NAQEhdMk9bQ0gyXVtDQEBdKFtDSDJdW09IXSkoW0NIMl1bQ0gyXTMpW0NASF0yW0NASF00W0NAQF01KE9bQ0BASF0oW0NIM10pT0M1PU8pW0NIMl1bQ0gyXVtDQEBIXShbQ0BdMzQ2KUMoW0NIM10pKFtDSDNdKUMoPU8pW0NAQEhdKFtDSDJdNilbQ0gzXQ==

>  <s_epik_cmdline>  (113) 
J2VwaWtfcHl0aG9uJywgJy1waHQnLCAnMi4wJywgJy1waCcsICc3LjAnLCAnLXRuJywgJzgnLCAnLW1hJywgJzIwMCcsICctaW1hZScsICc8aW5maWxlLm1hZT4nLCAnLW9tYWUnLCAnPG91dGZpbGUubWFlPic=

>  <r_lp_tautomer_probability>  (113) 
0.99995

>  <r_epik_Ionization_Penalty>  (113) 
1.38137

>  <r_epik_Ionization_Penalty_Charging>  (113) 
1.38137

>  <r_epik_Ionization_Penalty_Neutral>  (113) 
8.99569e-08

>  <r_epik_State_Penalty>  (113) 
1.46192

>  <r_epik_Charging_Adjusted_Penalty>  (113) 
2.8433

>  <i_epik_Tot_Q>  (113) 
1

>  <i_epik_Tot_abs_Q>  (113) 
1

>  <s_epik_Chemistry_Notes>  (113) 
This compound has an ester and may undergo hydrolysis at high or low pH. This compound contains an acetal/aminal-like group ( X-CH(R)-Y where X, Y are N, S, or O) that may be acid/base labile, releasing an aldehyde.

>  <s_lp_Force_Field>  (113) 
OPLS3e

>  <r_lp_Energy>  (113) 
82.8837

>  <b_lp_Chiralities_Consistent>  (113) 
1

>  <s_lp_Variant>  (113) 
35:0-2

>  <s_i_glide_gridfile>  (113) 
pfpi4k_grid

>  <i_i_glide_lignum>  (113) 
7

>  <i_i_glide_rotatable_bonds>  (113) 
3

>  <r_i_docking_score>  (113) 
-3.0173

>  <r_i_glide_ligand_efficiency>  (113) 
-0.0838139

>  <r_i_glide_ligand_efficiency_sa>  (113) 
-0.276748

>  <r_i_glide_ligand_efficiency_ln>  (113) 
-0.658294

>  <r_i_glide_gscore>  (113) 
-3.0173

>  <r_i_glide_lipo>  (113) 
-0.629804

>  <r_i_glide_hbond>  (113) 
-0.172453

>  <r_i_glide_metal>  (113) 
-0

>  <r_i_glide_rewards>  (113) 
-0.164351

>  <r_i_glide_evdw>  (113) 
-26.4834

>  <r_i_glide_ecoul>  (113) 
-5.71703

>  <r_i_glide_erotb>  (113) 
0.164156

>  <r_i_glide_esite>  (113) 
-0.0331271

>  <r_i_glide_emodel>  (113) 
-37.5352

>  <r_i_glide_energy>  (113) 
-32.2004

>  <r_i_glide_einternal>  (113) 
0.369663

>  <r_i_glide_intrahb_reward>  (113) 
-0

>  <i_i_glide_confnum>  (113) 
1

>  <i_i_glide_posenum>  (113) 
7

>  <r_i_glide_eff_state_penalty>  (113) 
0

>  <ligand_id>  (113) 
35

>  <original_smiles>  (113) 
Cc1cccc(C2OCC3(CO)CCC45CC(C)C(=O)C(C)(C)C4CCC4(OC(C)OC4=O)C5C23)n1

>  <smiles>  (113) 
[H]OC([H])([H])C12C([H])([H])OC([H])(c3c([H])c([H])c([H])c(C([H])([H])[H])[n+]3[H])C1([H])C1([H])C3(OC([H])(C([H])([H])[H])OC3=O)C([H])([H])C([H])([H])C3([H])C(C([H])([H])[H])(C([H])([H])[H])C(=O)C([H])(C([H])([H])[H])C([H])([H])C13C([H])([H])C2([H])[H]

$$$$
35:1:2
     RDKit          3D

 76 81  0  0  1  0  0  0  0  0999 V2000
   -1.8181    2.8675    2.9733 C   0  0  0  0  0  0  0  0  0  0  0  0
   -1.3009    2.4070    4.3153 C   0  0  0  0  0  0  0  0  0  0  0  0
   -2.0418    2.5875    5.5066 C   0  0  0  0  0  0  0  0  0  0  0  0
   -1.4972    2.1399    6.7279 C   0  0  0  0  0  0  0  0  0  0  0  0
   -0.2294    1.5268    6.7256 C   0  0  0  0  0  0  0  0  0  0  0  0
    0.4630    1.3483    5.5012 C   0  0  0  0  0  0  0  0  0  0  0  0
    1.8504    0.7126    5.4375 C   0  0  2  0  0  0  0  0  0  0  0  0
    2.8423    1.6807    5.1474 O   0  0  0  0  0  0  0  0  0  0  0  0
    3.1911    1.5928    3.8008 C   0  0  0  0  0  0  0  0  0  0  0  0
    3.0276    0.1038    3.4158 C   0  0  1  0  0  0  0  0  0  0  0  0
    2.6603    0.0831    1.9058 C   0  0  0  0  0  0  0  0  0  0  0  0
    1.3196    0.5061    1.6811 O   0  0  0  0  0  0  0  0  0  0  0  0
    4.3831   -0.6030    3.6347 C   0  0  0  0  0  0  0  0  0  0  0  0
    4.3346   -2.1425    3.5354 C   0  0  0  0  0  0  0  0  0  0  0  0
    3.0049   -2.8463    3.9962 C   0  0  1  0  0  0  0  0  0  0  0  0
    2.0571   -3.1936    2.7982 C   0  0  0  0  0  0  0  0  0  0  0  0
    2.6045   -4.2367    1.7770 C   0  0  1  0  0  0  0  0  0  0  0  0
    2.7867   -3.6132    0.3797 C   0  0  0  0  0  0  0  0  0  0  0  0
    3.8726   -4.9851    2.2411 C   0  0  0  0  0  0  0  0  0  0  0  0
    4.7111   -5.3663    1.4092 O   0  0  0  0  0  0  0  0  0  0  0  0
    4.0717   -5.2883    3.7433 C   0  0  0  0  0  0  0  0  0  0  0  0
    3.5624   -6.7311    3.9824 C   0  0  0  0  0  0  0  0  0  0  0  0
    5.5828   -5.2683    4.0833 C   0  0  0  0  0  0  0  0  0  0  0  0
    3.2482   -4.2733    4.5990 C   0  0  1  0  0  0  0  0  0  0  0  0
    3.5532   -4.2175    6.0977 C   0  0  0  0  0  0  0  0  0  0  0  0
    2.3423   -3.6598    6.8654 C   0  0  0  0  0  0  0  0  0  0  0  0
    1.4602   -2.6439    6.0923 C   0  0  1  0  0  0  0  0  0  0  0  0
    0.3907   -3.3536    5.4297 O   0  0  0  0  0  0  0  0  0  0  0  0
   -0.7565   -3.2208    6.2347 C   0  0  1  0  0  0  0  0  0  0  0  0
   -1.0286   -4.5121    7.0203 C   0  0  0  0  0  0  0  0  0  0  0  0
   -0.5867   -2.1890    7.1336 O   0  0  0  0  0  0  0  0  0  0  0  0
    0.7060   -1.8567    7.1467 C   0  0  0  0  0  0  0  0  0  0  0  0
    1.2083   -1.0978    7.9668 O   0  0  0  0  0  0  0  0  0  0  0  0
    2.3652   -1.8616    5.0650 C   0  0  2  0  0  0  0  0  0  0  0  0
    1.9603   -0.4706    4.4225 C   0  0  1  0  0  0  0  0  0  0  0  0
   -0.0940    1.8125    4.3618 N   0  0  0  0  0  0  0  0  0  0  0  0
   -2.8017    3.3311    3.0618 H   0  0  0  0  0  0  0  0  0  0  0  0
   -1.8975    2.0192    2.2921 H   0  0  0  0  0  0  0  0  0  0  0  0
   -1.1324    3.5953    2.5374 H   0  0  0  0  0  0  0  0  0  0  0  0
   -3.0119    3.0620    5.4932 H   0  0  0  0  0  0  0  0  0  0  0  0
   -2.0365    2.2778    7.6550 H   0  0  0  0  0  0  0  0  0  0  0  0
    0.2149    1.2220    7.6616 H   0  0  0  0  0  0  0  0  0  0  0  0
    2.1805    0.4197    6.4326 H   0  0  0  0  0  0  0  0  0  0  0  0
    2.5135    2.2467    3.2520 H   0  0  0  0  0  0  0  0  0  0  0  0
    4.2082    1.9781    3.7012 H   0  0  0  0  0  0  0  0  0  0  0  0
    3.3501    0.7230    1.3524 H   0  0  0  0  0  0  0  0  0  0  0  0
    2.8126   -0.8889    1.4464 H   0  0  0  0  0  0  0  0  0  0  0  0
    1.0758    0.2745    0.7893 H   0  0  0  0  0  0  0  0  0  0  0  0
    5.1531   -0.2106    2.9629 H   0  0  0  0  0  0  0  0  0  0  0  0
    4.7324   -0.3541    4.6346 H   0  0  0  0  0  0  0  0  0  0  0  0
    4.5691   -2.4001    2.5090 H   0  0  0  0  0  0  0  0  0  0  0  0
    5.1672   -2.5027    4.1492 H   0  0  0  0  0  0  0  0  0  0  0  0
    1.1546   -3.6507    3.1895 H   0  0  0  0  0  0  0  0  0  0  0  0
    1.6423   -2.3236    2.2998 H   0  0  0  0  0  0  0  0  0  0  0  0
    1.8521   -5.0182    1.6694 H   0  0  0  0  0  0  0  0  0  0  0  0
    2.9893   -4.3728   -0.3791 H   0  0  0  0  0  0  0  0  0  0  0  0
    3.6187   -2.9096    0.3685 H   0  0  0  0  0  0  0  0  0  0  0  0
    1.8986   -3.0691    0.0615 H   0  0  0  0  0  0  0  0  0  0  0  0
    3.6713   -7.0379    5.0229 H   0  0  0  0  0  0  0  0  0  0  0  0
    4.1105   -7.4558    3.3748 H   0  0  0  0  0  0  0  0  0  0  0  0
    2.5104   -6.8368    3.7172 H   0  0  0  0  0  0  0  0  0  0  0  0
    5.7714   -5.3908    5.1494 H   0  0  0  0  0  0  0  0  0  0  0  0
    6.0569   -4.3463    3.7674 H   0  0  0  0  0  0  0  0  0  0  0  0
    6.1261   -6.0649    3.5681 H   0  0  0  0  0  0  0  0  0  0  0  0
    2.2746   -4.7541    4.6183 H   0  0  0  0  0  0  0  0  0  0  0  0
    3.7639   -5.2242    6.4940 H   0  0  0  0  0  0  0  0  0  0  0  0
    4.4397   -3.6110    6.2987 H   0  0  0  0  0  0  0  0  0  0  0  0
    1.7671   -4.5380    7.1533 H   0  0  0  0  0  0  0  0  0  0  0  0
    2.6985   -3.2141    7.7808 H   0  0  0  0  0  0  0  0  0  0  0  0
   -1.5774   -2.9350    5.5988 H   0  0  0  0  0  0  0  0  0  0  0  0
   -0.2122   -4.7779    7.7025 H   0  0  0  0  0  0  0  0  0  0  0  0
   -1.1797   -5.3327    6.3168 H   0  0  0  0  0  0  0  0  0  0  0  0
   -1.9190   -4.3839    7.6203 H   0  0  0  0  0  0  0  0  0  0  0  0
    3.1887   -1.5966    5.7137 H   0  0  0  0  0  0  0  0  0  0  0  0
    1.0131   -0.6144    3.9156 H   0  0  0  0  0  0  0  0  0  0  0  0
    0.4251    1.6980    3.4789 H   0  0  0  0  0  0  0  0  0  0  0  0
  1  2  1  0
  1 37  1  0
  1 38  1  0
  1 39  1  0
  2 36  2  0
  2  3  1  0
  3  4  2  0
  3 40  1  0
  4  5  1  0
  4 41  1  0
  5  6  2  0
  5 42  1  0
  6  7  1  0
  6 36  1  0
  7 35  1  0
  7  8  1  0
  7 43  1  1
  8  9  1  0
  9 10  1  0
  9 44  1  0
  9 45  1  0
 10 35  1  0
 10 11  1  6
 10 13  1  0
 11 12  1  0
 11 46  1  0
 11 47  1  0
 12 48  1  0
 13 14  1  0
 13 49  1  0
 13 50  1  0
 15 14  1  6
 14 51  1  0
 14 52  1  0
 15 24  1  0
 15 34  1  0
 15 16  1  0
 16 17  1  0
 16 53  1  0
 16 54  1  0
 17 18  1  0
 17 19  1  0
 17 55  1  6
 18 56  1  0
 18 57  1  0
 18 58  1  0
 19 20  2  0
 19 21  1  0
 21 22  1  0
 21 23  1  0
 21 24  1  0
 22 59  1  0
 22 60  1  0
 22 61  1  0
 23 62  1  0
 23 63  1  0
 23 64  1  0
 24 25  1  0
 24 65  1  1
 25 26  1  0
 25 66  1  0
 25 67  1  0
 26 27  1  0
 26 68  1  0
 26 69  1  0
 27 32  1  0
 27 28  1  6
 27 34  1  0
 28 29  1  0
 29 30  1  0
 29 31  1  0
 29 70  1  6
 30 71  1  0
 30 72  1  0
 30 73  1  0
 31 32  1  0
 32 33  2  0
 34 35  1  0
 34 74  1  1
 35 75  1  6
 36 76  1  0
M  CHG  1  36   1
M  END
>  <i_m_ct_stereo_status>  (114) 
1

>  <s_m_source_file>  (114) 
/var/tmp/pbs.5076255.sched01/tmp06uo9b_r/40lj_pgbub.sdf

>  <i_m_source_file_index>  (114) 
7

>  <i_lp_mmshare_version>  (114) 
48012

>  <i_f3d_flags>  (114) 
0

>  <s_epik_input>  (114) 
W0NIM11jMVtjSF1bY0hdW2NIXWMobjEpW0NAQEhdMk9bQ0gyXVtDQEBdKFtDSDJdW09IXSkoW0NIMl1bQ0gyXTMpW0NASF0yW0NASF00W0NAQF01KE9bQ0BASF0oW0NIM10pT0M1PU8pW0NIMl1bQ0gyXVtDQEBIXShbQ0BdMzQ2KUMoW0NIM10pKFtDSDNdKUMoPU8pW0NAQEhdKFtDSDJdNilbQ0gzXQ==

>  <s_epik_cmdline>  (114) 
J2VwaWtfcHl0aG9uJywgJy1waHQnLCAnMi4wJywgJy1waCcsICc3LjAnLCAnLXRuJywgJzgnLCAnLW1hJywgJzIwMCcsICctaW1hZScsICc8aW5maWxlLm1hZT4nLCAnLW9tYWUnLCAnPG91dGZpbGUubWFlPic=

>  <r_lp_tautomer_probability>  (114) 
0.99995

>  <r_epik_Ionization_Penalty>  (114) 
1.38137

>  <r_epik_Ionization_Penalty_Charging>  (114) 
1.38137

>  <r_epik_Ionization_Penalty_Neutral>  (114) 
8.99569e-08

>  <r_epik_State_Penalty>  (114) 
1.46192

>  <r_epik_Charging_Adjusted_Penalty>  (114) 
2.8433

>  <i_epik_Tot_Q>  (114) 
1

>  <i_epik_Tot_abs_Q>  (114) 
1

>  <s_epik_Chemistry_Notes>  (114) 
This compound has an ester and may undergo hydrolysis at high or low pH. This compound contains an acetal/aminal-like group ( X-CH(R)-Y where X, Y are N, S, or O) that may be acid/base labile, releasing an aldehyde.

>  <s_lp_Force_Field>  (114) 
OPLS3e

>  <r_lp_Energy>  (114) 
82.8837

>  <b_lp_Chiralities_Consistent>  (114) 
1

>  <s_lp_Variant>  (114) 
35:0-2

>  <s_i_glide_gridfile>  (114) 
pfpi4k_grid

>  <i_i_glide_lignum>  (114) 
7

>  <i_i_glide_rotatable_bonds>  (114) 
3

>  <r_i_docking_score>  (114) 
-2.1384

>  <r_i_glide_ligand_efficiency>  (114) 
-0.0594

>  <r_i_glide_ligand_efficiency_sa>  (114) 
-0.196135

>  <r_i_glide_ligand_efficiency_ln>  (114) 
-0.466541

>  <r_i_glide_gscore>  (114) 
-2.1384

>  <r_i_glide_lipo>  (114) 
-0.106536

>  <r_i_glide_hbond>  (114) 
-0.182936

>  <r_i_glide_metal>  (114) 
-0

>  <r_i_glide_rewards>  (114) 
-0.512611

>  <r_i_glide_evdw>  (114) 
-21.3018

>  <r_i_glide_ecoul>  (114) 
-2.46606

>  <r_i_glide_erotb>  (114) 
0.164156

>  <r_i_glide_esite>  (114) 
-0.0654753

>  <r_i_glide_emodel>  (114) 
-31.444

>  <r_i_glide_energy>  (114) 
-23.7679

>  <r_i_glide_einternal>  (114) 
2.24967

>  <r_i_glide_intrahb_reward>  (114) 
-0.5

>  <i_i_glide_confnum>  (114) 
1

>  <i_i_glide_posenum>  (114) 
8

>  <r_i_glide_eff_state_penalty>  (114) 
0

>  <ligand_id>  (114) 
35

>  <original_smiles>  (114) 
Cc1cccc(C2OCC3(CO)CCC45CC(C)C(=O)C(C)(C)C4CCC4(OC(C)OC4=O)C5C23)n1

>  <smiles>  (114) 
[H]OC([H])([H])C12C([H])([H])OC([H])(c3c([H])c([H])c([H])c(C([H])([H])[H])[n+]3[H])C1([H])C1([H])C3(OC([H])(C([H])([H])[H])OC3=O)C([H])([H])C([H])([H])C3([H])C(C([H])([H])[H])(C([H])([H])[H])C(=O)C([H])(C([H])([H])[H])C([H])([H])C13C([H])([H])C2([H])[H]

$$$$
36:0:0
     RDKit          3D

 50 52  0  0  1  0  0  0  0  0999 V2000
    3.5292   -3.4515    3.4800 C   0  0  0  0  0  0  0  0  0  0  0  0
    3.9760   -2.2678    2.5833 C   0  0  0  0  0  0  0  0  0  0  0  0
    3.2946   -1.0432    3.2205 C   0  0  0  0  0  0  0  0  0  0  0  0
    5.5031   -2.1549    2.6938 C   0  0  0  0  0  0  0  0  0  0  0  0
    6.1936   -3.3313    1.9790 C   0  0  0  0  0  0  0  0  0  0  0  0
    5.7745   -3.4727    0.5232 C   0  0  0  0  0  0  0  0  0  0  0  0
    4.2373   -3.5868    0.2607 C   0  0  1  0  0  0  0  0  0  0  0  0
    3.8494   -5.0603    0.6582 C   0  0  0  0  0  0  0  0  0  0  0  0
    2.5798   -5.2415    1.2533 O   0  0  0  0  0  0  0  0  0  0  0  0
    3.5482   -2.4473    1.0712 C   0  0  2  0  0  0  0  0  0  0  0  0
    3.6273   -1.2055    0.1142 C   0  0  1  0  0  0  0  0  0  0  0  0
    4.5677   -0.2267    0.4924 O   0  0  0  0  0  0  0  0  0  0  0  0
    4.1039   -1.6806   -1.2969 C   0  0  2  0  0  0  0  0  0  0  0  0
    3.3892   -0.8918   -2.4539 C   0  0  1  0  0  0  0  0  0  0  0  0
    4.2035    0.1363   -2.9867 O   0  0  0  0  0  0  0  0  0  0  0  0
    2.8706   -1.7377   -3.6211 C   0  0  1  0  0  0  0  0  0  0  0  0
    3.9743   -2.1711   -4.3599 O   0  0  0  0  0  0  0  0  0  0  0  0
    2.0520   -2.9370   -3.1179 C   0  0  0  0  0  0  0  0  0  0  0  0
    2.4764   -3.4485   -1.7516 C   0  0  0  0  0  0  0  0  0  0  0  0
    1.6355   -4.0628   -1.1020 O   0  0  0  0  0  0  0  0  0  0  0  0
    3.9270   -3.2212   -1.2572 C   0  0  2  0  0  0  0  0  0  0  0  0
    4.9119   -3.9852   -2.1888 C   0  0  0  0  0  0  0  0  0  0  0  0
    3.7484   -3.2623    4.5342 H   0  0  0  0  0  0  0  0  0  0  0  0
    4.0570   -4.3744    3.2443 H   0  0  0  0  0  0  0  0  0  0  0  0
    2.4637   -3.6244    3.4008 H   0  0  0  0  0  0  0  0  0  0  0  0
    3.6806   -0.1041    2.8244 H   0  0  0  0  0  0  0  0  0  0  0  0
    3.4666   -1.0306    4.2970 H   0  0  0  0  0  0  0  0  0  0  0  0
    2.2231   -1.0814    3.0516 H   0  0  0  0  0  0  0  0  0  0  0  0
    5.8759   -1.2270    2.2647 H   0  0  0  0  0  0  0  0  0  0  0  0
    5.8064   -2.1105    3.7410 H   0  0  0  0  0  0  0  0  0  0  0  0
    7.2530   -3.1501    1.8747 H   0  0  0  0  0  0  0  0  0  0  0  0
    6.0792   -4.2724    2.5190 H   0  0  0  0  0  0  0  0  0  0  0  0
    6.2026   -2.6241    0.0040 H   0  0  0  0  0  0  0  0  0  0  0  0
    6.2863   -4.3490    0.1235 H   0  0  0  0  0  0  0  0  0  0  0  0
    3.8444   -5.7132   -0.2116 H   0  0  0  0  0  0  0  0  0  0  0  0
    4.6028   -5.4940    1.3182 H   0  0  0  0  0  0  0  0  0  0  0  0
    2.5597   -4.7349    2.0569 H   0  0  0  0  0  0  0  0  0  0  0  0
    2.4824   -2.6662    1.1163 H   0  0  0  0  0  0  0  0  0  0  0  0
    2.6294   -0.7586    0.1050 H   0  0  0  0  0  0  0  0  0  0  0  0
    4.5209    0.4681   -0.1535 H   0  0  0  0  0  0  0  0  0  0  0  0
    5.1755   -1.4960   -1.4072 H   0  0  0  0  0  0  0  0  0  0  0  0
    2.4659   -0.4701   -2.0592 H   0  0  0  0  0  0  0  0  0  0  0  0
    3.5772    0.8358   -3.2048 H   0  0  0  0  0  0  0  0  0  0  0  0
    2.2427   -1.1093   -4.2523 H   0  0  0  0  0  0  0  0  0  0  0  0
    4.4583   -2.7722   -3.7982 H   0  0  0  0  0  0  0  0  0  0  0  0
    1.0258   -2.6597   -2.9965 H   0  0  0  0  0  0  0  0  0  0  0  0
    2.0916   -3.7663   -3.8270 H   0  0  0  0  0  0  0  0  0  0  0  0
    5.8567   -3.4670   -2.3582 H   0  0  0  0  0  0  0  0  0  0  0  0
    4.4790   -4.2329   -3.1524 H   0  0  0  0  0  0  0  0  0  0  0  0
    5.1449   -4.9639   -1.7776 H   0  0  0  0  0  0  0  0  0  0  0  0
  1  2  1  0
  1 23  1  0
  1 24  1  0
  1 25  1  0
  2 10  1  0
  2  3  1  0
  2  4  1  0
  3 26  1  0
  3 27  1  0
  3 28  1  0
  4  5  1  0
  4 29  1  0
  4 30  1  0
  5  6  1  0
  5 31  1  0
  5 32  1  0
  6  7  1  0
  6 33  1  0
  6 34  1  0
  7 21  1  0
  7  8  1  1
  7 10  1  0
  8  9  1  0
  8 35  1  0
  8 36  1  0
  9 37  1  0
 10 11  1  0
 10 38  1  1
 11 12  1  0
 11 13  1  0
 11 39  1  6
 12 40  1  0
 13 21  1  0
 13 14  1  0
 13 41  1  1
 14 15  1  0
 14 16  1  0
 14 42  1  1
 15 43  1  0
 16 17  1  0
 16 18  1  0
 16 44  1  6
 17 45  1  0
 18 19  1  0
 18 46  1  0
 18 47  1  0
 19 20  2  0
 19 21  1  0
 21 22  1  6
 22 48  1  0
 22 49  1  0
 22 50  1  0
M  END
>  <i_m_ct_stereo_status>  (115) 
1

>  <s_m_source_file>  (115) 
/var/tmp/pbs.5076255.sched01/tmp06uo9b_r/40lj_pgbub.sdf

>  <i_m_source_file_index>  (115) 
8

>  <i_lp_mmshare_version>  (115) 
48012

>  <i_f3d_flags>  (115) 
0

>  <s_epik_input>  (115) 
W0NIMl0xW0NIMl1bQ0gyXUMoW0NIM10pKFtDSDNdKVtDQEhdKFtDQF0xMltDSDJdW09IXSlbQ0BASF0oW09IXSlbQ0BIXTNbQ0BdMihbQ0gzXSlDKD1PKVtDSDJdW0NASF0oW09IXSlbQ0BASF0zW09IXQ==

>  <s_epik_cmdline>  (115) 
J2VwaWtfcHl0aG9uJywgJy1waHQnLCAnMi4wJywgJy1waCcsICc3LjAnLCAnLXRuJywgJzgnLCAnLW1hJywgJzIwMCcsICctaW1hZScsICc8aW5maWxlLm1hZT4nLCAnLW9tYWUnLCAnPG91dGZpbGUubWFlPic=

>  <r_lp_tautomer_probability>  (115) 
1

>  <r_epik_Ionization_Penalty>  (115) 
7.71139e-07

>  <r_epik_Ionization_Penalty_Charging>  (115) 
0

>  <r_epik_Ionization_Penalty_Neutral>  (115) 
7.71139e-07

>  <r_epik_State_Penalty>  (115) 
-0

>  <r_epik_Charging_Adjusted_Penalty>  (115) 
0

>  <i_epik_Tot_Q>  (115) 
0

>  <i_epik_Tot_abs_Q>  (115) 
0

>  <s_lp_Force_Field>  (115) 
OPLS3e

>  <r_lp_Energy>  (115) 
57.6582

>  <b_lp_Chiralities_Consistent>  (115) 
1

>  <s_lp_Variant>  (115) 
36:0-1

>  <s_i_glide_gridfile>  (115) 
pfpi4k_grid

>  <i_i_glide_lignum>  (115) 
8

>  <i_i_glide_rotatable_bonds>  (115) 
5

>  <r_i_docking_score>  (115) 
-4.48846

>  <r_i_glide_ligand_efficiency>  (115) 
-0.204021

>  <r_i_glide_ligand_efficiency_sa>  (115) 
-0.571675

>  <r_i_glide_ligand_efficiency_ln>  (115) 
-1.09714

>  <r_i_glide_gscore>  (115) 
-4.48846

>  <r_i_glide_lipo>  (115) 
-0.561839

>  <r_i_glide_hbond>  (115) 
-0.265575

>  <r_i_glide_metal>  (115) 
-0

>  <r_i_glide_rewards>  (115) 
-1.45942

>  <r_i_glide_evdw>  (115) 
-14.3997

>  <r_i_glide_ecoul>  (115) 
-11.1454

>  <r_i_glide_erotb>  (115) 
0.190166

>  <r_i_glide_esite>  (115) 
0

>  <r_i_glide_emodel>  (115) 
-30.5437

>  <r_i_glide_energy>  (115) 
-25.5451

>  <r_i_glide_einternal>  (115) 
3.67743

>  <r_i_glide_intrahb_reward>  (115) 
-0

>  <i_i_glide_confnum>  (115) 
6

>  <i_i_glide_posenum>  (115) 
7

>  <r_i_glide_eff_state_penalty>  (115) 
0

>  <ligand_id>  (115) 
36

>  <original_smiles>  (115) 
CC1(C)CCCC2(CO)C1C(O)C1C(O)C(O)CC(=O)C12C

>  <smiles>  (115) 
[H]OC([H])([H])C12C([H])([H])C([H])([H])C([H])([H])C(C([H])([H])[H])(C([H])([H])[H])C1([H])C([H])(O[H])C1([H])C([H])(O[H])C([H])(O[H])C([H])([H])C(=O)C12C([H])([H])[H]

$$$$
36:0:1
     RDKit          3D

 50 52  0  0  1  0  0  0  0  0999 V2000
    3.4242   -3.7199    3.4423 C   0  0  0  0  0  0  0  0  0  0  0  0
    3.9909   -2.5390    2.6119 C   0  0  0  0  0  0  0  0  0  0  0  0
    3.4218   -1.2893    3.3028 C   0  0  0  0  0  0  0  0  0  0  0  0
    5.5207   -2.5669    2.7466 C   0  0  0  0  0  0  0  0  0  0  0  0
    6.1377   -3.7570    1.9938 C   0  0  0  0  0  0  0  0  0  0  0  0
    5.7151   -3.8054    0.5238 C   0  0  0  0  0  0  0  0  0  0  0  0
    4.1697   -3.7789    0.2538 C   0  0  1  0  0  0  0  0  0  0  0  0
    3.6316   -5.2203    0.5887 C   0  0  0  0  0  0  0  0  0  0  0  0
    2.3281   -5.2929    1.1442 O   0  0  0  0  0  0  0  0  0  0  0  0
    3.5728   -2.6042    1.0940 C   0  0  2  0  0  0  0  0  0  0  0  0
    3.7617   -1.3330    0.2015 C   0  0  1  0  0  0  0  0  0  0  0  0
    4.7507   -0.4107    0.6194 O   0  0  0  0  0  0  0  0  0  0  0  0
    4.1974   -1.8106   -1.2051 C   0  0  2  0  0  0  0  0  0  0  0  0
    3.5990   -0.9072   -2.3163 C   0  0  1  0  0  0  0  0  0  0  0  0
    4.5953    0.0068   -2.7276 O   0  0  0  0  0  0  0  0  0  0  0  0
    3.0318   -1.6300   -3.5321 C   0  0  1  0  0  0  0  0  0  0  0  0
    4.0989   -2.1109   -4.3165 O   0  0  0  0  0  0  0  0  0  0  0  0
    2.1099   -2.7980   -3.1286 C   0  0  0  0  0  0  0  0  0  0  0  0
    2.4411   -3.4523   -1.7815 C   0  0  0  0  0  0  0  0  0  0  0  0
    1.5398   -3.9861   -1.1642 O   0  0  0  0  0  0  0  0  0  0  0  0
    3.9091   -3.3403   -1.2530 C   0  0  2  0  0  0  0  0  0  0  0  0
    4.8426   -4.1134   -2.2266 C   0  0  0  0  0  0  0  0  0  0  0  0
    3.6399   -3.6034    4.5044 H   0  0  0  0  0  0  0  0  0  0  0  0
    3.8670   -4.6755    3.1741 H   0  0  0  0  0  0  0  0  0  0  0  0
    2.3447   -3.7845    3.3437 H   0  0  0  0  0  0  0  0  0  0  0  0
    3.8976   -0.3702    2.9628 H   0  0  0  0  0  0  0  0  0  0  0  0
    3.5792   -1.3392    4.3804 H   0  0  0  0  0  0  0  0  0  0  0  0
    2.3521   -1.2102    3.1257 H   0  0  0  0  0  0  0  0  0  0  0  0
    5.9694   -1.6555    2.3518 H   0  0  0  0  0  0  0  0  0  0  0  0
    5.8155   -2.6048    3.7949 H   0  0  0  0  0  0  0  0  0  0  0  0
    7.2195   -3.6723    1.9807 H   0  0  0  0  0  0  0  0  0  0  0  0
    5.9306   -4.7094    2.4816 H   0  0  0  0  0  0  0  0  0  0  0  0
    6.2143   -2.9741    0.0350 H   0  0  0  0  0  0  0  0  0  0  0  0
    6.1394   -4.7028    0.0759 H   0  0  0  0  0  0  0  0  0  0  0  0
    3.5884   -5.8422   -0.3006 H   0  0  0  0  0  0  0  0  0  0  0  0
    4.3207   -5.7432    1.2539 H   0  0  0  0  0  0  0  0  0  0  0  0
    2.3076   -4.7458    1.9133 H   0  0  0  0  0  0  0  0  0  0  0  0
    2.4905   -2.7192    1.1072 H   0  0  0  0  0  0  0  0  0  0  0  0
    2.7942   -0.8162    0.1708 H   0  0  0  0  0  0  0  0  0  0  0  0
    4.6565    0.3817    0.1131 H   0  0  0  0  0  0  0  0  0  0  0  0
    5.2854   -1.7325   -1.2994 H   0  0  0  0  0  0  0  0  0  0  0  0
    2.7001   -0.4098   -1.9479 H   0  0  0  0  0  0  0  0  0  0  0  0
    4.6936    0.6719   -2.0528 H   0  0  0  0  0  0  0  0  0  0  0  0
    2.4641   -0.9068   -4.1175 H   0  0  0  0  0  0  0  0  0  0  0  0
    4.5100   -2.7935   -3.8022 H   0  0  0  0  0  0  0  0  0  0  0  0
    1.1107   -2.4227   -2.9447 H   0  0  0  0  0  0  0  0  0  0  0  0
    2.0032   -3.5437   -3.9146 H   0  0  0  0  0  0  0  0  0  0  0  0
    5.8139   -3.6367   -2.3745 H   0  0  0  0  0  0  0  0  0  0  0  0
    4.3954   -4.2672   -3.2072 H   0  0  0  0  0  0  0  0  0  0  0  0
    5.0386   -5.1232   -1.8748 H   0  0  0  0  0  0  0  0  0  0  0  0
  1  2  1  0
  1 23  1  0
  1 24  1  0
  1 25  1  0
  2 10  1  0
  2  3  1  0
  2  4  1  0
  3 26  1  0
  3 27  1  0
  3 28  1  0
  4  5  1  0
  4 29  1  0
  4 30  1  0
  5  6  1  0
  5 31  1  0
  5 32  1  0
  6  7  1  0
  6 33  1  0
  6 34  1  0
  7 21  1  0
  7  8  1  1
  7 10  1  0
  8  9  1  0
  8 35  1  0
  8 36  1  0
  9 37  1  0
 10 11  1  0
 10 38  1  1
 11 12  1  0
 11 13  1  0
 11 39  1  6
 12 40  1  0
 13 21  1  0
 13 14  1  0
 13 41  1  1
 14 15  1  0
 14 16  1  0
 14 42  1  1
 15 43  1  0
 16 17  1  0
 16 18  1  0
 16 44  1  6
 17 45  1  0
 18 19  1  0
 18 46  1  0
 18 47  1  0
 19 20  2  0
 19 21  1  0
 21 22  1  6
 22 48  1  0
 22 49  1  0
 22 50  1  0
M  END
>  <i_m_ct_stereo_status>  (116) 
1

>  <s_m_source_file>  (116) 
/var/tmp/pbs.5076255.sched01/tmp06uo9b_r/40lj_pgbub.sdf

>  <i_m_source_file_index>  (116) 
8

>  <i_lp_mmshare_version>  (116) 
48012

>  <i_f3d_flags>  (116) 
0

>  <s_epik_input>  (116) 
W0NIMl0xW0NIMl1bQ0gyXUMoW0NIM10pKFtDSDNdKVtDQEhdKFtDQF0xMltDSDJdW09IXSlbQ0BASF0oW09IXSlbQ0BIXTNbQ0BdMihbQ0gzXSlDKD1PKVtDSDJdW0NASF0oW09IXSlbQ0BASF0zW09IXQ==

>  <s_epik_cmdline>  (116) 
J2VwaWtfcHl0aG9uJywgJy1waHQnLCAnMi4wJywgJy1waCcsICc3LjAnLCAnLXRuJywgJzgnLCAnLW1hJywgJzIwMCcsICctaW1hZScsICc8aW5maWxlLm1hZT4nLCAnLW9tYWUnLCAnPG91dGZpbGUubWFlPic=

>  <r_lp_tautomer_probability>  (116) 
1

>  <r_epik_Ionization_Penalty>  (116) 
7.71139e-07

>  <r_epik_Ionization_Penalty_Charging>  (116) 
0

>  <r_epik_Ionization_Penalty_Neutral>  (116) 
7.71139e-07

>  <r_epik_State_Penalty>  (116) 
-0

>  <r_epik_Charging_Adjusted_Penalty>  (116) 
0

>  <i_epik_Tot_Q>  (116) 
0

>  <i_epik_Tot_abs_Q>  (116) 
0

>  <s_lp_Force_Field>  (116) 
OPLS3e

>  <r_lp_Energy>  (116) 
57.6582

>  <b_lp_Chiralities_Consistent>  (116) 
1

>  <s_lp_Variant>  (116) 
36:0-1

>  <s_i_glide_gridfile>  (116) 
pfpi4k_grid

>  <i_i_glide_lignum>  (116) 
8

>  <i_i_glide_rotatable_bonds>  (116) 
5

>  <r_i_docking_score>  (116) 
-4.19068

>  <r_i_glide_ligand_efficiency>  (116) 
-0.190485

>  <r_i_glide_ligand_efficiency_sa>  (116) 
-0.533747

>  <r_i_glide_ligand_efficiency_ln>  (116) 
-1.02435

>  <r_i_glide_gscore>  (116) 
-4.19068

>  <r_i_glide_lipo>  (116) 
-0.498515

>  <r_i_glide_hbond>  (116) 
-0.0132981

>  <r_i_glide_metal>  (116) 
-0

>  <r_i_glide_rewards>  (116) 
-1.46245

>  <r_i_glide_evdw>  (116) 
-12.1108

>  <r_i_glide_ecoul>  (116) 
-11.6266

>  <r_i_glide_erotb>  (116) 
0.133116

>  <r_i_glide_esite>  (116) 
0

>  <r_i_glide_emodel>  (116) 
-28.7401

>  <r_i_glide_energy>  (116) 
-23.7373

>  <r_i_glide_einternal>  (116) 
3.0482

>  <r_i_glide_intrahb_reward>  (116) 
-0

>  <i_i_glide_confnum>  (116) 
3

>  <i_i_glide_posenum>  (116) 
27

>  <r_i_glide_eff_state_penalty>  (116) 
0

>  <ligand_id>  (116) 
36

>  <original_smiles>  (116) 
CC1(C)CCCC2(CO)C1C(O)C1C(O)C(O)CC(=O)C12C

>  <smiles>  (116) 
[H]OC([H])([H])C12C([H])([H])C([H])([H])C([H])([H])C(C([H])([H])[H])(C([H])([H])[H])C1([H])C([H])(O[H])C1([H])C([H])(O[H])C([H])(O[H])C([H])([H])C(=O)C12C([H])([H])[H]

$$$$
36:0:2
     RDKit          3D

 50 52  0  0  1  0  0  0  0  0999 V2000
    1.3313   -5.2851    3.8401 C   0  0  0  0  0  0  0  0  0  0  0  0
    2.2801   -4.0610    3.8037 C   0  0  0  0  0  0  0  0  0  0  0  0
    1.4850   -2.9517    4.5226 C   0  0  0  0  0  0  0  0  0  0  0  0
    3.5561   -4.4289    4.5970 C   0  0  0  0  0  0  0  0  0  0  0  0
    4.4138   -5.4631    3.8566 C   0  0  0  0  0  0  0  0  0  0  0  0
    4.7514   -5.0292    2.4167 C   0  0  0  0  0  0  0  0  0  0  0  0
    3.5398   -4.6182    1.5022 C   0  0  1  0  0  0  0  0  0  0  0  0
    2.8384   -5.9507    1.0472 C   0  0  0  0  0  0  0  0  0  0  0  0
    1.4261   -5.9250    0.9141 O   0  0  0  0  0  0  0  0  0  0  0  0
    2.6561   -3.6297    2.3248 C   0  0  2  0  0  0  0  0  0  0  0  0
    3.3146   -2.2359    2.0747 C   0  0  1  0  0  0  0  0  0  0  0  0
    3.9602   -1.6438    3.1765 O   0  0  0  0  0  0  0  0  0  0  0  0
    4.3749   -2.3764    0.9492 C   0  0  2  0  0  0  0  0  0  0  0  0
    4.4361   -1.0970    0.0525 C   0  0  1  0  0  0  0  0  0  0  0  0
    5.5024   -0.2596    0.4505 O   0  0  0  0  0  0  0  0  0  0  0  0
    4.4911   -1.3473   -1.4649 C   0  0  1  0  0  0  0  0  0  0  0  0
    5.7784   -1.7766   -1.8813 O   0  0  0  0  0  0  0  0  0  0  0  0
    3.4091   -2.3529   -1.9052 C   0  0  0  0  0  0  0  0  0  0  0  0
    3.0199   -3.4100   -0.8533 C   0  0  0  0  0  0  0  0  0  0  0  0
    1.9053   -3.9048   -0.9242 O   0  0  0  0  0  0  0  0  0  0  0  0
    4.0540   -3.7432    0.2703 C   0  0  2  0  0  0  0  0  0  0  0  0
    5.2973   -4.4195   -0.3875 C   0  0  0  0  0  0  0  0  0  0  0  0
    0.9903   -5.4987    4.8555 H   0  0  0  0  0  0  0  0  0  0  0  0
    1.8018   -6.2019    3.4925 H   0  0  0  0  0  0  0  0  0  0  0  0
    0.4437   -5.1088    3.2292 H   0  0  0  0  0  0  0  0  0  0  0  0
    2.0857   -2.0816    4.7716 H   0  0  0  0  0  0  0  0  0  0  0  0
    1.0769   -3.3222    5.4638 H   0  0  0  0  0  0  0  0  0  0  0  0
    0.6419   -2.6268    3.9069 H   0  0  0  0  0  0  0  0  0  0  0  0
    4.1621   -3.5456    4.7810 H   0  0  0  0  0  0  0  0  0  0  0  0
    3.2927   -4.7955    5.5907 H   0  0  0  0  0  0  0  0  0  0  0  0
    5.3420   -5.5893    4.4149 H   0  0  0  0  0  0  0  0  0  0  0  0
    3.9378   -6.4425    3.8625 H   0  0  0  0  0  0  0  0  0  0  0  0
    5.4650   -4.2169    2.5247 H   0  0  0  0  0  0  0  0  0  0  0  0
    5.3104   -5.8427    1.9559 H   0  0  0  0  0  0  0  0  0  0  0  0
    3.2318   -6.2768    0.0880 H   0  0  0  0  0  0  0  0  0  0  0  0
    3.0832   -6.7641    1.7304 H   0  0  0  0  0  0  0  0  0  0  0  0
    1.1262   -6.8145    0.7765 H   0  0  0  0  0  0  0  0  0  0  0  0
    1.7101   -3.5604    1.7942 H   0  0  0  0  0  0  0  0  0  0  0  0
    2.5068   -1.5674    1.7789 H   0  0  0  0  0  0  0  0  0  0  0  0
    3.2965   -1.3954    3.8028 H   0  0  0  0  0  0  0  0  0  0  0  0
    5.3625   -2.4653    1.4030 H   0  0  0  0  0  0  0  0  0  0  0  0
    3.5294   -0.5168    0.2211 H   0  0  0  0  0  0  0  0  0  0  0  0
    5.4195    0.5712   -0.0135 H   0  0  0  0  0  0  0  0  0  0  0  0
    4.3025   -0.3920   -1.9646 H   0  0  0  0  0  0  0  0  0  0  0  0
    5.9164   -2.6513   -1.5482 H   0  0  0  0  0  0  0  0  0  0  0  0
    2.4974   -1.7902   -2.1107 H   0  0  0  0  0  0  0  0  0  0  0  0
    3.6818   -2.8422   -2.8399 H   0  0  0  0  0  0  0  0  0  0  0  0
    6.2318   -4.1414    0.1028 H   0  0  0  0  0  0  0  0  0  0  0  0
    5.4000   -4.2046   -1.4482 H   0  0  0  0  0  0  0  0  0  0  0  0
    5.2376   -5.5048   -0.3425 H   0  0  0  0  0  0  0  0  0  0  0  0
  1  2  1  0
  1 23  1  0
  1 24  1  0
  1 25  1  0
  2 10  1  0
  2  3  1  0
  2  4  1  0
  3 26  1  0
  3 27  1  0
  3 28  1  0
  4  5  1  0
  4 29  1  0
  4 30  1  0
  5  6  1  0
  5 31  1  0
  5 32  1  0
  6  7  1  0
  6 33  1  0
  6 34  1  0
  7 21  1  0
  7  8  1  6
  7 10  1  0
  8  9  1  0
  8 35  1  0
  8 36  1  0
  9 37  1  0
 10 11  1  0
 10 38  1  6
 11 12  1  0
 11 13  1  0
 11 39  1  6
 12 40  1  0
 13 21  1  0
 13 14  1  0
 13 41  1  1
 14 15  1  0
 14 16  1  0
 14 42  1  6
 15 43  1  0
 16 17  1  0
 16 18  1  0
 16 44  1  6
 17 45  1  0
 18 19  1  0
 18 46  1  0
 18 47  1  0
 19 20  2  0
 19 21  1  0
 21 22  1  6
 22 48  1  0
 22 49  1  0
 22 50  1  0
M  END
>  <i_m_ct_stereo_status>  (117) 
1

>  <s_m_source_file>  (117) 
/var/tmp/pbs.5076255.sched01/tmp06uo9b_r/40lj_pgbub.sdf

>  <i_m_source_file_index>  (117) 
8

>  <i_lp_mmshare_version>  (117) 
48012

>  <i_f3d_flags>  (117) 
0

>  <s_epik_input>  (117) 
W0NIMl0xW0NIMl1bQ0gyXUMoW0NIM10pKFtDSDNdKVtDQEhdKFtDQF0xMltDSDJdW09IXSlbQ0BASF0oW09IXSlbQ0BIXTNbQ0BdMihbQ0gzXSlDKD1PKVtDSDJdW0NASF0oW09IXSlbQ0BASF0zW09IXQ==

>  <s_epik_cmdline>  (117) 
J2VwaWtfcHl0aG9uJywgJy1waHQnLCAnMi4wJywgJy1waCcsICc3LjAnLCAnLXRuJywgJzgnLCAnLW1hJywgJzIwMCcsICctaW1hZScsICc8aW5maWxlLm1hZT4nLCAnLW9tYWUnLCAnPG91dGZpbGUubWFlPic=

>  <r_lp_tautomer_probability>  (117) 
1

>  <r_epik_Ionization_Penalty>  (117) 
7.71139e-07

>  <r_epik_Ionization_Penalty_Charging>  (117) 
0

>  <r_epik_Ionization_Penalty_Neutral>  (117) 
7.71139e-07

>  <r_epik_State_Penalty>  (117) 
-0

>  <r_epik_Charging_Adjusted_Penalty>  (117) 
0

>  <i_epik_Tot_Q>  (117) 
0

>  <i_epik_Tot_abs_Q>  (117) 
0

>  <s_lp_Force_Field>  (117) 
OPLS3e

>  <r_lp_Energy>  (117) 
57.6582

>  <b_lp_Chiralities_Consistent>  (117) 
1

>  <s_lp_Variant>  (117) 
36:0-1

>  <s_i_glide_gridfile>  (117) 
pfpi4k_grid

>  <i_i_glide_lignum>  (117) 
8

>  <i_i_glide_rotatable_bonds>  (117) 
5

>  <r_i_docking_score>  (117) 
-3.3689

>  <r_i_glide_ligand_efficiency>  (117) 
-0.153132

>  <r_i_glide_ligand_efficiency_sa>  (117) 
-0.429081

>  <r_i_glide_ligand_efficiency_ln>  (117) 
-0.823481

>  <r_i_glide_gscore>  (117) 
-3.3689

>  <r_i_glide_lipo>  (117) 
-0.094309

>  <r_i_glide_hbond>  (117) 
-0.00641287

>  <r_i_glide_metal>  (117) 
-0

>  <r_i_glide_rewards>  (117) 
-1.35994

>  <r_i_glide_evdw>  (117) 
-16.5995

>  <r_i_glide_ecoul>  (117) 
-8.45614

>  <r_i_glide_erotb>  (117) 
0.190166

>  <r_i_glide_esite>  (117) 
0

>  <r_i_glide_emodel>  (117) 
-29.0829

>  <r_i_glide_energy>  (117) 
-25.0557

>  <r_i_glide_einternal>  (117) 
3.54744

>  <r_i_glide_intrahb_reward>  (117) 
-0

>  <i_i_glide_confnum>  (117) 
3

>  <i_i_glide_posenum>  (117) 
29

>  <r_i_glide_eff_state_penalty>  (117) 
0

>  <ligand_id>  (117) 
36

>  <original_smiles>  (117) 
CC1(C)CCCC2(CO)C1C(O)C1C(O)C(O)CC(=O)C12C

>  <smiles>  (117) 
[H]OC([H])([H])C12C([H])([H])C([H])([H])C([H])([H])C(C([H])([H])[H])(C([H])([H])[H])C1([H])C([H])(O[H])C1([H])C([H])(O[H])C([H])(O[H])C([H])([H])C(=O)C12C([H])([H])[H]

$$$$
37:0:0
     RDKit          3D

 38 39  0  0  1  0  0  0  0  0999 V2000
    2.5358   -4.3363    0.8144 C   0  0  0  0  0  0  0  0  0  0  0  0
    3.5647   -3.5430    0.0249 C   0  0  0  0  0  0  0  0  0  0  0  0
    3.3603   -3.2817   -1.2878 C   0  0  0  0  0  0  0  0  0  0  0  0
    4.3684   -2.5077   -2.0386 C   0  0  0  0  0  0  0  0  0  0  0  0
    4.3000   -2.2713   -3.2431 O   0  0  0  0  0  0  0  0  0  0  0  0
    5.5822   -2.0175   -1.2367 C   0  0  2  0  0  0  0  0  0  0  0  0
    6.5486   -3.2002   -1.0135 C   0  0  0  0  0  0  0  0  0  0  0  0
    6.0685   -3.9447    0.2722 C   0  0  1  0  0  0  0  0  0  0  0  0
    5.6635   -5.4085   -0.0442 C   0  0  0  0  0  0  0  0  0  0  0  0
    7.2279   -4.0558    1.3003 C   0  0  0  0  0  0  0  0  0  0  0  0
    8.4035   -4.6423    0.7651 O   0  0  0  0  0  0  0  0  0  0  0  0
    4.8504   -3.0525    0.7597 C   0  0  2  0  0  0  0  0  0  0  0  0
    4.6397   -3.0314    2.2987 C   0  0  0  0  0  0  0  0  0  0  0  0
    5.1779   -1.6182    0.1978 C   0  0  0  0  0  0  0  0  0  0  0  0
    6.3549   -0.8588    0.8659 C   0  0  0  0  0  0  0  0  0  0  0  0
    3.9888   -0.6173    0.2945 C   0  0  0  0  0  0  0  0  0  0  0  0
    2.9676   -5.2111    1.2992 H   0  0  0  0  0  0  0  0  0  0  0  0
    1.7718   -4.6923    0.1283 H   0  0  0  0  0  0  0  0  0  0  0  0
    2.0622   -3.7074    1.5683 H   0  0  0  0  0  0  0  0  0  0  0  0
    2.4759   -3.6209   -1.8135 H   0  0  0  0  0  0  0  0  0  0  0  0
    6.0482   -1.1985   -1.7801 H   0  0  0  0  0  0  0  0  0  0  0  0
    6.5799   -3.8512   -1.8845 H   0  0  0  0  0  0  0  0  0  0  0  0
    7.5682   -2.8233   -0.8976 H   0  0  0  0  0  0  0  0  0  0  0  0
    5.1580   -5.8785    0.8000 H   0  0  0  0  0  0  0  0  0  0  0  0
    6.5343   -6.0092   -0.2823 H   0  0  0  0  0  0  0  0  0  0  0  0
    5.0218   -5.4864   -0.9202 H   0  0  0  0  0  0  0  0  0  0  0  0
    7.5052   -3.0882    1.6793 H   0  0  0  0  0  0  0  0  0  0  0  0
    6.9103   -4.6453    2.1633 H   0  0  0  0  0  0  0  0  0  0  0  0
    8.2725   -5.5828    0.7032 H   0  0  0  0  0  0  0  0  0  0  0  0
    5.4989   -2.6418    2.8415 H   0  0  0  0  0  0  0  0  0  0  0  0
    4.4487   -4.0289    2.6945 H   0  0  0  0  0  0  0  0  0  0  0  0
    3.7906   -2.4017    2.5669 H   0  0  0  0  0  0  0  0  0  0  0  0
    6.2234   -0.7421    1.9418 H   0  0  0  0  0  0  0  0  0  0  0  0
    6.4122    0.1469    0.4570 H   0  0  0  0  0  0  0  0  0  0  0  0
    7.3419   -1.2782    0.6845 H   0  0  0  0  0  0  0  0  0  0  0  0
    3.8203   -0.3016    1.3257 H   0  0  0  0  0  0  0  0  0  0  0  0
    3.0343   -0.9800   -0.0869 H   0  0  0  0  0  0  0  0  0  0  0  0
    4.2149    0.2785   -0.2761 H   0  0  0  0  0  0  0  0  0  0  0  0
  1  2  1  0
  1 17  1  0
  1 18  1  0
  1 19  1  0
  2 12  1  0
  2  3  2  0
  3  4  1  0
  3 20  1  0
  4  5  2  0
  4  6  1  0
  6 14  1  0
  6  7  1  0
  6 21  1  6
  7  8  1  0
  7 22  1  0
  7 23  1  0
  8  9  1  6
  8 10  1  0
  8 12  1  0
  9 24  1  0
  9 25  1  0
  9 26  1  0
 10 11  1  0
 10 27  1  0
 10 28  1  0
 11 29  1  0
 12 13  1  1
 12 14  1  0
 13 30  1  0
 13 31  1  0
 13 32  1  0
 14 15  1  0
 14 16  1  0
 15 33  1  0
 15 34  1  0
 15 35  1  0
 16 36  1  0
 16 37  1  0
 16 38  1  0
M  END
>  <i_m_ct_stereo_status>  (118) 
1

>  <s_m_source_file>  (118) 
/var/tmp/pbs.5076255.sched01/tmp06uo9b_r/40lj_pgbub.sdf

>  <i_m_source_file_index>  (118) 
9

>  <i_lp_mmshare_version>  (118) 
48012

>  <i_f3d_flags>  (118) 
0

>  <s_epik_input>  (118) 
W0NIM11bQ0BdMTJDKFtDSDNdKT1bQ0hdQyg9TylbQ0BASF0oQzIoW0NIM10pW0NIM10pW0NIMl1bQ0BAXTEoW0NIM10pW0NIMl1bT0hd

>  <s_epik_cmdline>  (118) 
J2VwaWtfcHl0aG9uJywgJy1waHQnLCAnMi4wJywgJy1waCcsICc3LjAnLCAnLXRuJywgJzgnLCAnLW1hJywgJzIwMCcsICctaW1hZScsICc8aW5maWxlLm1hZT4nLCAnLW9tYWUnLCAnPG91dGZpbGUubWFlPic=

>  <r_lp_tautomer_probability>  (118) 
1

>  <r_epik_Ionization_Penalty>  (118) 
2.61181e-07

>  <r_epik_Ionization_Penalty_Charging>  (118) 
0

>  <r_epik_Ionization_Penalty_Neutral>  (118) 
2.61181e-07

>  <r_epik_State_Penalty>  (118) 
-0

>  <r_epik_Charging_Adjusted_Penalty>  (118) 
0

>  <i_epik_Tot_Q>  (118) 
0

>  <i_epik_Tot_abs_Q>  (118) 
0

>  <s_lp_Force_Field>  (118) 
OPLS3e

>  <r_lp_Energy>  (118) 
40.9474

>  <b_lp_Chiralities_Consistent>  (118) 
1

>  <s_lp_Variant>  (118) 
37:0-1

>  <s_i_glide_gridfile>  (118) 
pfpi4k_grid

>  <i_i_glide_lignum>  (118) 
9

>  <i_i_glide_rotatable_bonds>  (118) 
2

>  <r_i_docking_score>  (118) 
-3.25386

>  <r_i_glide_ligand_efficiency>  (118) 
-0.203367

>  <r_i_glide_ligand_efficiency_sa>  (118) 
-0.512452

>  <r_i_glide_ligand_efficiency_ln>  (118) 
-0.862502

>  <r_i_glide_gscore>  (118) 
-3.25386

>  <r_i_glide_lipo>  (118) 
-0.544878

>  <r_i_glide_hbond>  (118) 
0

>  <r_i_glide_metal>  (118) 
-0

>  <r_i_glide_rewards>  (118) 
-1.89744

>  <r_i_glide_evdw>  (118) 
-16.8406

>  <r_i_glide_ecoul>  (118) 
-2.07608

>  <r_i_glide_erotb>  (118) 
0.341892

>  <r_i_glide_esite>  (118) 
0

>  <r_i_glide_emodel>  (118) 
-22.2573

>  <r_i_glide_energy>  (118) 
-18.9167

>  <r_i_glide_einternal>  (118) 
0.229526

>  <r_i_glide_intrahb_reward>  (118) 
-0

>  <i_i_glide_confnum>  (118) 
1

>  <i_i_glide_posenum>  (118) 
5

>  <r_i_glide_eff_state_penalty>  (118) 
0

>  <ligand_id>  (118) 
37

>  <original_smiles>  (118) 
CC1=CC(=O)C2CC(C)(CO)C1(C)C2(C)C

>  <smiles>  (118) 
[H]OC([H])([H])C1(C([H])([H])[H])C([H])([H])C2([H])C(=O)C([H])=C(C([H])([H])[H])C1(C([H])([H])[H])C2(C([H])([H])[H])C([H])([H])[H]

$$$$
37:0:1
     RDKit          3D

 38 39  0  0  1  0  0  0  0  0999 V2000
    1.9950   -3.6389   -1.1279 C   0  0  0  0  0  0  0  0  0  0  0  0
    3.1397   -2.6438   -1.2451 C   0  0  0  0  0  0  0  0  0  0  0  0
    3.0808   -1.7204   -2.2102 C   0  0  0  0  0  0  0  0  0  0  0  0
    4.1606   -0.7431   -2.3284 C   0  0  0  0  0  0  0  0  0  0  0  0
    4.2065    0.0567   -3.2438 O   0  0  0  0  0  0  0  0  0  0  0  0
    5.2469   -0.8256   -1.2421 C   0  0  2  0  0  0  0  0  0  0  0  0
    6.1887   -1.9611   -1.6275 C   0  0  0  0  0  0  0  0  0  0  0  0
    5.5863   -3.2449   -1.0184 C   0  0  1  0  0  0  0  0  0  0  0  0
    5.1886   -4.1696   -2.1857 C   0  0  0  0  0  0  0  0  0  0  0  0
    6.6545   -3.9877   -0.1460 C   0  0  0  0  0  0  0  0  0  0  0  0
    8.0027   -3.8595   -0.6069 O   0  0  0  0  0  0  0  0  0  0  0  0
    4.3156   -2.7385   -0.2330 C   0  0  2  0  0  0  0  0  0  0  0  0
    3.9327   -3.5851    1.0001 C   0  0  0  0  0  0  0  0  0  0  0  0
    4.7319   -1.2744    0.1493 C   0  0  0  0  0  0  0  0  0  0  0  0
    5.8615   -1.1496    1.2162 C   0  0  0  0  0  0  0  0  0  0  0  0
    3.5892   -0.3956    0.7199 C   0  0  0  0  0  0  0  0  0  0  0  0
    2.3261   -4.6754   -1.1333 H   0  0  0  0  0  0  0  0  0  0  0  0
    1.2696   -3.4570   -1.9297 H   0  0  0  0  0  0  0  0  0  0  0  0
    1.5018   -3.4312   -0.1914 H   0  0  0  0  0  0  0  0  0  0  0  0
    2.2592   -1.6011   -2.8947 H   0  0  0  0  0  0  0  0  0  0  0  0
    5.7895    0.1132   -1.1674 H   0  0  0  0  0  0  0  0  0  0  0  0
    6.2432   -2.1212   -2.7009 H   0  0  0  0  0  0  0  0  0  0  0  0
    7.1900   -1.7059   -1.2705 H   0  0  0  0  0  0  0  0  0  0  0  0
    4.7282   -5.0659   -1.7696 H   0  0  0  0  0  0  0  0  0  0  0  0
    6.0672   -4.3525   -2.7849 H   0  0  0  0  0  0  0  0  0  0  0  0
    4.5343   -3.7185   -2.9343 H   0  0  0  0  0  0  0  0  0  0  0  0
    6.7006   -3.6860    0.9022 H   0  0  0  0  0  0  0  0  0  0  0  0
    6.3705   -5.0368   -0.1418 H   0  0  0  0  0  0  0  0  0  0  0  0
    8.0263   -3.9642   -1.5478 H   0  0  0  0  0  0  0  0  0  0  0  0
    4.7068   -3.6422    1.7626 H   0  0  0  0  0  0  0  0  0  0  0  0
    3.6935   -4.6098    0.7091 H   0  0  0  0  0  0  0  0  0  0  0  0
    3.0596   -3.1508    1.4882 H   0  0  0  0  0  0  0  0  0  0  0  0
    5.6058   -1.6456    2.1528 H   0  0  0  0  0  0  0  0  0  0  0  0
    6.0201   -0.1001    1.4662 H   0  0  0  0  0  0  0  0  0  0  0  0
    6.8362   -1.5254    0.9065 H   0  0  0  0  0  0  0  0  0  0  0  0
    3.3183   -0.7253    1.7241 H   0  0  0  0  0  0  0  0  0  0  0  0
    2.6801   -0.4022    0.1205 H   0  0  0  0  0  0  0  0  0  0  0  0
    3.9162    0.6454    0.8125 H   0  0  0  0  0  0  0  0  0  0  0  0
  1  2  1  0
  1 17  1  0
  1 18  1  0
  1 19  1  0
  2 12  1  0
  2  3  2  0
  3  4  1  0
  3 20  1  0
  4  5  2  0
  4  6  1  0
  6 14  1  0
  6  7  1  0
  6 21  1  1
  7  8  1  0
  7 22  1  0
  7 23  1  0
  8  9  1  6
  8 10  1  0
  8 12  1  0
  9 24  1  0
  9 25  1  0
  9 26  1  0
 10 11  1  0
 10 27  1  0
 10 28  1  0
 11 29  1  0
 12 13  1  1
 12 14  1  0
 13 30  1  0
 13 31  1  0
 13 32  1  0
 14 15  1  0
 14 16  1  0
 15 33  1  0
 15 34  1  0
 15 35  1  0
 16 36  1  0
 16 37  1  0
 16 38  1  0
M  END
>  <i_m_ct_stereo_status>  (119) 
1

>  <s_m_source_file>  (119) 
/var/tmp/pbs.5076255.sched01/tmp06uo9b_r/40lj_pgbub.sdf

>  <i_m_source_file_index>  (119) 
9

>  <i_lp_mmshare_version>  (119) 
48012

>  <i_f3d_flags>  (119) 
0

>  <s_epik_input>  (119) 
W0NIM11bQ0BdMTJDKFtDSDNdKT1bQ0hdQyg9TylbQ0BASF0oQzIoW0NIM10pW0NIM10pW0NIMl1bQ0BAXTEoW0NIM10pW0NIMl1bT0hd

>  <s_epik_cmdline>  (119) 
J2VwaWtfcHl0aG9uJywgJy1waHQnLCAnMi4wJywgJy1waCcsICc3LjAnLCAnLXRuJywgJzgnLCAnLW1hJywgJzIwMCcsICctaW1hZScsICc8aW5maWxlLm1hZT4nLCAnLW9tYWUnLCAnPG91dGZpbGUubWFlPic=

>  <r_lp_tautomer_probability>  (119) 
1

>  <r_epik_Ionization_Penalty>  (119) 
2.61181e-07

>  <r_epik_Ionization_Penalty_Charging>  (119) 
0

>  <r_epik_Ionization_Penalty_Neutral>  (119) 
2.61181e-07

>  <r_epik_State_Penalty>  (119) 
-0

>  <r_epik_Charging_Adjusted_Penalty>  (119) 
0

>  <i_epik_Tot_Q>  (119) 
0

>  <i_epik_Tot_abs_Q>  (119) 
0

>  <s_lp_Force_Field>  (119) 
OPLS3e

>  <r_lp_Energy>  (119) 
40.9474

>  <b_lp_Chiralities_Consistent>  (119) 
1

>  <s_lp_Variant>  (119) 
37:0-1

>  <s_i_glide_gridfile>  (119) 
pfpi4k_grid

>  <i_i_glide_lignum>  (119) 
9

>  <i_i_glide_rotatable_bonds>  (119) 
2

>  <r_i_docking_score>  (119) 
-2.52547

>  <r_i_glide_ligand_efficiency>  (119) 
-0.157842

>  <r_i_glide_ligand_efficiency_sa>  (119) 
-0.397737

>  <r_i_glide_ligand_efficiency_ln>  (119) 
-0.669427

>  <r_i_glide_gscore>  (119) 
-2.52547

>  <r_i_glide_lipo>  (119) 
-0.313133

>  <r_i_glide_hbond>  (119) 
0

>  <r_i_glide_metal>  (119) 
-0

>  <r_i_glide_rewards>  (119) 
-1.91584

>  <r_i_glide_evdw>  (119) 
-10.262

>  <r_i_glide_ecoul>  (119) 
-0.835263

>  <r_i_glide_erotb>  (119) 
0.341892

>  <r_i_glide_esite>  (119) 
0

>  <r_i_glide_emodel>  (119) 
-11.2578

>  <r_i_glide_energy>  (119) 
-11.0973

>  <r_i_glide_einternal>  (119) 
2.95126

>  <r_i_glide_intrahb_reward>  (119) 
-0

>  <i_i_glide_confnum>  (119) 
1

>  <i_i_glide_posenum>  (119) 
1

>  <r_i_glide_eff_state_penalty>  (119) 
0

>  <ligand_id>  (119) 
37

>  <original_smiles>  (119) 
CC1=CC(=O)C2CC(C)(CO)C1(C)C2(C)C

>  <smiles>  (119) 
[H]OC([H])([H])C1(C([H])([H])[H])C([H])([H])C2([H])C(=O)C([H])=C(C([H])([H])[H])C1(C([H])([H])[H])C2(C([H])([H])[H])C([H])([H])[H]

$$$$
38:0:0
     RDKit          3D

 47 52  0  0  1  0  0  0  0  0999 V2000
    5.2638   -0.7204    0.1215 C   0  0  0  0  0  0  0  0  0  0  0  0
    4.0360   -1.0623   -0.7694 C   0  0  0  0  0  0  0  0  0  0  0  0
    4.0282   -2.4341   -1.5163 C   0  0  1  0  0  0  0  0  0  0  0  0
    2.7006   -2.5787   -2.0262 O   0  0  0  0  0  0  0  0  0  0  0  0
    4.9917   -2.4227   -2.7309 C   0  0  0  0  0  0  0  0  0  0  0  0
    4.5890   -2.1193   -3.8549 O   0  0  0  0  0  0  0  0  0  0  0  0
    6.3151   -2.6910   -2.4703 O   0  0  0  0  0  0  0  0  0  0  0  0
    6.7998   -3.0459   -1.1677 C   0  0  0  0  0  0  0  0  0  0  0  0
    5.7518   -3.8692   -0.4270 C   0  0  0  0  0  0  0  0  0  0  0  0
    4.4236   -3.6108   -0.6156 C   0  0  0  0  0  0  0  0  0  0  0  0
    3.4343   -4.4434    0.0513 C   0  0  0  0  0  0  0  0  0  0  0  0
    3.8833   -5.4364    0.8549 C   0  0  0  0  0  0  0  0  0  0  0  0
    5.2584   -5.6416    1.0612 N   0  0  0  0  0  0  0  0  0  0  0  0
    6.2275   -4.9049    0.4892 C   0  0  0  0  0  0  0  0  0  0  0  0
    7.4270   -5.0573    0.7336 O   0  0  0  0  0  0  0  0  0  0  0  0
    5.5326   -6.7499    1.9701 C   0  0  0  0  0  0  0  0  0  0  0  0
    4.1609   -7.2375    2.2896 C   0  0  0  0  0  0  0  0  0  0  0  0
    3.7827   -8.2948    3.1163 C   0  0  0  0  0  0  0  0  0  0  0  0
    2.3989   -8.5431    3.2430 C   0  0  0  0  0  0  0  0  0  0  0  0
    1.9466   -9.6033    4.0796 C   0  0  0  0  0  0  0  0  0  0  0  0
    0.5691   -9.8480    4.2195 C   0  0  0  0  0  0  0  0  0  0  0  0
   -0.3099   -9.0144    3.5155 C   0  0  0  0  0  0  0  0  0  0  0  0
    0.1182   -7.9842    2.6919 C   0  0  0  0  0  0  0  0  0  0  0  0
    1.4820   -7.7074    2.5248 C   0  0  0  0  0  0  0  0  0  0  0  0
    1.8731   -6.6786    1.7213 N   0  0  0  0  0  0  0  0  0  0  0  0
    3.2010   -6.4778    1.6368 C   0  0  0  0  0  0  0  0  0  0  0  0
   -0.9102   -7.3022    2.1002 O   0  0  0  0  0  0  0  0  0  0  0  0
   -2.0908   -8.0667    2.3430 C   0  0  0  0  0  0  0  0  0  0  0  0
   -1.7885   -9.0207    3.5054 C   0  0  0  0  0  0  0  0  0  0  0  0
    5.0782    0.1975    0.7248 H   0  0  0  0  0  0  0  0  0  0  0  0
    6.1619   -0.6474   -0.4624 H   0  0  0  0  0  0  0  0  0  0  0  0
    5.4288   -1.4997    0.8552 H   0  0  0  0  0  0  0  0  0  0  0  0
    3.1229   -0.9703   -0.1642 H   0  0  0  0  0  0  0  0  0  0  0  0
    3.9830   -0.2774   -1.5229 H   0  0  0  0  0  0  0  0  0  0  0  0
    2.0844   -2.0607   -1.5116 H   0  0  0  0  0  0  0  0  0  0  0  0
    7.7100   -3.6716   -1.3340 H   0  0  0  0  0  0  0  0  0  0  0  0
    7.0696   -2.1848   -0.5968 H   0  0  0  0  0  0  0  0  0  0  0  0
    2.3681   -4.3310   -0.0996 H   0  0  0  0  0  0  0  0  0  0  0  0
    6.1241   -7.5110    1.4562 H   0  0  0  0  0  0  0  0  0  0  0  0
    6.0560   -6.3888    2.8586 H   0  0  0  0  0  0  0  0  0  0  0  0
    4.5244   -8.8816    3.6340 H   0  0  0  0  0  0  0  0  0  0  0  0
    2.6396  -10.2177    4.6309 H   0  0  0  0  0  0  0  0  0  0  0  0
    0.2088  -10.6470    4.8548 H   0  0  0  0  0  0  0  0  0  0  0  0
   -2.9658   -7.4599    2.5208 H   0  0  0  0  0  0  0  0  0  0  0  0
   -2.2662   -8.6581    1.4448 H   0  0  0  0  0  0  0  0  0  0  0  0
   -2.1915   -9.9985    3.2762 H   0  0  0  0  0  0  0  0  0  0  0  0
   -2.1875   -8.6620    4.4536 H   0  0  0  0  0  0  0  0  0  0  0  0
  1  2  1  0
  1 30  1  0
  1 31  1  0
  1 32  1  0
  2  3  1  0
  2 33  1  0
  2 34  1  0
  3 10  1  0
  3  4  1  6
  3  5  1  0
  4 35  1  0
  5  6  2  0
  5  7  1  0
  7  8  1  0
  8  9  1  0
  8 36  1  0
  8 37  1  0
  9 14  1  0
  9 10  2  0
 10 11  1  0
 11 12  2  0
 11 38  1  0
 12 26  1  0
 12 13  1  0
 13 14  1  0
 13 16  1  0
 14 15  2  0
 16 17  1  0
 16 39  1  0
 16 40  1  0
 17 26  2  0
 17 18  1  0
 18 19  2  0
 18 41  1  0
 19 24  1  0
 19 20  1  0
 20 21  2  0
 20 42  1  0
 21 22  1  0
 21 43  1  0
 22 29  1  0
 22 23  2  0
 23 24  1  0
 23 27  1  0
 24 25  2  0
 25 26  1  0
 27 28  1  0
 28 29  1  0
 28 44  1  0
 28 45  1  0
 29 46  1  0
 29 47  1  0
M  END
>  <i_m_ct_stereo_status>  (120) 
1

>  <s_m_source_file>  (120) 
/var/tmp/pbs.5076255.sched01/tmp06uo9b_r/40lj_pgbub.sdf

>  <i_m_source_file_index>  (120) 
10

>  <i_lp_mmshare_version>  (120) 
48012

>  <i_f3d_flags>  (120) 
0

>  <s_epik_input>  (120) 
W0NIMl0xT0MoPU8pW0NAXShbT0hdKShbQ0gyXVtDSDNdKWMoYzEyKVtjSF1jM24oYzI9TylbQ0gyXWM0YzNuYzVjKFtjSF00KVtjSF1bY0hdYzZjNU9bQ0gyXVtDSDJdNg==

>  <s_epik_cmdline>  (120) 
J2VwaWtfcHl0aG9uJywgJy1waHQnLCAnMi4wJywgJy1waCcsICc3LjAnLCAnLXRuJywgJzgnLCAnLW1hJywgJzIwMCcsICctaW1hZScsICc8aW5maWxlLm1hZT4nLCAnLW9tYWUnLCAnPG91dGZpbGUubWFlPic=

>  <r_lp_tautomer_probability>  (120) 
1

>  <r_epik_Ionization_Penalty>  (120) 
6.53606e-05

>  <r_epik_Ionization_Penalty_Charging>  (120) 
2.20167e-07

>  <r_epik_Ionization_Penalty_Neutral>  (120) 
6.51404e-05

>  <r_epik_State_Penalty>  (120) 
-0

>  <r_epik_Charging_Adjusted_Penalty>  (120) 
2.20167e-07

>  <i_epik_Tot_Q>  (120) 
0

>  <i_epik_Tot_abs_Q>  (120) 
0

>  <s_epik_Chemistry_Notes>  (120) 
This compound has an ester and may undergo hydrolysis at high or low pH.

>  <s_lp_Force_Field>  (120) 
OPLS3e

>  <r_lp_Energy>  (120) 
55.7878

>  <b_lp_Chiralities_Consistent>  (120) 
1

>  <s_lp_Variant>  (120) 
38:0-1

>  <s_i_glide_gridfile>  (120) 
pfpi4k_grid

>  <i_i_glide_lignum>  (120) 
10

>  <i_i_glide_rotatable_bonds>  (120) 
2

>  <r_i_docking_score>  (120) 
-4.15127

>  <r_i_glide_ligand_efficiency>  (120) 
-0.143147

>  <r_i_glide_ligand_efficiency_sa>  (120) 
-0.439794

>  <r_i_glide_ligand_efficiency_ln>  (120) 
-0.950536

>  <r_i_glide_gscore>  (120) 
-4.15127

>  <r_i_glide_lipo>  (120) 
-0.479578

>  <r_i_glide_hbond>  (120) 
-0.170747

>  <r_i_glide_metal>  (120) 
-0

>  <r_i_glide_rewards>  (120) 
-1.06067

>  <r_i_glide_evdw>  (120) 
-31.7154

>  <r_i_glide_ecoul>  (120) 
-5.69672

>  <r_i_glide_erotb>  (120) 
0

>  <r_i_glide_esite>  (120) 
0

>  <r_i_glide_emodel>  (120) 
-43.9051

>  <r_i_glide_energy>  (120) 
-37.4122

>  <r_i_glide_einternal>  (120) 
3.96627

>  <r_i_glide_intrahb_reward>  (120) 
-0

>  <i_i_glide_confnum>  (120) 
2

>  <i_i_glide_posenum>  (120) 
22

>  <r_i_glide_eff_state_penalty>  (120) 
0

>  <ligand_id>  (120) 
38

>  <original_smiles>  (120) 
CCC1(O)C(=O)OCc2c1cc1n(c2=O)Cc2cc3ccc4c(c3nc2-1)OCC4

>  <smiles>  (120) 
[H]OC1(C([H])([H])C([H])([H])[H])C(=O)OC([H])([H])c2c1c([H])c1n(c2=O)C([H])([H])c2c-1nc1c3c(c([H])c([H])c1c2[H])C([H])([H])C([H])([H])O3

$$$$
38:0:1
     RDKit          3D

 47 52  0  0  1  0  0  0  0  0999 V2000
    2.3805   -2.4279   -3.9247 C   0  0  0  0  0  0  0  0  0  0  0  0
    2.7742   -2.9117   -2.5214 C   0  0  0  0  0  0  0  0  0  0  0  0
    4.2888   -3.1531   -2.2730 C   0  0  1  0  0  0  0  0  0  0  0  0
    4.7619   -3.9309   -3.3543 O   0  0  0  0  0  0  0  0  0  0  0  0
    5.0660   -1.8067   -2.2410 C   0  0  0  0  0  0  0  0  0  0  0  0
    4.5987   -0.7527   -2.6608 O   0  0  0  0  0  0  0  0  0  0  0  0
    6.3371   -1.8661   -1.7473 O   0  0  0  0  0  0  0  0  0  0  0  0
    6.8985   -3.0624   -1.2234 C   0  0  0  0  0  0  0  0  0  0  0  0
    5.8602   -3.8952   -0.4958 C   0  0  0  0  0  0  0  0  0  0  0  0
    4.5853   -3.9072   -0.9560 C   0  0  0  0  0  0  0  0  0  0  0  0
    3.5789   -4.6762   -0.2121 C   0  0  0  0  0  0  0  0  0  0  0  0
    3.9684   -5.3395    0.8819 C   0  0  0  0  0  0  0  0  0  0  0  0
    5.2943   -5.3107    1.3299 N   0  0  0  0  0  0  0  0  0  0  0  0
    6.2846   -4.6279    0.7017 C   0  0  0  0  0  0  0  0  0  0  0  0
    7.4416   -4.6378    1.1139 O   0  0  0  0  0  0  0  0  0  0  0  0
    5.4792   -6.1012    2.5477 C   0  0  0  0  0  0  0  0  0  0  0  0
    4.0898   -6.6229    2.7984 C   0  0  0  0  0  0  0  0  0  0  0  0
    3.6415   -7.4406    3.8511 C   0  0  0  0  0  0  0  0  0  0  0  0
    2.2727   -7.7819    3.8550 C   0  0  0  0  0  0  0  0  0  0  0  0
    1.7473   -8.6040    4.8909 C   0  0  0  0  0  0  0  0  0  0  0  0
    0.3828   -8.9572    4.9022 C   0  0  0  0  0  0  0  0  0  0  0  0
   -0.4168   -8.4623    3.8588 C   0  0  0  0  0  0  0  0  0  0  0  0
    0.0826   -7.6496    2.8553 C   0  0  0  0  0  0  0  0  0  0  0  0
    1.4405   -7.2861    2.8067 C   0  0  0  0  0  0  0  0  0  0  0  0
    1.9096   -6.4908    1.8049 N   0  0  0  0  0  0  0  0  0  0  0  0
    3.2183   -6.1827    1.8219 C   0  0  0  0  0  0  0  0  0  0  0  0
   -0.8798   -7.2746    1.9684 O   0  0  0  0  0  0  0  0  0  0  0  0
   -2.0289   -8.0889    2.2270 C   0  0  0  0  0  0  0  0  0  0  0  0
   -1.8758   -8.6499    3.6405 C   0  0  0  0  0  0  0  0  0  0  0  0
    1.3044   -2.2819   -3.9759 H   0  0  0  0  0  0  0  0  0  0  0  0
    2.6126   -3.1902   -4.6703 H   0  0  0  0  0  0  0  0  0  0  0  0
    2.8466   -1.4943   -4.2408 H   0  0  0  0  0  0  0  0  0  0  0  0
    2.4271   -2.2001   -1.7792 H   0  0  0  0  0  0  0  0  0  0  0  0
    2.1942   -3.8195   -2.3732 H   0  0  0  0  0  0  0  0  0  0  0  0
    4.2962   -4.7583   -3.3508 H   0  0  0  0  0  0  0  0  0  0  0  0
    7.3646   -3.6399   -2.0237 H   0  0  0  0  0  0  0  0  0  0  0  0
    7.6904   -2.7722   -0.5367 H   0  0  0  0  0  0  0  0  0  0  0  0
    2.5420   -4.7603   -0.5146 H   0  0  0  0  0  0  0  0  0  0  0  0
    6.1814   -6.9251    2.3798 H   0  0  0  0  0  0  0  0  0  0  0  0
    5.8138   -5.4613    3.3706 H   0  0  0  0  0  0  0  0  0  0  0  0
    4.3183   -7.7755    4.6146 H   0  0  0  0  0  0  0  0  0  0  0  0
    2.3874   -8.9675    5.6806 H   0  0  0  0  0  0  0  0  0  0  0  0
   -0.0326   -9.5905    5.6763 H   0  0  0  0  0  0  0  0  0  0  0  0
   -2.9527   -7.5312    2.1228 H   0  0  0  0  0  0  0  0  0  0  0  0
   -2.0346   -8.9102    1.5094 H   0  0  0  0  0  0  0  0  0  0  0  0
   -2.2125   -9.6714    3.6532 H   0  0  0  0  0  0  0  0  0  0  0  0
   -2.4195   -8.0621    4.3700 H   0  0  0  0  0  0  0  0  0  0  0  0
  1  2  1  0
  1 30  1  0
  1 31  1  0
  1 32  1  0
  2  3  1  0
  2 33  1  0
  2 34  1  0
  3 10  1  0
  3  4  1  6
  3  5  1  0
  4 35  1  0
  5  6  2  0
  5  7  1  0
  7  8  1  0
  8  9  1  0
  8 36  1  0
  8 37  1  0
  9 14  1  0
  9 10  2  0
 10 11  1  0
 11 12  2  0
 11 38  1  0
 12 26  1  0
 12 13  1  0
 13 14  1  0
 13 16  1  0
 14 15  2  0
 16 17  1  0
 16 39  1  0
 16 40  1  0
 17 26  2  0
 17 18  1  0
 18 19  2  0
 18 41  1  0
 19 24  1  0
 19 20  1  0
 20 21  2  0
 20 42  1  0
 21 22  1  0
 21 43  1  0
 22 29  1  0
 22 23  2  0
 23 24  1  0
 23 27  1  0
 24 25  2  0
 25 26  1  0
 27 28  1  0
 28 29  1  0
 28 44  1  0
 28 45  1  0
 29 46  1  0
 29 47  1  0
M  END
>  <i_m_ct_stereo_status>  (121) 
1

>  <s_m_source_file>  (121) 
/var/tmp/pbs.5076255.sched01/tmp06uo9b_r/40lj_pgbub.sdf

>  <i_m_source_file_index>  (121) 
10

>  <i_lp_mmshare_version>  (121) 
48012

>  <i_f3d_flags>  (121) 
0

>  <s_epik_input>  (121) 
W0NIMl0xT0MoPU8pW0NAXShbT0hdKShbQ0gyXVtDSDNdKWMoYzEyKVtjSF1jM24oYzI9TylbQ0gyXWM0YzNuYzVjKFtjSF00KVtjSF1bY0hdYzZjNU9bQ0gyXVtDSDJdNg==

>  <s_epik_cmdline>  (121) 
J2VwaWtfcHl0aG9uJywgJy1waHQnLCAnMi4wJywgJy1waCcsICc3LjAnLCAnLXRuJywgJzgnLCAnLW1hJywgJzIwMCcsICctaW1hZScsICc8aW5maWxlLm1hZT4nLCAnLW9tYWUnLCAnPG91dGZpbGUubWFlPic=

>  <r_lp_tautomer_probability>  (121) 
1

>  <r_epik_Ionization_Penalty>  (121) 
6.53606e-05

>  <r_epik_Ionization_Penalty_Charging>  (121) 
2.20167e-07

>  <r_epik_Ionization_Penalty_Neutral>  (121) 
6.51404e-05

>  <r_epik_State_Penalty>  (121) 
-0

>  <r_epik_Charging_Adjusted_Penalty>  (121) 
2.20167e-07

>  <i_epik_Tot_Q>  (121) 
0

>  <i_epik_Tot_abs_Q>  (121) 
0

>  <s_epik_Chemistry_Notes>  (121) 
This compound has an ester and may undergo hydrolysis at high or low pH.

>  <s_lp_Force_Field>  (121) 
OPLS3e

>  <r_lp_Energy>  (121) 
55.7878

>  <b_lp_Chiralities_Consistent>  (121) 
1

>  <s_lp_Variant>  (121) 
38:0-1

>  <s_i_glide_gridfile>  (121) 
pfpi4k_grid

>  <i_i_glide_lignum>  (121) 
10

>  <i_i_glide_rotatable_bonds>  (121) 
2

>  <r_i_docking_score>  (121) 
-4.04411

>  <r_i_glide_ligand_efficiency>  (121) 
-0.139452

>  <r_i_glide_ligand_efficiency_sa>  (121) 
-0.42844

>  <r_i_glide_ligand_efficiency_ln>  (121) 
-0.925998

>  <r_i_glide_gscore>  (121) 
-4.04411

>  <r_i_glide_lipo>  (121) 
-0.509164

>  <r_i_glide_hbond>  (121) 
-0.234492

>  <r_i_glide_metal>  (121) 
-0

>  <r_i_glide_rewards>  (121) 
-0.822307

>  <r_i_glide_evdw>  (121) 
-28.2501

>  <r_i_glide_ecoul>  (121) 
-7.01948

>  <r_i_glide_erotb>  (121) 
0

>  <r_i_glide_esite>  (121) 
-0.0127185

>  <r_i_glide_emodel>  (121) 
-43.2758

>  <r_i_glide_energy>  (121) 
-35.2695

>  <r_i_glide_einternal>  (121) 
3.13393

>  <r_i_glide_intrahb_reward>  (121) 
-0

>  <i_i_glide_confnum>  (121) 
1

>  <i_i_glide_posenum>  (121) 
14

>  <r_i_glide_eff_state_penalty>  (121) 
0

>  <ligand_id>  (121) 
38

>  <original_smiles>  (121) 
CCC1(O)C(=O)OCc2c1cc1n(c2=O)Cc2cc3ccc4c(c3nc2-1)OCC4

>  <smiles>  (121) 
[H]OC1(C([H])([H])C([H])([H])[H])C(=O)OC([H])([H])c2c1c([H])c1n(c2=O)C([H])([H])c2c-1nc1c3c(c([H])c([H])c1c2[H])C([H])([H])C([H])([H])O3

$$$$
38:0:2
     RDKit          3D

 47 52  0  0  1  0  0  0  0  0999 V2000
    5.2665   -0.7045    0.0250 C   0  0  0  0  0  0  0  0  0  0  0  0
    4.0246   -1.1107   -0.8135 C   0  0  0  0  0  0  0  0  0  0  0  0
    4.0450   -2.4887   -1.5645 C   0  0  1  0  0  0  0  0  0  0  0  0
    2.7259   -2.6903   -2.0663 O   0  0  0  0  0  0  0  0  0  0  0  0
    5.0081   -2.4550   -2.7656 C   0  0  0  0  0  0  0  0  0  0  0  0
    4.6086   -2.1883   -3.9085 O   0  0  0  0  0  0  0  0  0  0  0  0
    6.3341   -2.6702   -2.4796 O   0  0  0  0  0  0  0  0  0  0  0  0
    6.8225   -3.1255   -1.2053 C   0  0  0  0  0  0  0  0  0  0  0  0
    5.7656   -3.9173   -0.4554 C   0  0  0  0  0  0  0  0  0  0  0  0
    4.4388   -3.6581   -0.6423 C   0  0  0  0  0  0  0  0  0  0  0  0
    3.4439   -4.4866    0.0323 C   0  0  0  0  0  0  0  0  0  0  0  0
    3.8854   -5.4867    0.8322 C   0  0  0  0  0  0  0  0  0  0  0  0
    5.2569   -5.6916    1.0408 N   0  0  0  0  0  0  0  0  0  0  0  0
    6.2318   -4.9570    0.4744 C   0  0  0  0  0  0  0  0  0  0  0  0
    7.4275   -5.1134    0.7167 O   0  0  0  0  0  0  0  0  0  0  0  0
    5.5344   -6.8076    1.9436 C   0  0  0  0  0  0  0  0  0  0  0  0
    4.1557   -7.2894    2.2634 C   0  0  0  0  0  0  0  0  0  0  0  0
    3.7747   -8.3430    3.0869 C   0  0  0  0  0  0  0  0  0  0  0  0
    2.3913   -8.5833    3.2178 C   0  0  0  0  0  0  0  0  0  0  0  0
    1.9407   -9.6350    4.0544 C   0  0  0  0  0  0  0  0  0  0  0  0
    0.5656   -9.8735    4.2039 C   0  0  0  0  0  0  0  0  0  0  0  0
   -0.3173   -9.0355    3.5058 C   0  0  0  0  0  0  0  0  0  0  0  0
    0.1106   -8.0123    2.6739 C   0  0  0  0  0  0  0  0  0  0  0  0
    1.4750   -7.7448    2.5042 C   0  0  0  0  0  0  0  0  0  0  0  0
    1.8793   -6.7250    1.7041 N   0  0  0  0  0  0  0  0  0  0  0  0
    3.2041   -6.5163    1.6058 C   0  0  0  0  0  0  0  0  0  0  0  0
   -0.9141   -7.3300    2.0804 O   0  0  0  0  0  0  0  0  0  0  0  0
   -2.0944   -8.0933    2.3303 C   0  0  0  0  0  0  0  0  0  0  0  0
   -1.7941   -9.0311    3.4999 C   0  0  0  0  0  0  0  0  0  0  0  0
    5.0906    0.1996    0.6296 H   0  0  0  0  0  0  0  0  0  0  0  0
    6.1377   -0.5710   -0.6139 H   0  0  0  0  0  0  0  0  0  0  0  0
    5.5225   -1.4823    0.7423 H   0  0  0  0  0  0  0  0  0  0  0  0
    3.1384   -1.0487   -0.1735 H   0  0  0  0  0  0  0  0  0  0  0  0
    3.9111   -0.3217   -1.5595 H   0  0  0  0  0  0  0  0  0  0  0  0
    2.6501   -3.5698   -2.4111 H   0  0  0  0  0  0  0  0  0  0  0  0
    7.7015   -3.7637   -1.4081 H   0  0  0  0  0  0  0  0  0  0  0  0
    7.1454   -2.2852   -0.6029 H   0  0  0  0  0  0  0  0  0  0  0  0
    2.3721   -4.3808   -0.1054 H   0  0  0  0  0  0  0  0  0  0  0  0
    6.1122   -7.5726    1.4253 H   0  0  0  0  0  0  0  0  0  0  0  0
    6.0551   -6.4537    2.8322 H   0  0  0  0  0  0  0  0  0  0  0  0
    4.5151   -8.9285    3.6019 H   0  0  0  0  0  0  0  0  0  0  0  0
    2.6322  -10.2570    4.6043 H   0  0  0  0  0  0  0  0  0  0  0  0
    0.1951  -10.6690    4.8358 H   0  0  0  0  0  0  0  0  0  0  0  0
   -2.9612   -7.4627    2.5112 H   0  0  0  0  0  0  0  0  0  0  0  0
   -2.2774   -8.7094    1.4500 H   0  0  0  0  0  0  0  0  0  0  0  0
   -2.1830  -10.0116    3.2747 H   0  0  0  0  0  0  0  0  0  0  0  0
   -2.1815   -8.6717    4.4502 H   0  0  0  0  0  0  0  0  0  0  0  0
  1  2  1  0
  1 30  1  0
  1 31  1  0
  1 32  1  0
  2  3  1  0
  2 33  1  0
  2 34  1  0
  3 10  1  0
  3  4  1  6
  3  5  1  0
  4 35  1  0
  5  6  2  0
  5  7  1  0
  7  8  1  0
  8  9  1  0
  8 36  1  0
  8 37  1  0
  9 14  1  0
  9 10  2  0
 10 11  1  0
 11 12  2  0
 11 38  1  0
 12 26  1  0
 12 13  1  0
 13 14  1  0
 13 16  1  0
 14 15  2  0
 16 17  1  0
 16 39  1  0
 16 40  1  0
 17 26  2  0
 17 18  1  0
 18 19  2  0
 18 41  1  0
 19 24  1  0
 19 20  1  0
 20 21  2  0
 20 42  1  0
 21 22  1  0
 21 43  1  0
 22 29  1  0
 22 23  2  0
 23 24  1  0
 23 27  1  0
 24 25  2  0
 25 26  1  0
 27 28  1  0
 28 29  1  0
 28 44  1  0
 28 45  1  0
 29 46  1  0
 29 47  1  0
M  END
>  <i_m_ct_stereo_status>  (122) 
1

>  <s_m_source_file>  (122) 
/var/tmp/pbs.5076255.sched01/tmp06uo9b_r/40lj_pgbub.sdf

>  <i_m_source_file_index>  (122) 
10

>  <i_lp_mmshare_version>  (122) 
48012

>  <i_f3d_flags>  (122) 
0

>  <s_epik_input>  (122) 
W0NIMl0xT0MoPU8pW0NAXShbT0hdKShbQ0gyXVtDSDNdKWMoYzEyKVtjSF1jM24oYzI9TylbQ0gyXWM0YzNuYzVjKFtjSF00KVtjSF1bY0hdYzZjNU9bQ0gyXVtDSDJdNg==

>  <s_epik_cmdline>  (122) 
J2VwaWtfcHl0aG9uJywgJy1waHQnLCAnMi4wJywgJy1waCcsICc3LjAnLCAnLXRuJywgJzgnLCAnLW1hJywgJzIwMCcsICctaW1hZScsICc8aW5maWxlLm1hZT4nLCAnLW9tYWUnLCAnPG91dGZpbGUubWFlPic=

>  <r_lp_tautomer_probability>  (122) 
1

>  <r_epik_Ionization_Penalty>  (122) 
6.53606e-05

>  <r_epik_Ionization_Penalty_Charging>  (122) 
2.20167e-07

>  <r_epik_Ionization_Penalty_Neutral>  (122) 
6.51404e-05

>  <r_epik_State_Penalty>  (122) 
-0

>  <r_epik_Charging_Adjusted_Penalty>  (122) 
2.20167e-07

>  <i_epik_Tot_Q>  (122) 
0

>  <i_epik_Tot_abs_Q>  (122) 
0

>  <s_epik_Chemistry_Notes>  (122) 
This compound has an ester and may undergo hydrolysis at high or low pH.

>  <s_lp_Force_Field>  (122) 
OPLS3e

>  <r_lp_Energy>  (122) 
55.7878

>  <b_lp_Chiralities_Consistent>  (122) 
1

>  <s_lp_Variant>  (122) 
38:0-1

>  <s_i_glide_gridfile>  (122) 
pfpi4k_grid

>  <i_i_glide_lignum>  (122) 
10

>  <i_i_glide_rotatable_bonds>  (122) 
2

>  <r_i_docking_score>  (122) 
-3.94328

>  <r_i_glide_ligand_efficiency>  (122) 
-0.135975

>  <r_i_glide_ligand_efficiency_sa>  (122) 
-0.417759

>  <r_i_glide_ligand_efficiency_ln>  (122) 
-0.902912

>  <r_i_glide_gscore>  (122) 
-3.94328

>  <r_i_glide_lipo>  (122) 
-0.492924

>  <r_i_glide_hbond>  (122) 
-0.203284

>  <r_i_glide_metal>  (122) 
-0

>  <r_i_glide_rewards>  (122) 
-1.05738

>  <r_i_glide_evdw>  (122) 
-31.5619

>  <r_i_glide_ecoul>  (122) 
-4.07737

>  <r_i_glide_erotb>  (122) 
0

>  <r_i_glide_esite>  (122) 
0

>  <r_i_glide_emodel>  (122) 
-42.4493

>  <r_i_glide_energy>  (122) 
-35.6392

>  <r_i_glide_einternal>  (122) 
4.00427

>  <r_i_glide_intrahb_reward>  (122) 
-0

>  <i_i_glide_confnum>  (122) 
4

>  <i_i_glide_posenum>  (122) 
25

>  <r_i_glide_eff_state_penalty>  (122) 
0

>  <ligand_id>  (122) 
38

>  <original_smiles>  (122) 
CCC1(O)C(=O)OCc2c1cc1n(c2=O)Cc2cc3ccc4c(c3nc2-1)OCC4

>  <smiles>  (122) 
[H]OC1(C([H])([H])C([H])([H])[H])C(=O)OC([H])([H])c2c1c([H])c1n(c2=O)C([H])([H])c2c-1nc1c3c(c([H])c([H])c1c2[H])C([H])([H])C([H])([H])O3

$$$$
39:0:0
     RDKit          3D

 59 63  0  0  1  0  0  0  0  0999 V2000
    8.1272   -6.2270    2.9639 C   0  0  0  0  0  0  0  0  0  0  0  0
    6.9091   -6.1363    2.0165 C   0  0  2  0  0  0  0  0  0  0  0  0
    6.9408   -4.7889    1.2106 C   0  0  0  0  0  0  0  0  0  0  0  0
    7.9548   -4.4379    0.4306 C   0  0  0  0  0  0  0  0  0  0  0  0
    7.8054   -3.0609   -0.1806 C   0  0  0  0  0  0  0  0  0  0  0  0
    6.2925   -2.7637   -0.0142 C   0  0  2  0  0  0  0  0  0  0  0  0
    5.6142   -3.2564   -1.3207 C   0  0  0  0  0  0  0  0  0  0  0  0
    5.9876   -1.2604    0.2051 C   0  0  0  0  0  0  0  0  0  0  0  0
    4.5496   -0.9094    0.6541 C   0  0  0  0  0  0  0  0  0  0  0  0
    4.2442   -1.2394    2.1370 C   0  0  1  0  0  0  0  0  0  0  0  0
    3.2288   -0.3557    2.5875 O   0  0  0  0  0  0  0  0  0  0  0  0
    3.9222   -2.7422    2.5393 C   0  0  2  0  0  0  0  0  0  0  0  0
    2.5146   -2.9025    2.6252 O   0  0  0  0  0  0  0  0  0  0  0  0
    4.5445   -3.0806    3.9358 C   0  0  1  0  0  0  0  0  0  0  0  0
    3.6815   -2.7308    5.1629 C   0  0  0  0  0  0  0  0  0  0  0  0
    5.2180   -4.4660    4.0324 C   0  0  0  0  0  0  0  0  0  0  0  0
    4.5911   -5.6310    3.2252 C   0  0  2  0  0  0  0  0  0  0  0  0
    3.6125   -6.2749    4.2675 C   0  0  0  0  0  0  0  0  0  0  0  0
    5.5943   -6.6854    2.7199 C   0  0  1  0  0  0  0  0  0  0  0  0
    4.7016   -7.6014    1.8232 C   0  0  0  0  0  0  0  0  0  0  0  0
    3.4687   -6.7102    1.4327 C   0  0  0  0  0  0  0  0  0  0  0  0
    3.8577   -5.2490    1.8972 C   0  0  1  0  0  0  0  0  0  0  0  0
    4.3787   -5.4581    0.5722 O   0  0  0  0  0  0  0  0  0  0  0  0
    4.3580   -3.7960    1.4642 C   0  0  2  0  0  0  0  0  0  0  0  0
    5.9350   -3.6050    1.2449 C   0  0  1  0  0  0  0  0  0  0  0  0
    9.0663   -6.1138    2.4225 H   0  0  0  0  0  0  0  0  0  0  0  0
    8.1734   -7.1973    3.4599 H   0  0  0  0  0  0  0  0  0  0  0  0
    8.1123   -5.4659    3.7428 H   0  0  0  0  0  0  0  0  0  0  0  0
    7.1480   -6.8753    1.2504 H   0  0  0  0  0  0  0  0  0  0  0  0
    8.8361   -5.0409    0.2572 H   0  0  0  0  0  0  0  0  0  0  0  0
    8.4236   -2.3767    0.3995 H   0  0  0  0  0  0  0  0  0  0  0  0
    8.1528   -3.0419   -1.2154 H   0  0  0  0  0  0  0  0  0  0  0  0
    4.5407   -3.0857   -1.3522 H   0  0  0  0  0  0  0  0  0  0  0  0
    5.7729   -4.3266   -1.4619 H   0  0  0  0  0  0  0  0  0  0  0  0
    6.0323   -2.7596   -2.1976 H   0  0  0  0  0  0  0  0  0  0  0  0
    6.6917   -0.8446    0.9286 H   0  0  0  0  0  0  0  0  0  0  0  0
    6.1909   -0.7329   -0.7235 H   0  0  0  0  0  0  0  0  0  0  0  0
    4.4766    0.1713    0.5389 H   0  0  0  0  0  0  0  0  0  0  0  0
    3.7934   -1.3032   -0.0253 H   0  0  0  0  0  0  0  0  0  0  0  0
    5.1299   -0.9007    2.6757 H   0  0  0  0  0  0  0  0  0  0  0  0
    2.4664   -0.4369    2.0330 H   0  0  0  0  0  0  0  0  0  0  0  0
    2.1279   -2.5643    1.8339 H   0  0  0  0  0  0  0  0  0  0  0  0
    5.3947   -2.4253    4.0755 H   0  0  0  0  0  0  0  0  0  0  0  0
    2.8184   -3.3815    5.2556 H   0  0  0  0  0  0  0  0  0  0  0  0
    3.3327   -1.7003    5.0989 H   0  0  0  0  0  0  0  0  0  0  0  0
    4.2673   -2.8083    6.0793 H   0  0  0  0  0  0  0  0  0  0  0  0
    6.2401   -4.3481    3.7236 H   0  0  0  0  0  0  0  0  0  0  0  0
    5.3445   -4.7261    5.0775 H   0  0  0  0  0  0  0  0  0  0  0  0
    3.2724   -7.2754    4.0169 H   0  0  0  0  0  0  0  0  0  0  0  0
    2.7266   -5.6588    4.4030 H   0  0  0  0  0  0  0  0  0  0  0  0
    4.0758   -6.4088    5.2420 H   0  0  0  0  0  0  0  0  0  0  0  0
    5.9152   -7.2948    3.5664 H   0  0  0  0  0  0  0  0  0  0  0  0
    5.2400   -7.9569    0.9417 H   0  0  0  0  0  0  0  0  0  0  0  0
    4.3711   -8.4842    2.3650 H   0  0  0  0  0  0  0  0  0  0  0  0
    2.9841   -6.9774    0.4768 H   0  0  0  0  0  0  0  0  0  0  0  0
    2.6362   -7.0199    2.0565 H   0  0  0  0  0  0  0  0  0  0  0  0
    3.6959   -5.2627   -0.0513 H   0  0  0  0  0  0  0  0  0  0  0  0
    3.7904   -3.4213    0.6026 H   0  0  0  0  0  0  0  0  0  0  0  0
    6.3360   -3.0208    2.0664 H   0  0  0  0  0  0  0  0  0  0  0  0
  1  2  1  0
  1 26  1  0
  1 27  1  0
  1 28  1  0
  2 19  1  0
  2  3  1  0
  2 29  1  6
  3 25  1  0
  3  4  2  0
  4  5  1  0
  4 30  1  0
  5  6  1  0
  5 31  1  0
  5 32  1  0
  6 25  1  0
  6  7  1  6
  6  8  1  0
  7 33  1  0
  7 34  1  0
  7 35  1  0
  8  9  1  0
  8 36  1  0
  8 37  1  0
  9 10  1  0
  9 38  1  0
  9 39  1  0
 10 11  1  0
 10 12  1  0
 10 40  1  1
 11 41  1  0
 12 24  1  0
 12 13  1  1
 12 14  1  0
 13 42  1  0
 14 15  1  0
 14 16  1  0
 14 43  1  1
 15 44  1  0
 15 45  1  0
 15 46  1  0
 16 17  1  0
 16 47  1  0
 16 48  1  0
 17 22  1  0
 17 18  1  1
 17 19  1  0
 18 49  1  0
 18 50  1  0
 18 51  1  0
 19 20  1  0
 19 52  1  1
 20 21  1  0
 20 53  1  0
 20 54  1  0
 21 22  1  0
 21 55  1  0
 21 56  1  0
 22 23  1  6
 22 24  1  0
 23 57  1  0
 24 25  1  0
 24 58  1  6
 25 59  1  1
M  END
>  <i_m_ct_stereo_status>  (123) 
1

>  <s_m_source_file>  (123) 
/var/tmp/pbs.5076255.sched01/tmp06uo9b_r/40lj_pgbub.sdf

>  <i_m_source_file_index>  (123) 
11

>  <i_lp_mmshare_version>  (123) 
48012

>  <i_f3d_flags>  (123) 
0

>  <s_epik_input>  (123) 
W0NIM11bQ0BAXTEyW0NAQEhdM0MoPVtDSF1bQ0gyXTEpW0NAQEhdKFtDSDNdKVtDQEhdNFtDQF01KFtDSDNdKVtDQEBdKFtPSF0pKFtDSDJdW0NIMl00KVtDQEhdM1tDQEBdKFtPSF0pKFtDQEBIXShbQ0gzXSlbQ0gyXTUpW0NASF0oW09IXSlbQ0gyXVtDSDJdMg==

>  <s_epik_cmdline>  (123) 
J2VwaWtfcHl0aG9uJywgJy1waHQnLCAnMi4wJywgJy1waCcsICc3LjAnLCAnLXRuJywgJzgnLCAnLW1hJywgJzIwMCcsICctaW1hZScsICc8aW5maWxlLm1hZT4nLCAnLW9tYWUnLCAnPG91dGZpbGUubWFlPic=

>  <r_lp_tautomer_probability>  (123) 
1

>  <r_epik_Ionization_Penalty>  (123) 
8.96564e-06

>  <r_epik_Ionization_Penalty_Charging>  (123) 
0

>  <r_epik_Ionization_Penalty_Neutral>  (123) 
8.96564e-06

>  <r_epik_State_Penalty>  (123) 
-0

>  <r_epik_Charging_Adjusted_Penalty>  (123) 
0

>  <i_epik_Tot_Q>  (123) 
0

>  <i_epik_Tot_abs_Q>  (123) 
0

>  <s_lp_Force_Field>  (123) 
OPLS3e

>  <r_lp_Energy>  (123) 
179.174

>  <b_lp_Chiralities_Consistent>  (123) 
1

>  <s_lp_Variant>  (123) 
39:0-1

>  <s_i_glide_gridfile>  (123) 
pfpi4k_grid

>  <i_i_glide_lignum>  (123) 
11

>  <i_i_glide_rotatable_bonds>  (123) 
3

>  <r_i_docking_score>  (123) 
-3.4712

>  <r_i_glide_ligand_efficiency>  (123) 
-0.138848

>  <r_i_glide_ligand_efficiency_sa>  (123) 
-0.405995

>  <r_i_glide_ligand_efficiency_ln>  (123) 
-0.822779

>  <r_i_glide_gscore>  (123) 
-3.4712

>  <r_i_glide_lipo>  (123) 
-0.982387

>  <r_i_glide_hbond>  (123) 
0

>  <r_i_glide_metal>  (123) 
-0

>  <r_i_glide_rewards>  (123) 
-1.04657

>  <r_i_glide_evdw>  (123) 
-24.5594

>  <r_i_glide_ecoul>  (123) 
-1.42853

>  <r_i_glide_erotb>  (123) 
0

>  <r_i_glide_esite>  (123) 
0

>  <r_i_glide_emodel>  (123) 
-31.6101

>  <r_i_glide_energy>  (123) 
-25.988

>  <r_i_glide_einternal>  (123) 
0.23511

>  <r_i_glide_intrahb_reward>  (123) 
-0

>  <i_i_glide_confnum>  (123) 
1

>  <i_i_glide_posenum>  (123) 
40

>  <r_i_glide_eff_state_penalty>  (123) 
0

>  <ligand_id>  (123) 
39

>  <original_smiles>  (123) 
CC1C2=CCC3(C)CCC(O)C4(O)C(C)CC5(C)C1CCC5(O)C4C23

>  <smiles>  (123) 
[H]OC1([H])C([H])([H])C([H])([H])C2(C([H])([H])[H])C([H])([H])C([H])=C3C([H])(C([H])([H])[H])C4([H])C([H])([H])C([H])([H])C5(O[H])C([H])(C32[H])C1(O[H])C([H])(C([H])([H])[H])C([H])([H])C45C([H])([H])[H]

$$$$
39:0:1
     RDKit          3D

 59 63  0  0  1  0  0  0  0  0999 V2000
    6.9105   -6.1646    2.9075 C   0  0  0  0  0  0  0  0  0  0  0  0
    5.8476   -5.8574    1.8299 C   0  0  2  0  0  0  0  0  0  0  0  0
    6.1561   -4.4891    1.1285 C   0  0  0  0  0  0  0  0  0  0  0  0
    7.2994   -4.2444    0.4860 C   0  0  0  0  0  0  0  0  0  0  0  0
    7.4076   -2.8268   -0.0318 C   0  0  0  0  0  0  0  0  0  0  0  0
    5.9401   -2.3365   -0.0246 C   0  0  2  0  0  0  0  0  0  0  0  0
    5.3720   -2.6624   -1.4319 C   0  0  0  0  0  0  0  0  0  0  0  0
    5.8064   -0.8222    0.2662 C   0  0  0  0  0  0  0  0  0  0  0  0
    4.3824   -0.3090    0.5666 C   0  0  0  0  0  0  0  0  0  0  0  0
    3.8528   -0.6629    1.9736 C   0  0  1  0  0  0  0  0  0  0  0  0
    2.8947    0.3253    2.3169 O   0  0  0  0  0  0  0  0  0  0  0  0
    3.2877   -2.1242    2.2265 C   0  0  2  0  0  0  0  0  0  0  0  0
    1.8695   -2.0859    2.1273 O   0  0  0  0  0  0  0  0  0  0  0  0
    3.6898   -2.6081    3.6627 C   0  0  1  0  0  0  0  0  0  0  0  0
    2.7225   -2.2143    4.7953 C   0  0  0  0  0  0  0  0  0  0  0  0
    4.1815   -4.0727    3.7423 C   0  0  0  0  0  0  0  0  0  0  0  0
    3.4956   -5.0993    2.7891 C   0  0  2  0  0  0  0  0  0  0  0  0
    2.3053   -5.6482    3.6561 C   0  0  0  0  0  0  0  0  0  0  0  0
    4.3942   -6.2589    2.3323 C   0  0  1  0  0  0  0  0  0  0  0  0
    3.5046   -6.9926    1.2759 C   0  0  0  0  0  0  0  0  0  0  0  0
    2.4580   -5.9173    0.7937 C   0  0  0  0  0  0  0  0  0  0  0  0
    2.9908   -4.5574    1.4039 C   0  0  1  0  0  0  0  0  0  0  0  0
    3.6469   -4.7605    0.1417 O   0  0  0  0  0  0  0  0  0  0  0  0
    3.7162   -3.1613    1.1375 C   0  0  2  0  0  0  0  0  0  0  0  0
    5.3216   -3.1793    1.1261 C   0  0  1  0  0  0  0  0  0  0  0  0
    7.9180   -6.1476    2.4917 H   0  0  0  0  0  0  0  0  0  0  0  0
    6.7650   -7.1586    3.3314 H   0  0  0  0  0  0  0  0  0  0  0  0
    6.8936   -5.4588    3.7373 H   0  0  0  0  0  0  0  0  0  0  0  0
    6.0787   -6.5795    1.0486 H   0  0  0  0  0  0  0  0  0  0  0  0
    8.1100   -4.9504    0.3794 H   0  0  0  0  0  0  0  0  0  0  0  0
    8.0261   -2.2651    0.6664 H   0  0  0  0  0  0  0  0  0  0  0  0
    7.8822   -2.7934   -1.0127 H   0  0  0  0  0  0  0  0  0  0  0  0
    4.3410   -2.3416   -1.5764 H   0  0  0  0  0  0  0  0  0  0  0  0
    5.4081   -3.7379   -1.6292 H   0  0  0  0  0  0  0  0  0  0  0  0
    5.9568   -2.1790   -2.2165 H   0  0  0  0  0  0  0  0  0  0  0  0
    6.4595   -0.5519    1.0971 H   0  0  0  0  0  0  0  0  0  0  0  0
    6.1903   -0.2736   -0.5918 H   0  0  0  0  0  0  0  0  0  0  0  0
    4.4536    0.7749    0.5079 H   0  0  0  0  0  0  0  0  0  0  0  0
    3.6731   -0.5693   -0.2132 H   0  0  0  0  0  0  0  0  0  0  0  0
    4.6932   -0.4627    2.6403 H   0  0  0  0  0  0  0  0  0  0  0  0
    3.2946    1.1802    2.2630 H   0  0  0  0  0  0  0  0  0  0  0  0
    1.6469   -1.5450    1.3817 H   0  0  0  0  0  0  0  0  0  0  0  0
    4.5927   -2.0743    3.9479 H   0  0  0  0  0  0  0  0  0  0  0  0
    1.7713   -2.7384    4.7448 H   0  0  0  0  0  0  0  0  0  0  0  0
    2.5175   -1.1449    4.7638 H   0  0  0  0  0  0  0  0  0  0  0  0
    3.1656   -2.4135    5.7722 H   0  0  0  0  0  0  0  0  0  0  0  0
    5.2557   -4.0705    3.5952 H   0  0  0  0  0  0  0  0  0  0  0  0
    4.1186   -4.4071    4.7759 H   0  0  0  0  0  0  0  0  0  0  0  0
    1.8675   -6.5770    3.3017 H   0  0  0  0  0  0  0  0  0  0  0  0
    1.4932   -4.9270    3.7293 H   0  0  0  0  0  0  0  0  0  0  0  0
    2.6117   -5.8992    4.6701 H   0  0  0  0  0  0  0  0  0  0  0  0
    4.5178   -6.9452    3.1692 H   0  0  0  0  0  0  0  0  0  0  0  0
    4.1043   -7.3713    0.4476 H   0  0  0  0  0  0  0  0  0  0  0  0
    2.9956   -7.8498    1.7155 H   0  0  0  0  0  0  0  0  0  0  0  0
    2.0679   -6.0623   -0.2349 H   0  0  0  0  0  0  0  0  0  0  0  0
    1.5201   -6.1418    1.2948 H   0  0  0  0  0  0  0  0  0  0  0  0
    3.0114   -5.0351   -0.5040 H   0  0  0  0  0  0  0  0  0  0  0  0
    3.3059   -2.6677    0.2433 H   0  0  0  0  0  0  0  0  0  0  0  0
    5.6885   -2.6978    2.0267 H   0  0  0  0  0  0  0  0  0  0  0  0
  1  2  1  0
  1 26  1  0
  1 27  1  0
  1 28  1  0
  2 19  1  0
  2  3  1  0
  2 29  1  6
  3 25  1  0
  3  4  2  0
  4  5  1  0
  4 30  1  0
  5  6  1  0
  5 31  1  0
  5 32  1  0
  6 25  1  0
  6  7  1  6
  6  8  1  0
  7 33  1  0
  7 34  1  0
  7 35  1  0
  8  9  1  0
  8 36  1  0
  8 37  1  0
  9 10  1  0
  9 38  1  0
  9 39  1  0
 10 11  1  0
 10 12  1  0
 10 40  1  1
 11 41  1  0
 12 24  1  0
 12 13  1  1
 12 14  1  0
 13 42  1  0
 14 15  1  0
 14 16  1  0
 14 43  1  1
 15 44  1  0
 15 45  1  0
 15 46  1  0
 16 17  1  0
 16 47  1  0
 16 48  1  0
 17 22  1  0
 17 18  1  1
 17 19  1  0
 18 49  1  0
 18 50  1  0
 18 51  1  0
 19 20  1  0
 19 52  1  1
 20 21  1  0
 20 53  1  0
 20 54  1  0
 21 22  1  0
 21 55  1  0
 21 56  1  0
 22 23  1  6
 22 24  1  0
 23 57  1  0
 24 25  1  0
 24 58  1  6
 25 59  1  1
M  END
>  <i_m_ct_stereo_status>  (124) 
1

>  <s_m_source_file>  (124) 
/var/tmp/pbs.5076255.sched01/tmp06uo9b_r/40lj_pgbub.sdf

>  <i_m_source_file_index>  (124) 
11

>  <i_lp_mmshare_version>  (124) 
48012

>  <i_f3d_flags>  (124) 
0

>  <s_epik_input>  (124) 
W0NIM11bQ0BAXTEyW0NAQEhdM0MoPVtDSF1bQ0gyXTEpW0NAQEhdKFtDSDNdKVtDQEhdNFtDQF01KFtDSDNdKVtDQEBdKFtPSF0pKFtDSDJdW0NIMl00KVtDQEhdM1tDQEBdKFtPSF0pKFtDQEBIXShbQ0gzXSlbQ0gyXTUpW0NASF0oW09IXSlbQ0gyXVtDSDJdMg==

>  <s_epik_cmdline>  (124) 
J2VwaWtfcHl0aG9uJywgJy1waHQnLCAnMi4wJywgJy1waCcsICc3LjAnLCAnLXRuJywgJzgnLCAnLW1hJywgJzIwMCcsICctaW1hZScsICc8aW5maWxlLm1hZT4nLCAnLW9tYWUnLCAnPG91dGZpbGUubWFlPic=

>  <r_lp_tautomer_probability>  (124) 
1

>  <r_epik_Ionization_Penalty>  (124) 
8.96564e-06

>  <r_epik_Ionization_Penalty_Charging>  (124) 
0

>  <r_epik_Ionization_Penalty_Neutral>  (124) 
8.96564e-06

>  <r_epik_State_Penalty>  (124) 
-0

>  <r_epik_Charging_Adjusted_Penalty>  (124) 
0

>  <i_epik_Tot_Q>  (124) 
0

>  <i_epik_Tot_abs_Q>  (124) 
0

>  <s_lp_Force_Field>  (124) 
OPLS3e

>  <r_lp_Energy>  (124) 
179.174

>  <b_lp_Chiralities_Consistent>  (124) 
1

>  <s_lp_Variant>  (124) 
39:0-1

>  <s_i_glide_gridfile>  (124) 
pfpi4k_grid

>  <i_i_glide_lignum>  (124) 
11

>  <i_i_glide_rotatable_bonds>  (124) 
3

>  <r_i_docking_score>  (124) 
-3.28399

>  <r_i_glide_ligand_efficiency>  (124) 
-0.13136

>  <r_i_glide_ligand_efficiency_sa>  (124) 
-0.384098

>  <r_i_glide_ligand_efficiency_ln>  (124) 
-0.778404

>  <r_i_glide_gscore>  (124) 
-3.28399

>  <r_i_glide_lipo>  (124) 
-0.774835

>  <r_i_glide_hbond>  (124) 
-0.0495971

>  <r_i_glide_metal>  (124) 
-0

>  <r_i_glide_rewards>  (124) 
-1.04657

>  <r_i_glide_evdw>  (124) 
-25.4717

>  <r_i_glide_ecoul>  (124) 
-0.929361

>  <r_i_glide_erotb>  (124) 
0

>  <r_i_glide_esite>  (124) 
0

>  <r_i_glide_emodel>  (124) 
-31.2066

>  <r_i_glide_energy>  (124) 
-26.4011

>  <r_i_glide_einternal>  (124) 
1.09937

>  <r_i_glide_intrahb_reward>  (124) 
-0

>  <i_i_glide_confnum>  (124) 
2

>  <i_i_glide_posenum>  (124) 
17

>  <r_i_glide_eff_state_penalty>  (124) 
0

>  <ligand_id>  (124) 
39

>  <original_smiles>  (124) 
CC1C2=CCC3(C)CCC(O)C4(O)C(C)CC5(C)C1CCC5(O)C4C23

>  <smiles>  (124) 
[H]OC1([H])C([H])([H])C([H])([H])C2(C([H])([H])[H])C([H])([H])C([H])=C3C([H])(C([H])([H])[H])C4([H])C([H])([H])C([H])([H])C5(O[H])C([H])(C32[H])C1(O[H])C([H])(C([H])([H])[H])C([H])([H])C45C([H])([H])[H]

$$$$
39:0:2
     RDKit          3D

 59 63  0  0  1  0  0  0  0  0999 V2000
    6.9526   -5.9874    2.2993 C   0  0  0  0  0  0  0  0  0  0  0  0
    5.6452   -5.7085    1.5225 C   0  0  2  0  0  0  0  0  0  0  0  0
    5.6157   -4.2293    1.0055 C   0  0  0  0  0  0  0  0  0  0  0  0
    6.5482   -3.7239    0.2020 C   0  0  0  0  0  0  0  0  0  0  0  0
    6.3679   -2.2504   -0.0823 C   0  0  0  0  0  0  0  0  0  0  0  0
    4.8895   -1.9949    0.3014 C   0  0  2  0  0  0  0  0  0  0  0  0
    4.0706   -2.2158   -0.9987 C   0  0  0  0  0  0  0  0  0  0  0  0
    4.6439   -0.5661    0.8523 C   0  0  0  0  0  0  0  0  0  0  0  0
    3.2712   -0.3125    1.5213 C   0  0  0  0  0  0  0  0  0  0  0  0
    3.1114   -0.9417    2.9278 C   0  0  1  0  0  0  0  0  0  0  0  0
    2.1693   -0.1682    3.6563 O   0  0  0  0  0  0  0  0  0  0  0  0
    2.8069   -2.4978    3.0490 C   0  0  2  0  0  0  0  0  0  0  0  0
    1.4120   -2.6680    3.2626 O   0  0  0  0  0  0  0  0  0  0  0  0
    3.5764   -3.1101    4.2693 C   0  0  1  0  0  0  0  0  0  0  0  0
    2.8451   -3.0241    5.6237 C   0  0  0  0  0  0  0  0  0  0  0  0
    4.2502   -4.4785    4.0030 C   0  0  0  0  0  0  0  0  0  0  0  0
    3.4939   -5.4595    3.0532 C   0  0  2  0  0  0  0  0  0  0  0  0
    2.6076   -6.3012    4.0396 C   0  0  0  0  0  0  0  0  0  0  0  0
    4.4038   -6.3924    2.2393 C   0  0  1  0  0  0  0  0  0  0  0  0
    3.3973   -7.1022    1.2808 C   0  0  0  0  0  0  0  0  0  0  0  0
    2.1459   -6.1521    1.1993 C   0  0  0  0  0  0  0  0  0  0  0  0
    2.6201   -4.8195    1.9147 C   0  0  1  0  0  0  0  0  0  0  0  0
    2.9704   -4.7356    0.5255 O   0  0  0  0  0  0  0  0  0  0  0  0
    3.0990   -3.3044    1.7388 C   0  0  2  0  0  0  0  0  0  0  0  0
    4.6482   -3.0761    1.3926 C   0  0  1  0  0  0  0  0  0  0  0  0
    7.8333   -5.7615    1.6982 H   0  0  0  0  0  0  0  0  0  0  0  0
    7.0301   -7.0388    2.5786 H   0  0  0  0  0  0  0  0  0  0  0  0
    7.0325   -5.4104    3.2182 H   0  0  0  0  0  0  0  0  0  0  0  0
    5.7865   -6.2767    0.6030 H   0  0  0  0  0  0  0  0  0  0  0  0
    7.4002   -4.2689   -0.1816 H   0  0  0  0  0  0  0  0  0  0  0  0
    7.0570   -1.6993    0.5584 H   0  0  0  0  0  0  0  0  0  0  0  0
    6.5994   -2.0142   -1.1210 H   0  0  0  0  0  0  0  0  0  0  0  0
    3.0047   -2.0375   -0.8768 H   0  0  0  0  0  0  0  0  0  0  0  0
    4.1907   -3.2326   -1.3815 H   0  0  0  0  0  0  0  0  0  0  0  0
    4.3998   -1.5405   -1.7903 H   0  0  0  0  0  0  0  0  0  0  0  0
    5.4302   -0.3073    1.5636 H   0  0  0  0  0  0  0  0  0  0  0  0
    4.7633    0.1432    0.0342 H   0  0  0  0  0  0  0  0  0  0  0  0
    3.2078    0.7690    1.6339 H   0  0  0  0  0  0  0  0  0  0  0  0
    2.4399   -0.5612    0.8668 H   0  0  0  0  0  0  0  0  0  0  0  0
    4.0537   -0.7181    3.4277 H   0  0  0  0  0  0  0  0  0  0  0  0
    1.3707   -0.0977    3.1563 H   0  0  0  0  0  0  0  0  0  0  0  0
    0.9509   -2.2402    2.5608 H   0  0  0  0  0  0  0  0  0  0  0  0
    4.4453   -2.4846    4.4487 H   0  0  0  0  0  0  0  0  0  0  0  0
    1.9786   -3.6787    5.6752 H   0  0  0  0  0  0  0  0  0  0  0  0
    2.5087   -2.0045    5.8110 H   0  0  0  0  0  0  0  0  0  0  0  0
    3.5148   -3.2850    6.4422 H   0  0  0  0  0  0  0  0  0  0  0  0
    5.2597   -4.2881    3.6451 H   0  0  0  0  0  0  0  0  0  0  0  0
    4.4569   -4.9519    4.9588 H   0  0  0  0  0  0  0  0  0  0  0  0
    2.2163   -7.2280    3.6302 H   0  0  0  0  0  0  0  0  0  0  0  0
    1.7507   -5.7302    4.3911 H   0  0  0  0  0  0  0  0  0  0  0  0
    3.1581   -6.6373    4.9161 H   0  0  0  0  0  0  0  0  0  0  0  0
    4.7966   -7.1624    2.9061 H   0  0  0  0  0  0  0  0  0  0  0  0
    3.8380   -7.2687    0.2940 H   0  0  0  0  0  0  0  0  0  0  0  0
    3.1059   -8.0792    1.6613 H   0  0  0  0  0  0  0  0  0  0  0  0
    1.5657   -6.2206    0.2559 H   0  0  0  0  0  0  0  0  0  0  0  0
    1.3735   -6.5789    1.8329 H   0  0  0  0  0  0  0  0  0  0  0  0
    3.8098   -4.3008    0.4642 H   0  0  0  0  0  0  0  0  0  0  0  0
    2.4463   -2.7588    1.0399 H   0  0  0  0  0  0  0  0  0  0  0  0
    5.1491   -2.6674    2.2656 H   0  0  0  0  0  0  0  0  0  0  0  0
  1  2  1  0
  1 26  1  0
  1 27  1  0
  1 28  1  0
  2 19  1  0
  2  3  1  0
  2 29  1  6
  3 25  1  0
  3  4  2  0
  4  5  1  0
  4 30  1  0
  5  6  1  0
  5 31  1  0
  5 32  1  0
  6 25  1  0
  6  7  1  6
  6  8  1  0
  7 33  1  0
  7 34  1  0
  7 35  1  0
  8  9  1  0
  8 36  1  0
  8 37  1  0
  9 10  1  0
  9 38  1  0
  9 39  1  0
 10 11  1  0
 10 12  1  0
 10 40  1  1
 11 41  1  0
 12 24  1  0
 12 13  1  1
 12 14  1  0
 13 42  1  0
 14 15  1  0
 14 16  1  0
 14 43  1  1
 15 44  1  0
 15 45  1  0
 15 46  1  0
 16 17  1  0
 16 47  1  0
 16 48  1  0
 17 22  1  0
 17 18  1  1
 17 19  1  0
 18 49  1  0
 18 50  1  0
 18 51  1  0
 19 20  1  0
 19 52  1  1
 20 21  1  0
 20 53  1  0
 20 54  1  0
 21 22  1  0
 21 55  1  0
 21 56  1  0
 22 23  1  6
 22 24  1  0
 23 57  1  0
 24 25  1  0
 24 58  1  6
 25 59  1  1
M  END
>  <i_m_ct_stereo_status>  (125) 
1

>  <s_m_source_file>  (125) 
/var/tmp/pbs.5076255.sched01/tmp06uo9b_r/40lj_pgbub.sdf

>  <i_m_source_file_index>  (125) 
11

>  <i_lp_mmshare_version>  (125) 
48012

>  <i_f3d_flags>  (125) 
0

>  <s_epik_input>  (125) 
W0NIM11bQ0BAXTEyW0NAQEhdM0MoPVtDSF1bQ0gyXTEpW0NAQEhdKFtDSDNdKVtDQEhdNFtDQF01KFtDSDNdKVtDQEBdKFtPSF0pKFtDSDJdW0NIMl00KVtDQEhdM1tDQEBdKFtPSF0pKFtDQEBIXShbQ0gzXSlbQ0gyXTUpW0NASF0oW09IXSlbQ0gyXVtDSDJdMg==

>  <s_epik_cmdline>  (125) 
J2VwaWtfcHl0aG9uJywgJy1waHQnLCAnMi4wJywgJy1waCcsICc3LjAnLCAnLXRuJywgJzgnLCAnLW1hJywgJzIwMCcsICctaW1hZScsICc8aW5maWxlLm1hZT4nLCAnLW9tYWUnLCAnPG91dGZpbGUubWFlPic=

>  <r_lp_tautomer_probability>  (125) 
1

>  <r_epik_Ionization_Penalty>  (125) 
8.96564e-06

>  <r_epik_Ionization_Penalty_Charging>  (125) 
0

>  <r_epik_Ionization_Penalty_Neutral>  (125) 
8.96564e-06

>  <r_epik_State_Penalty>  (125) 
-0

>  <r_epik_Charging_Adjusted_Penalty>  (125) 
0

>  <i_epik_Tot_Q>  (125) 
0

>  <i_epik_Tot_abs_Q>  (125) 
0

>  <s_lp_Force_Field>  (125) 
OPLS3e

>  <r_lp_Energy>  (125) 
179.174

>  <b_lp_Chiralities_Consistent>  (125) 
1

>  <s_lp_Variant>  (125) 
39:0-1

>  <s_i_glide_gridfile>  (125) 
pfpi4k_grid

>  <i_i_glide_lignum>  (125) 
11

>  <i_i_glide_rotatable_bonds>  (125) 
3

>  <r_i_docking_score>  (125) 
-2.93764

>  <r_i_glide_ligand_efficiency>  (125) 
-0.117506

>  <r_i_glide_ligand_efficiency_sa>  (125) 
-0.343589

>  <r_i_glide_ligand_efficiency_ln>  (125) 
-0.696309

>  <r_i_glide_gscore>  (125) 
-2.93764

>  <r_i_glide_lipo>  (125) 
-0.50491

>  <r_i_glide_hbond>  (125) 
0

>  <r_i_glide_metal>  (125) 
-0

>  <r_i_glide_rewards>  (125) 
-1.04657

>  <r_i_glide_evdw>  (125) 
-24.1782

>  <r_i_glide_ecoul>  (125) 
-1.18171

>  <r_i_glide_erotb>  (125) 
0

>  <r_i_glide_esite>  (125) 
0

>  <r_i_glide_emodel>  (125) 
-30.1697

>  <r_i_glide_energy>  (125) 
-25.3599

>  <r_i_glide_einternal>  (125) 
0.167428

>  <r_i_glide_intrahb_reward>  (125) 
-0

>  <i_i_glide_confnum>  (125) 
1

>  <i_i_glide_posenum>  (125) 
27

>  <r_i_glide_eff_state_penalty>  (125) 
0

>  <ligand_id>  (125) 
39

>  <original_smiles>  (125) 
CC1C2=CCC3(C)CCC(O)C4(O)C(C)CC5(C)C1CCC5(O)C4C23

>  <smiles>  (125) 
[H]OC1([H])C([H])([H])C([H])([H])C2(C([H])([H])[H])C([H])([H])C([H])=C3C([H])(C([H])([H])[H])C4([H])C([H])([H])C([H])([H])C5(O[H])C([H])(C32[H])C1(O[H])C([H])(C([H])([H])[H])C([H])([H])C45C([H])([H])[H]

$$$$
40:1:0
     RDKit          3D

 48 53  0  0  1  0  0  0  0  0999 V2000
    3.5717    0.1461    4.1215 C   0  0  0  0  0  0  0  0  0  0  0  0
    2.4958    1.2410    4.4039 C   0  0  2  0  0  0  0  0  0  0  0  0
    2.3998    2.0358    3.0876 C   0  0  0  0  0  0  0  0  0  0  0  0
    0.9235    2.2753    3.3367 C   0  0  2  0  0  0  0  0  0  0  0  0
    0.1459    2.1429    2.1596 O   0  0  0  0  0  0  0  0  0  0  0  0
    0.8322    3.7775    3.7732 C   0  0  1  0  0  0  0  0  0  0  0  0
   -0.3256    4.4445    3.2869 O   0  0  0  0  0  0  0  0  0  0  0  0
    1.1093    4.0754    5.2537 C   0  0  1  0  0  0  0  0  0  0  0  0
   -0.1541    3.6226    5.9606 C   0  0  0  0  0  0  0  0  0  0  0  0
   -0.1348    2.5440    6.7277 C   0  0  0  0  0  0  0  0  0  0  0  0
    0.9304    2.3438    7.7303 C   0  0  0  0  0  0  0  0  0  0  0  0
    2.2365    2.2677    7.1477 O   0  0  0  0  0  0  0  0  0  0  0  0
    2.7965    1.9143    5.8372 C   0  0  1  0  0  0  0  0  0  0  0  0
    2.6615    0.5906    6.7574 C   0  0  0  0  0  0  0  0  0  0  0  0
    1.3600   -0.2603    6.4500 C   0  0  1  0  0  0  0  0  0  0  0  0
    0.7726   -0.8005    7.6196 O   0  0  0  0  0  0  0  0  0  0  0  0
    0.2994    0.3835    5.4737 C   0  0  1  0  0  0  0  0  0  0  0  0
   -0.7078    1.3259    6.1457 C   0  0  2  0  0  0  0  0  0  0  0  0
   -2.1614    1.3164    5.7555 C   0  0  0  0  0  0  0  0  0  0  0  0
   -1.7072    0.7106    6.9671 O   0  0  0  0  0  0  0  0  0  0  0  0
    1.0229    0.8805    4.1587 C   0  0  2  0  0  0  0  0  0  0  0  0
    0.8091   -0.3446    3.2205 C   0  0  0  0  0  0  0  0  0  0  0  0
    2.5131    3.5163    5.7700 C   0  0  1  0  0  0  0  0  0  0  0  0
    3.5509    4.1137    5.0219 O   0  0  0  0  0  0  0  0  0  0  0  0
    3.6572   -0.0932    3.0624 H   0  0  0  0  0  0  0  0  0  0  0  0
    3.3480   -0.8213    4.5676 H   0  0  0  0  0  0  0  0  0  0  0  0
    4.5731    0.4533    4.4338 H   0  0  0  0  0  0  0  0  0  0  0  0
    3.0662    2.8869    3.0078 H   0  0  0  0  0  0  0  0  0  0  0  0
    2.5525    1.4612    2.1722 H   0  0  0  0  0  0  0  0  0  0  0  0
    0.2154    2.9658    1.6666 H   0  0  0  0  0  0  0  0  0  0  0  0
    1.5848    4.3602    3.2415 H   0  0  0  0  0  0  0  0  0  0  0  0
   -0.2047    4.5456    2.3269 H   0  0  0  0  0  0  0  0  0  0  0  0
    1.1260    5.1623    5.3713 H   0  0  0  0  0  0  0  0  0  0  0  0
   -1.0196    3.6875    5.3279 H   0  0  0  0  0  0  0  0  0  0  0  0
    0.9418    3.2147    8.3814 H   0  0  0  0  0  0  0  0  0  0  0  0
    0.7106    1.5291    8.4212 H   0  0  0  0  0  0  0  0  0  0  0  0
    3.5019   -0.0519    6.5223 H   0  0  0  0  0  0  0  0  0  0  0  0
    2.9263    0.5652    7.8360 H   0  0  0  0  0  0  0  0  0  0  0  0
    1.7001   -1.1547    5.9384 H   0  0  0  0  0  0  0  0  0  0  0  0
    1.4468   -1.2506    8.1102 H   0  0  0  0  0  0  0  0  0  0  0  0
   -0.3447   -0.4672    5.2267 H   0  0  0  0  0  0  0  0  0  0  0  0
   -2.8008    2.1805    5.9308 H   0  0  0  0  0  0  0  0  0  0  0  0
   -2.4645    0.6230    4.9757 H   0  0  0  0  0  0  0  0  0  0  0  0
   -0.2425   -0.4646    2.9632 H   0  0  0  0  0  0  0  0  0  0  0  0
    1.1409   -1.2785    3.6762 H   0  0  0  0  0  0  0  0  0  0  0  0
    1.3339   -0.2705    2.2712 H   0  0  0  0  0  0  0  0  0  0  0  0
    2.7620    4.1147    6.6637 H   0  0  0  0  0  0  0  0  0  0  0  0
    3.5005    3.8000    4.1303 H   0  0  0  0  0  0  0  0  0  0  0  0
  2  1  1  6
  1 25  1  0
  1 26  1  0
  1 27  1  0
  2 13  1  0
  2 21  1  0
  2  3  1  0
  3  4  1  0
  3 28  1  0
  3 29  1  0
  4 21  1  0
  4  5  1  6
  4  6  1  0
  5 30  1  0
  6  7  1  0
  6  8  1  0
  6 31  1  6
  7 32  1  0
  8 23  1  0
  8  9  1  0
  8 33  1  6
  9 10  2  0
  9 34  1  0
 10 18  1  0
 10 11  1  0
 11 12  1  0
 11 35  1  0
 11 36  1  0
 12 13  1  0
 13 14  1  1
 13 23  1  0
 14 15  1  0
 14 37  1  0
 14 38  1  0
 15 16  1  0
 15 17  1  0
 15 39  1  6
 16 40  1  0
 17 18  1  0
 17 21  1  0
 17 41  1  6
 18 20  1  1
 18 19  1  0
 19 20  1  0
 19 42  1  0
 19 43  1  0
 21 22  1  6
 22 44  1  0
 22 45  1  0
 22 46  1  0
 23 24  1  0
 23 47  1  1
 24 48  1  0
M  END
>  <i_m_ct_stereo_status>  (126) 
1

>  <s_m_source_file>  (126) 
/var/tmp/pbs.5076255.sched01/tmp06uo9b_r/40lj_pgbub.sdf

>  <i_m_source_file_index>  (126) 
13

>  <i_lp_mmshare_version>  (126) 
48012

>  <i_f3d_flags>  (126) 
0

>  <s_epik_input>  (126) 
W0NIM11bQ0BdMShDMjM0KVtDQF01KFtDSDNdKVtDQEBdKFtDSDJdMSkoW09IXSlbQ0BASF0oW09IXSlbQ0BIXShbQ0BASF00W09IXSlbQ0hdPUMoW0NIMl1PMilbQ0BAXTYoW0NIMl1PNilbQ0BASF01W0NAQEhdKFtDSDJdMylbT0hd

>  <s_epik_cmdline>  (126) 
J2VwaWtfcHl0aG9uJywgJy1waHQnLCAnMi4wJywgJy1waCcsICc3LjAnLCAnLXRuJywgJzgnLCAnLW1hJywgJzIwMCcsICctaW1hZScsICc8aW5maWxlLm1hZT4nLCAnLW9tYWUnLCAnPG91dGZpbGUubWFlPic=

>  <r_lp_tautomer_probability>  (126) 
1

>  <r_epik_Ionization_Penalty>  (126) 
2.94858e-07

>  <r_epik_Ionization_Penalty_Charging>  (126) 
0

>  <r_epik_Ionization_Penalty_Neutral>  (126) 
2.94858e-07

>  <r_epik_State_Penalty>  (126) 
-0

>  <r_epik_Charging_Adjusted_Penalty>  (126) 
0

>  <i_epik_Tot_Q>  (126) 
0

>  <i_epik_Tot_abs_Q>  (126) 
0

>  <s_lp_Force_Field>  (126) 
OPLS3e

>  <r_lp_Energy>  (126) 
262.817

>  <b_lp_Chiralities_Consistent>  (126) 
1

>  <s_lp_Variant>  (126) 
40:0-2

>  <s_i_glide_gridfile>  (126) 
pfpi4k_grid

>  <i_i_glide_lignum>  (126) 
13

>  <i_i_glide_rotatable_bonds>  (126) 
4

>  <r_i_docking_score>  (126) 
-3.967

>  <r_i_glide_ligand_efficiency>  (126) 
-0.165292

>  <r_i_glide_ligand_efficiency_sa>  (126) 
-0.476784

>  <r_i_glide_ligand_efficiency_ln>  (126) 
-0.949486

>  <r_i_glide_gscore>  (126) 
-3.967

>  <r_i_glide_lipo>  (126) 
-0.000318814

>  <r_i_glide_hbond>  (126) 
-0.152

>  <r_i_glide_metal>  (126) 
-0

>  <r_i_glide_rewards>  (126) 
-1.11559

>  <r_i_glide_evdw>  (126) 
-8.92376

>  <r_i_glide_ecoul>  (126) 
-15.0194

>  <r_i_glide_erotb>  (126) 
0

>  <r_i_glide_esite>  (126) 
0

>  <r_i_glide_emodel>  (126) 
-30.8334

>  <r_i_glide_energy>  (126) 
-23.9431

>  <r_i_glide_einternal>  (126) 
1.55483

>  <r_i_glide_intrahb_reward>  (126) 
-0

>  <i_i_glide_confnum>  (126) 
1

>  <i_i_glide_posenum>  (126) 
8

>  <r_i_glide_eff_state_penalty>  (126) 
0

>  <ligand_id>  (126) 
40

>  <original_smiles>  (126) 
CC12CC3(O)C(O)C4C=C5COC1(CC(O)C(C51CO1)C32C)C4O

>  <smiles>  (126) 
[H]OC1([H])C([H])([H])C23OC([H])([H])C4=C([H])C([H])(C2([H])O[H])C([H])(O[H])C2(O[H])C([H])([H])C3(C([H])([H])[H])C2(C([H])([H])[H])C1([H])C41OC1([H])[H]

$$$$
40:1:1
     RDKit          3D

 48 53  0  0  1  0  0  0  0  0999 V2000
    2.0976   -0.3010    5.2314 C   0  0  0  0  0  0  0  0  0  0  0  0
    1.6894    1.1675    4.8842 C   0  0  2  0  0  0  0  0  0  0  0  0
    2.6886    1.5917    3.7971 C   0  0  0  0  0  0  0  0  0  0  0  0
    1.6335    2.4556    3.1487 C   0  0  2  0  0  0  0  0  0  0  0  0
    1.7070    2.3620    1.7425 O   0  0  0  0  0  0  0  0  0  0  0  0
    2.0342    3.9216    3.5060 C   0  0  1  0  0  0  0  0  0  0  0  0
    1.8137    4.8881    2.4843 O   0  0  0  0  0  0  0  0  0  0  0  0
    1.5925    4.4359    4.8827 C   0  0  1  0  0  0  0  0  0  0  0  0
    0.1073    4.7179    4.7061 C   0  0  0  0  0  0  0  0  0  0  0  0
   -0.7856    3.9540    5.2941 C   0  0  0  0  0  0  0  0  0  0  0  0
   -0.6500    3.5896    6.7255 C   0  0  0  0  0  0  0  0  0  0  0  0
    0.5381    2.8463    7.0054 O   0  0  0  0  0  0  0  0  0  0  0  0
    1.4657    1.9946    6.2518 C   0  0  1  0  0  0  0  0  0  0  0  0
    0.2693    1.1003    6.8735 C   0  0  0  0  0  0  0  0  0  0  0  0
   -0.8903    0.7938    5.8410 C   0  0  1  0  0  0  0  0  0  0  0  0
   -2.1564    0.8188    6.4812 O   0  0  0  0  0  0  0  0  0  0  0  0
   -0.8329    1.5505    4.4512 C   0  0  1  0  0  0  0  0  0  0  0  0
   -1.4578    2.9576    4.4483 C   0  0  2  0  0  0  0  0  0  0  0  0
   -2.3046    3.4258    3.2890 C   0  0  0  0  0  0  0  0  0  0  0  0
   -2.8847    3.0101    4.5340 O   0  0  0  0  0  0  0  0  0  0  0  0
    0.6080    1.3831    3.8077 C   0  0  2  0  0  0  0  0  0  0  0  0
    0.3806    0.1564    2.8702 C   0  0  0  0  0  0  0  0  0  0  0  0
    2.0519    3.5110    6.0983 C   0  0  1  0  0  0  0  0  0  0  0  0
    3.4657    3.4345    6.1129 O   0  0  0  0  0  0  0  0  0  0  0  0
    2.6109   -0.8016    4.4079 H   0  0  0  0  0  0  0  0  0  0  0  0
    1.2540   -0.9575    5.4287 H   0  0  0  0  0  0  0  0  0  0  0  0
    2.7847   -0.3496    6.0803 H   0  0  0  0  0  0  0  0  0  0  0  0
    3.6079    2.0560    4.1448 H   0  0  0  0  0  0  0  0  0  0  0  0
    3.0190    0.8079    3.1159 H   0  0  0  0  0  0  0  0  0  0  0  0
    1.1105    3.0139    1.3757 H   0  0  0  0  0  0  0  0  0  0  0  0
    3.1178    3.9907    3.5391 H   0  0  0  0  0  0  0  0  0  0  0  0
    1.1107    4.6158    1.8805 H   0  0  0  0  0  0  0  0  0  0  0  0
    2.0467    5.4193    5.0285 H   0  0  0  0  0  0  0  0  0  0  0  0
   -0.1372    4.9684    3.6868 H   0  0  0  0  0  0  0  0  0  0  0  0
   -0.5763    4.5134    7.2937 H   0  0  0  0  0  0  0  0  0  0  0  0
   -1.5490    3.1281    7.1245 H   0  0  0  0  0  0  0  0  0  0  0  0
    0.6922    0.1396    7.1357 H   0  0  0  0  0  0  0  0  0  0  0  0
   -0.1204    1.2220    7.9050 H   0  0  0  0  0  0  0  0  0  0  0  0
   -0.7984   -0.2575    5.5785 H   0  0  0  0  0  0  0  0  0  0  0  0
   -2.4199    1.7245    6.5756 H   0  0  0  0  0  0  0  0  0  0  0  0
   -1.5587    1.0038    3.8409 H   0  0  0  0  0  0  0  0  0  0  0  0
   -2.4346    4.4819    3.0745 H   0  0  0  0  0  0  0  0  0  0  0  0
   -2.4370    2.7393    2.4557 H   0  0  0  0  0  0  0  0  0  0  0  0
   -0.2835    0.4086    2.0398 H   0  0  0  0  0  0  0  0  0  0  0  0
   -0.0571   -0.6940    3.3983 H   0  0  0  0  0  0  0  0  0  0  0  0
    1.2950   -0.2173    2.4113 H   0  0  0  0  0  0  0  0  0  0  0  0
    2.0358    4.1597    6.9956 H   0  0  0  0  0  0  0  0  0  0  0  0
    3.7447    2.9452    5.3556 H   0  0  0  0  0  0  0  0  0  0  0  0
  2  1  1  1
  1 25  1  0
  1 26  1  0
  1 27  1  0
  2 13  1  0
  2 21  1  0
  2  3  1  0
  3  4  1  0
  3 28  1  0
  3 29  1  0
  4 21  1  0
  4  5  1  6
  4  6  1  0
  5 30  1  0
  6  7  1  0
  6  8  1  0
  6 31  1  1
  7 32  1  0
  8 23  1  0
  8  9  1  0
  8 33  1  1
  9 10  2  0
  9 34  1  0
 10 18  1  0
 10 11  1  0
 11 12  1  0
 11 35  1  0
 11 36  1  0
 12 13  1  0
 13 14  1  1
 13 23  1  0
 14 15  1  0
 14 37  1  0
 14 38  1  0
 15 16  1  0
 15 17  1  0
 15 39  1  6
 16 40  1  0
 17 18  1  0
 17 21  1  0
 17 41  1  6
 18 20  1  1
 18 19  1  0
 19 20  1  0
 19 42  1  0
 19 43  1  0
 21 22  1  6
 22 44  1  0
 22 45  1  0
 22 46  1  0
 23 24  1  0
 23 47  1  1
 24 48  1  0
M  END
>  <i_m_ct_stereo_status>  (127) 
1

>  <s_m_source_file>  (127) 
/var/tmp/pbs.5076255.sched01/tmp06uo9b_r/40lj_pgbub.sdf

>  <i_m_source_file_index>  (127) 
13

>  <i_lp_mmshare_version>  (127) 
48012

>  <i_f3d_flags>  (127) 
0

>  <s_epik_input>  (127) 
W0NIM11bQ0BdMShDMjM0KVtDQF01KFtDSDNdKVtDQEBdKFtDSDJdMSkoW09IXSlbQ0BASF0oW09IXSlbQ0BIXShbQ0BASF00W09IXSlbQ0hdPUMoW0NIMl1PMilbQ0BAXTYoW0NIMl1PNilbQ0BASF01W0NAQEhdKFtDSDJdMylbT0hd

>  <s_epik_cmdline>  (127) 
J2VwaWtfcHl0aG9uJywgJy1waHQnLCAnMi4wJywgJy1waCcsICc3LjAnLCAnLXRuJywgJzgnLCAnLW1hJywgJzIwMCcsICctaW1hZScsICc8aW5maWxlLm1hZT4nLCAnLW9tYWUnLCAnPG91dGZpbGUubWFlPic=

>  <r_lp_tautomer_probability>  (127) 
1

>  <r_epik_Ionization_Penalty>  (127) 
2.94858e-07

>  <r_epik_Ionization_Penalty_Charging>  (127) 
0

>  <r_epik_Ionization_Penalty_Neutral>  (127) 
2.94858e-07

>  <r_epik_State_Penalty>  (127) 
-0

>  <r_epik_Charging_Adjusted_Penalty>  (127) 
0

>  <i_epik_Tot_Q>  (127) 
0

>  <i_epik_Tot_abs_Q>  (127) 
0

>  <s_lp_Force_Field>  (127) 
OPLS3e

>  <r_lp_Energy>  (127) 
262.817

>  <b_lp_Chiralities_Consistent>  (127) 
1

>  <s_lp_Variant>  (127) 
40:0-2

>  <s_i_glide_gridfile>  (127) 
pfpi4k_grid

>  <i_i_glide_lignum>  (127) 
13

>  <i_i_glide_rotatable_bonds>  (127) 
4

>  <r_i_docking_score>  (127) 
-3.641

>  <r_i_glide_ligand_efficiency>  (127) 
-0.151708

>  <r_i_glide_ligand_efficiency_sa>  (127) 
-0.437603

>  <r_i_glide_ligand_efficiency_ln>  (127) 
-0.871459

>  <r_i_glide_gscore>  (127) 
-3.641

>  <r_i_glide_lipo>  (127) 
0

>  <r_i_glide_hbond>  (127) 
0

>  <r_i_glide_metal>  (127) 
-0

>  <r_i_glide_rewards>  (127) 
-1.11559

>  <r_i_glide_evdw>  (127) 
-11.8209

>  <r_i_glide_ecoul>  (127) 
-12.8957

>  <r_i_glide_erotb>  (127) 
0

>  <r_i_glide_esite>  (127) 
0

>  <r_i_glide_emodel>  (127) 
-30.6963

>  <r_i_glide_energy>  (127) 
-24.7167

>  <r_i_glide_einternal>  (127) 
1.77634

>  <r_i_glide_intrahb_reward>  (127) 
-0

>  <i_i_glide_confnum>  (127) 
2

>  <i_i_glide_posenum>  (127) 
18

>  <r_i_glide_eff_state_penalty>  (127) 
0

>  <ligand_id>  (127) 
40

>  <original_smiles>  (127) 
CC12CC3(O)C(O)C4C=C5COC1(CC(O)C(C51CO1)C32C)C4O

>  <smiles>  (127) 
[H]OC1([H])C([H])([H])C23OC([H])([H])C4=C([H])C([H])(C2([H])O[H])C([H])(O[H])C2(O[H])C([H])([H])C3(C([H])([H])[H])C2(C([H])([H])[H])C1([H])C41OC1([H])[H]

$$$$
40:1:2
     RDKit          3D

 48 53  0  0  1  0  0  0  0  0999 V2000
    2.1826   -0.5907    4.8076 C   0  0  0  0  0  0  0  0  0  0  0  0
    1.7372    0.9027    4.6670 C   0  0  2  0  0  0  0  0  0  0  0  0
    2.7499    1.5163    3.6965 C   0  0  0  0  0  0  0  0  0  0  0  0
    1.6850    2.4416    3.1534 C   0  0  2  0  0  0  0  0  0  0  0  0
    1.7796    2.5372    1.7644 O   0  0  0  0  0  0  0  0  0  0  0  0
    2.0253    3.8427    3.7448 C   0  0  1  0  0  0  0  0  0  0  0  0
    1.8007    4.9342    2.8792 O   0  0  0  0  0  0  0  0  0  0  0  0
    1.5061    4.1189    5.1710 C   0  0  1  0  0  0  0  0  0  0  0  0
    0.0230    4.3755    4.9629 C   0  0  0  0  0  0  0  0  0  0  0  0
   -0.8552    3.4787    5.3683 C   0  0  0  0  0  0  0  0  0  0  0  0
   -0.7821    2.9025    6.7266 C   0  0  0  0  0  0  0  0  0  0  0  0
    0.4285    2.1804    6.9607 O   0  0  0  0  0  0  0  0  0  0  0  0
    1.4145    1.4868    6.1281 C   0  0  1  0  0  0  0  0  0  0  0  0
    0.2337    0.4639    6.5482 C   0  0  0  0  0  0  0  0  0  0  0  0
   -0.8602    0.2839    5.4219 C   0  0  1  0  0  0  0  0  0  0  0  0
   -2.1419    0.1437    5.9704 O   0  0  0  0  0  0  0  0  0  0  0  0
   -0.7777    1.2441    4.1690 C   0  0  1  0  0  0  0  0  0  0  0  0
   -1.4455    2.6283    4.3461 C   0  0  2  0  0  0  0  0  0  0  0  0
   -2.2549    3.2609    3.2296 C   0  0  0  0  0  0  0  0  0  0  0  0
   -2.8729    2.6689    4.3669 O   0  0  0  0  0  0  0  0  0  0  0  0
    0.6926    1.2407    3.5893 C   0  0  2  0  0  0  0  0  0  0  0  0
    0.5492    0.1708    2.4667 C   0  0  0  0  0  0  0  0  0  0  0  0
    1.9536    3.0191    6.2398 C   0  0  1  0  0  0  0  0  0  0  0  0
    3.3598    2.9959    6.3104 O   0  0  0  0  0  0  0  0  0  0  0  0
    2.7512   -0.9400    3.9426 H   0  0  0  0  0  0  0  0  0  0  0  0
    1.3589   -1.3013    4.8551 H   0  0  0  0  0  0  0  0  0  0  0  0
    2.8279   -0.7534    5.6681 H   0  0  0  0  0  0  0  0  0  0  0  0
    3.6310    1.9486    4.1566 H   0  0  0  0  0  0  0  0  0  0  0  0
    3.1300    0.8596    2.9167 H   0  0  0  0  0  0  0  0  0  0  0  0
    1.1150    3.1394    1.4381 H   0  0  0  0  0  0  0  0  0  0  0  0
    3.1048    3.9386    3.8364 H   0  0  0  0  0  0  0  0  0  0  0  0
    1.1377    4.7141    2.2206 H   0  0  0  0  0  0  0  0  0  0  0  0
    1.9181    5.0779    5.4797 H   0  0  0  0  0  0  0  0  0  0  0  0
   -0.1891    4.7718    3.9873 H   0  0  0  0  0  0  0  0  0  0  0  0
   -0.7667    3.7368    7.4369 H   0  0  0  0  0  0  0  0  0  0  0  0
   -1.6796    2.3585    7.0052 H   0  0  0  0  0  0  0  0  0  0  0  0
    0.6831   -0.5105    6.6910 H   0  0  0  0  0  0  0  0  0  0  0  0
   -0.2145    0.4228    7.5574 H   0  0  0  0  0  0  0  0  0  0  0  0
   -0.7085   -0.7041    4.9938 H   0  0  0  0  0  0  0  0  0  0  0  0
   -2.7699    0.2386    5.2580 H   0  0  0  0  0  0  0  0  0  0  0  0
   -1.4609    0.7864    3.4465 H   0  0  0  0  0  0  0  0  0  0  0  0
   -2.4279    4.3267    3.1680 H   0  0  0  0  0  0  0  0  0  0  0  0
   -2.3495    2.6973    2.2984 H   0  0  0  0  0  0  0  0  0  0  0  0
   -0.0928    0.5206    1.6548 H   0  0  0  0  0  0  0  0  0  0  0  0
    0.1449   -0.7682    2.8395 H   0  0  0  0  0  0  0  0  0  0  0  0
    1.4938   -0.0933    1.9900 H   0  0  0  0  0  0  0  0  0  0  0  0
    1.8600    3.5233    7.2221 H   0  0  0  0  0  0  0  0  0  0  0  0
    3.6917    2.6272    5.5107 H   0  0  0  0  0  0  0  0  0  0  0  0
  2  1  1  1
  1 25  1  0
  1 26  1  0
  1 27  1  0
  2 13  1  0
  2 21  1  0
  2  3  1  0
  3  4  1  0
  3 28  1  0
  3 29  1  0
  4 21  1  0
  4  5  1  6
  4  6  1  0
  5 30  1  0
  6  7  1  0
  6  8  1  0
  6 31  1  1
  7 32  1  0
  8 23  1  0
  8  9  1  0
  8 33  1  1
  9 10  2  0
  9 34  1  0
 10 18  1  0
 10 11  1  0
 11 12  1  0
 11 35  1  0
 11 36  1  0
 12 13  1  0
 13 14  1  1
 13 23  1  0
 14 15  1  0
 14 37  1  0
 14 38  1  0
 15 16  1  0
 15 17  1  0
 15 39  1  6
 16 40  1  0
 17 18  1  0
 17 21  1  0
 17 41  1  6
 18 20  1  1
 18 19  1  0
 19 20  1  0
 19 42  1  0
 19 43  1  0
 21 22  1  6
 22 44  1  0
 22 45  1  0
 22 46  1  0
 23 24  1  0
 23 47  1  1
 24 48  1  0
M  END
>  <i_m_ct_stereo_status>  (128) 
1

>  <s_m_source_file>  (128) 
/var/tmp/pbs.5076255.sched01/tmp06uo9b_r/40lj_pgbub.sdf

>  <i_m_source_file_index>  (128) 
13

>  <i_lp_mmshare_version>  (128) 
48012

>  <i_f3d_flags>  (128) 
0

>  <s_epik_input>  (128) 
W0NIM11bQ0BdMShDMjM0KVtDQF01KFtDSDNdKVtDQEBdKFtDSDJdMSkoW09IXSlbQ0BASF0oW09IXSlbQ0BIXShbQ0BASF00W09IXSlbQ0hdPUMoW0NIMl1PMilbQ0BAXTYoW0NIMl1PNilbQ0BASF01W0NAQEhdKFtDSDJdMylbT0hd

>  <s_epik_cmdline>  (128) 
J2VwaWtfcHl0aG9uJywgJy1waHQnLCAnMi4wJywgJy1waCcsICc3LjAnLCAnLXRuJywgJzgnLCAnLW1hJywgJzIwMCcsICctaW1hZScsICc8aW5maWxlLm1hZT4nLCAnLW9tYWUnLCAnPG91dGZpbGUubWFlPic=

>  <r_lp_tautomer_probability>  (128) 
1

>  <r_epik_Ionization_Penalty>  (128) 
2.94858e-07

>  <r_epik_Ionization_Penalty_Charging>  (128) 
0

>  <r_epik_Ionization_Penalty_Neutral>  (128) 
2.94858e-07

>  <r_epik_State_Penalty>  (128) 
-0

>  <r_epik_Charging_Adjusted_Penalty>  (128) 
0

>  <i_epik_Tot_Q>  (128) 
0

>  <i_epik_Tot_abs_Q>  (128) 
0

>  <s_lp_Force_Field>  (128) 
OPLS3e

>  <r_lp_Energy>  (128) 
262.817

>  <b_lp_Chiralities_Consistent>  (128) 
1

>  <s_lp_Variant>  (128) 
40:0-2

>  <s_i_glide_gridfile>  (128) 
pfpi4k_grid

>  <i_i_glide_lignum>  (128) 
13

>  <i_i_glide_rotatable_bonds>  (128) 
4

>  <r_i_docking_score>  (128) 
-3.53512

>  <r_i_glide_ligand_efficiency>  (128) 
-0.147297

>  <r_i_glide_ligand_efficiency_sa>  (128) 
-0.424878

>  <r_i_glide_ligand_efficiency_ln>  (128) 
-0.846117

>  <r_i_glide_gscore>  (128) 
-3.53512

>  <r_i_glide_lipo>  (128) 
0

>  <r_i_glide_hbond>  (128) 
0

>  <r_i_glide_metal>  (128) 
-0

>  <r_i_glide_rewards>  (128) 
-1.11559

>  <r_i_glide_evdw>  (128) 
-13.5528

>  <r_i_glide_ecoul>  (128) 
-11.6126

>  <r_i_glide_erotb>  (128) 
0

>  <r_i_glide_esite>  (128) 
0

>  <r_i_glide_emodel>  (128) 
-30.591

>  <r_i_glide_energy>  (128) 
-25.1654

>  <r_i_glide_einternal>  (128) 
2.10323

>  <r_i_glide_intrahb_reward>  (128) 
-0

>  <i_i_glide_confnum>  (128) 
2

>  <i_i_glide_posenum>  (128) 
11

>  <r_i_glide_eff_state_penalty>  (128) 
0

>  <ligand_id>  (128) 
40

>  <original_smiles>  (128) 
CC12CC3(O)C(O)C4C=C5COC1(CC(O)C(C51CO1)C32C)C4O

>  <smiles>  (128) 
[H]OC1([H])C([H])([H])C23OC([H])([H])C4=C([H])C([H])(C2([H])O[H])C([H])(O[H])C2(O[H])C([H])([H])C3(C([H])([H])[H])C2(C([H])([H])[H])C1([H])C41OC1([H])[H]

$$$$
41:0:0
     RDKit          3D

 47 51  0  0  1  0  0  0  0  0999 V2000
    2.1948   -3.3488   -2.6018 C   0  0  0  0  0  0  0  0  0  0  0  0
    3.0864   -2.2345   -2.7776 N   0  0  0  0  0  0  0  0  0  0  0  0
    3.2501   -1.6793   -4.0027 N   0  0  0  0  0  0  0  0  0  0  0  0
    4.1159   -0.7279   -3.8818 N   0  0  0  0  0  0  0  0  0  0  0  0
    4.5754   -0.6321   -2.5805 N   0  0  0  0  0  0  0  0  0  0  0  0
    3.9260   -1.5860   -1.9460 C   0  0  0  0  0  0  0  0  0  0  0  0
    4.1723   -1.9702   -0.5297 C   0  0  0  0  0  0  0  0  0  0  0  0
    3.4057   -1.0053    0.2881 N   0  0  0  0  0  0  0  0  0  0  0  0
    3.5450   -1.2453    1.7454 C   0  0  0  0  0  0  0  0  0  0  0  0
    2.5608   -0.4422    2.6078 C   0  0  1  0  0  0  0  0  0  0  0  0
    2.8740    1.0692    2.6010 C   0  0  0  0  0  0  0  0  0  0  0  0
    1.7972    1.8403    3.4176 C   0  0  0  0  0  0  0  0  0  0  0  0
    0.5171    1.0015    3.5142 C   0  0  1  0  0  0  0  0  0  0  0  0
   -0.5280    1.7219    4.3612 C   0  0  0  0  0  0  0  0  0  0  0  0
   -1.6982    2.2448    3.7670 C   0  0  0  0  0  0  0  0  0  0  0  0
   -2.6264    2.9491    4.5374 C   0  0  0  0  0  0  0  0  0  0  0  0
   -2.4124    3.1409    5.9151 C   0  0  0  0  0  0  0  0  0  0  0  0
   -1.2557    2.6176    6.5182 C   0  0  0  0  0  0  0  0  0  0  0  0
   -0.3199    1.9041    5.7463 C   0  0  0  0  0  0  0  0  0  0  0  0
    0.0762    0.4474    2.1436 C   0  0  0  0  0  0  0  0  0  0  0  0
    1.0557   -0.7080    2.3659 C   0  0  2  0  0  0  0  0  0  0  0  0
    0.8371   -0.4783    3.8573 C   0  0  1  0  0  0  0  0  0  0  0  0
    2.2756   -0.9751    4.0354 C   0  0  0  0  0  0  0  0  0  0  0  0
    2.5425   -3.9978   -1.7991 H   0  0  0  0  0  0  0  0  0  0  0  0
    2.1558   -3.9203   -3.5315 H   0  0  0  0  0  0  0  0  0  0  0  0
    1.1977   -2.9799   -2.3611 H   0  0  0  0  0  0  0  0  0  0  0  0
    3.8776   -2.9998   -0.3590 H   0  0  0  0  0  0  0  0  0  0  0  0
    5.2441   -1.9020   -0.3502 H   0  0  0  0  0  0  0  0  0  0  0  0
    3.7228   -0.0678    0.0680 H   0  0  0  0  0  0  0  0  0  0  0  0
    3.3886   -2.3133    1.9255 H   0  0  0  0  0  0  0  0  0  0  0  0
    4.5722   -1.0480    2.0514 H   0  0  0  0  0  0  0  0  0  0  0  0
    3.8640    1.2681    3.0149 H   0  0  0  0  0  0  0  0  0  0  0  0
    2.8590    1.4311    1.5716 H   0  0  0  0  0  0  0  0  0  0  0  0
    2.1894    2.0193    4.4176 H   0  0  0  0  0  0  0  0  0  0  0  0
    1.6004    2.8135    2.9686 H   0  0  0  0  0  0  0  0  0  0  0  0
   -1.8936    2.1182    2.7103 H   0  0  0  0  0  0  0  0  0  0  0  0
   -3.5161    3.3325    4.0643 H   0  0  0  0  0  0  0  0  0  0  0  0
   -3.1249    3.6948    6.5008 H   0  0  0  0  0  0  0  0  0  0  0  0
   -1.0790    2.7844    7.5671 H   0  0  0  0  0  0  0  0  0  0  0  0
    0.5711    1.5154    6.2140 H   0  0  0  0  0  0  0  0  0  0  0  0
   -0.9655    0.1493    2.1134 H   0  0  0  0  0  0  0  0  0  0  0  0
    0.3253    1.0825    1.2894 H   0  0  0  0  0  0  0  0  0  0  0  0
    0.7728   -1.7174    2.0557 H   0  0  0  0  0  0  0  0  0  0  0  0
    0.0284   -1.0985    4.2379 H   0  0  0  0  0  0  0  0  0  0  0  0
    2.3553   -2.0598    4.1624 H   0  0  0  0  0  0  0  0  0  0  0  0
    2.8120   -0.4427    4.8234 H   0  0  0  0  0  0  0  0  0  0  0  0
    2.4242   -1.0533    0.0113 H   0  0  0  0  0  0  0  0  0  0  0  0
  1  2  1  0
  1 24  1  0
  1 25  1  0
  1 26  1  0
  2  6  1  0
  2  3  1  0
  3  4  2  0
  4  5  1  0
  5  6  2  0
  6  7  1  0
  7  8  1  0
  7 27  1  0
  7 28  1  0
  8  9  1  0
  8 29  1  0
  8 47  1  0
 10  9  1  6
  9 30  1  0
  9 31  1  0
 10 21  1  0
 10 23  1  0
 10 11  1  0
 11 12  1  0
 11 32  1  0
 11 33  1  0
 12 13  1  0
 12 34  1  0
 12 35  1  0
 13 22  1  0
 13 14  1  1
 13 20  1  0
 14 19  1  0
 14 15  2  0
 15 16  1  0
 15 36  1  0
 16 17  2  0
 16 37  1  0
 17 18  1  0
 17 38  1  0
 18 19  2  0
 18 39  1  0
 19 40  1  0
 20 21  1  0
 20 41  1  0
 20 42  1  0
 21 22  1  0
 21 43  1  6
 22 23  1  0
 22 44  1  1
 23 45  1  0
 23 46  1  0
M  CHG  1   8   1
M  END
>  <i_m_ct_stereo_status>  (129) 
1

>  <s_m_source_file>  (129) 
/var/tmp/pbs.5076255.sched01/tmp06uo9b_r/40lj_pgbub.sdf

>  <i_m_source_file_index>  (129) 
14

>  <i_lp_mmshare_version>  (129) 
48012

>  <i_f3d_flags>  (129) 
0

>  <s_epik_input>  (129) 
W0NIM11uMW5ubmMxW0NIMl1bTkhdW0NIMl1bQ0BdMjNbQ0BIXTRbQ0BASF0oW0NIMl0zKVtDQF0oW0NIMl00KShbQ0gyXVtDSDJdMiljNVtjSF1bY0hdW2NIXVtjSF1bY0hdNQ==

>  <s_epik_cmdline>  (129) 
J2VwaWtfcHl0aG9uJywgJy1waHQnLCAnMi4wJywgJy1waCcsICc3LjAnLCAnLXRuJywgJzgnLCAnLW1hJywgJzIwMCcsICctaW1hZScsICc8aW5maWxlLm1hZT4nLCAnLW9tYWUnLCAnPG91dGZpbGUubWFlPic=

>  <r_lp_tautomer_probability>  (129) 
1

>  <r_epik_Ionization_Penalty>  (129) 
0.0472097

>  <r_epik_Ionization_Penalty_Charging>  (129) 
0.0472097

>  <r_epik_Ionization_Penalty_Neutral>  (129) 
3.66521e-13

>  <r_epik_State_Penalty>  (129) 
0.040189

>  <r_epik_Charging_Adjusted_Penalty>  (129) 
0.0873987

>  <i_epik_Tot_Q>  (129) 
1

>  <i_epik_Tot_abs_Q>  (129) 
1

>  <s_lp_Force_Field>  (129) 
OPLS3e

>  <r_lp_Energy>  (129) 
52.7582

>  <b_lp_Chiralities_Consistent>  (129) 
1

>  <s_lp_Variant>  (129) 
41:0-1

>  <s_i_glide_gridfile>  (129) 
pfpi4k_grid

>  <i_i_glide_lignum>  (129) 
14

>  <i_i_glide_rotatable_bonds>  (129) 
5

>  <r_i_docking_score>  (129) 
-3.63629

>  <r_i_glide_ligand_efficiency>  (129) 
-0.158099

>  <r_i_glide_ligand_efficiency_sa>  (129) 
-0.449614

>  <r_i_glide_ligand_efficiency_ln>  (129) 
-0.879287

>  <r_i_glide_gscore>  (129) 
-3.63629

>  <r_i_glide_lipo>  (129) 
-0.354578

>  <r_i_glide_hbond>  (129) 
-0.2

>  <r_i_glide_metal>  (129) 
-0

>  <r_i_glide_rewards>  (129) 
-1.29261

>  <r_i_glide_evdw>  (129) 
-27.3842

>  <r_i_glide_ecoul>  (129) 
-8.22966

>  <r_i_glide_erotb>  (129) 
0.961537

>  <r_i_glide_esite>  (129) 
-0.146975

>  <r_i_glide_emodel>  (129) 
-43.9977

>  <r_i_glide_energy>  (129) 
-35.6138

>  <r_i_glide_einternal>  (129) 
0.699968

>  <r_i_glide_intrahb_reward>  (129) 
-0

>  <i_i_glide_confnum>  (129) 
2

>  <i_i_glide_posenum>  (129) 
1

>  <r_i_glide_eff_state_penalty>  (129) 
0

>  <ligand_id>  (129) 
41

>  <original_smiles>  (129) 
Cn1nnnc1CNCC12CCC3(c4ccccc4)CC1C3C2

>  <smiles>  (129) 
[H]c1c([H])c([H])c(C23C([H])([H])C([H])([H])C4(C([H])([H])[N+]([H])([H])C([H])([H])c5nnnn5C([H])([H])[H])C([H])([H])C2([H])C4([H])C3([H])[H])c([H])c1[H]

$$$$
41:0:1
     RDKit          3D

 47 51  0  0  1  0  0  0  0  0999 V2000
    4.9437   -5.0168    0.1753 C   0  0  0  0  0  0  0  0  0  0  0  0
    5.6896   -3.8052   -0.0903 N   0  0  0  0  0  0  0  0  0  0  0  0
    7.0298   -3.7715    0.0530 N   0  0  0  0  0  0  0  0  0  0  0  0
    7.4257   -2.5942   -0.3171 N   0  0  0  0  0  0  0  0  0  0  0  0
    6.3620   -1.7978   -0.6943 N   0  0  0  0  0  0  0  0  0  0  0  0
    5.3067   -2.5902   -0.5449 C   0  0  0  0  0  0  0  0  0  0  0  0
    3.9181   -2.2379   -0.9057 C   0  0  0  0  0  0  0  0  0  0  0  0
    3.4557   -1.1823    0.0396 N   0  0  0  0  0  0  0  0  0  0  0  0
    3.5401   -1.4860    1.4878 C   0  0  0  0  0  0  0  0  0  0  0  0
    2.5976   -0.6282    2.3438 C   0  0  1  0  0  0  0  0  0  0  0  0
    3.0455    0.8446    2.4240 C   0  0  0  0  0  0  0  0  0  0  0  0
    2.0127    1.6658    3.2542 C   0  0  0  0  0  0  0  0  0  0  0  0
    0.6573    0.9467    3.2687 C   0  0  1  0  0  0  0  0  0  0  0  0
   -0.3471    1.7059    4.1283 C   0  0  0  0  0  0  0  0  0  0  0  0
   -1.2953    2.5546    3.5238 C   0  0  0  0  0  0  0  0  0  0  0  0
   -2.1922    3.2870    4.3191 C   0  0  0  0  0  0  0  0  0  0  0  0
   -2.1469    3.1811    5.7247 C   0  0  0  0  0  0  0  0  0  0  0  0
   -1.2069    2.3268    6.3289 C   0  0  0  0  0  0  0  0  0  0  0  0
   -0.3128    1.5814    5.5340 C   0  0  0  0  0  0  0  0  0  0  0  0
    0.1975    0.5016    1.8687 C   0  0  0  0  0  0  0  0  0  0  0  0
    1.0849   -0.7318    2.0497 C   0  0  2  0  0  0  0  0  0  0  0  0
    0.8330   -0.5701    3.5346 C   0  0  1  0  0  0  0  0  0  0  0  0
    2.2075   -1.2227    3.7138 C   0  0  0  0  0  0  0  0  0  0  0  0
    3.9155   -4.7992    0.4517 H   0  0  0  0  0  0  0  0  0  0  0  0
    5.4237   -5.5295    1.0089 H   0  0  0  0  0  0  0  0  0  0  0  0
    4.9621   -5.6709   -0.7006 H   0  0  0  0  0  0  0  0  0  0  0  0
    3.9479   -1.8638   -1.9276 H   0  0  0  0  0  0  0  0  0  0  0  0
    3.2721   -3.1158   -0.9113 H   0  0  0  0  0  0  0  0  0  0  0  0
    3.9656   -0.3194   -0.1456 H   0  0  0  0  0  0  0  0  0  0  0  0
    3.2797   -2.5389    1.6187 H   0  0  0  0  0  0  0  0  0  0  0  0
    4.5669   -1.3898    1.8477 H   0  0  0  0  0  0  0  0  0  0  0  0
    4.0434    0.9264    2.8619 H   0  0  0  0  0  0  0  0  0  0  0  0
    3.0856    1.2601    1.4153 H   0  0  0  0  0  0  0  0  0  0  0  0
    2.3764    1.7438    4.2771 H   0  0  0  0  0  0  0  0  0  0  0  0
    1.9196    2.6780    2.8608 H   0  0  0  0  0  0  0  0  0  0  0  0
   -1.3315    2.6631    2.4479 H   0  0  0  0  0  0  0  0  0  0  0  0
   -2.8991    3.9351    3.8361 H   0  0  0  0  0  0  0  0  0  0  0  0
   -2.8229    3.7567    6.3390 H   0  0  0  0  0  0  0  0  0  0  0  0
   -1.1540    2.2647    7.4026 H   0  0  0  0  0  0  0  0  0  0  0  0
    0.4181    0.9383    5.9993 H   0  0  0  0  0  0  0  0  0  0  0  0
   -0.8610    0.2519    1.7993 H   0  0  0  0  0  0  0  0  0  0  0  0
    0.5150    1.1614    1.0575 H   0  0  0  0  0  0  0  0  0  0  0  0
    0.7113   -1.6962    1.7154 H   0  0  0  0  0  0  0  0  0  0  0  0
   -0.0514   -1.1427    3.8004 H   0  0  0  0  0  0  0  0  0  0  0  0
    2.1639   -2.3196    3.7572 H   0  0  0  0  0  0  0  0  0  0  0  0
    2.7689   -0.7949    4.5439 H   0  0  0  0  0  0  0  0  0  0  0  0
    2.4637   -1.0522   -0.1945 H   0  0  0  0  0  0  0  0  0  0  0  0
  1  2  1  0
  1 24  1  0
  1 25  1  0
  1 26  1  0
  2  6  1  0
  2  3  1  0
  3  4  2  0
  4  5  1  0
  5  6  2  0
  6  7  1  0
  7  8  1  0
  7 27  1  0
  7 28  1  0
  8  9  1  0
  8 29  1  0
  8 47  1  0
 10  9  1  6
  9 30  1  0
  9 31  1  0
 10 21  1  0
 10 23  1  0
 10 11  1  0
 11 12  1  0
 11 32  1  0
 11 33  1  0
 12 13  1  0
 12 34  1  0
 12 35  1  0
 13 22  1  0
 13 14  1  1
 13 20  1  0
 14 19  1  0
 14 15  2  0
 15 16  1  0
 15 36  1  0
 16 17  2  0
 16 37  1  0
 17 18  1  0
 17 38  1  0
 18 19  2  0
 18 39  1  0
 19 40  1  0
 20 21  1  0
 20 41  1  0
 20 42  1  0
 21 22  1  0
 21 43  1  6
 22 23  1  0
 22 44  1  1
 23 45  1  0
 23 46  1  0
M  CHG  1   8   1
M  END
>  <i_m_ct_stereo_status>  (130) 
1

>  <s_m_source_file>  (130) 
/var/tmp/pbs.5076255.sched01/tmp06uo9b_r/40lj_pgbub.sdf

>  <i_m_source_file_index>  (130) 
14

>  <i_lp_mmshare_version>  (130) 
48012

>  <i_f3d_flags>  (130) 
0

>  <s_epik_input>  (130) 
W0NIM11uMW5ubmMxW0NIMl1bTkhdW0NIMl1bQ0BdMjNbQ0BIXTRbQ0BASF0oW0NIMl0zKVtDQF0oW0NIMl00KShbQ0gyXVtDSDJdMiljNVtjSF1bY0hdW2NIXVtjSF1bY0hdNQ==

>  <s_epik_cmdline>  (130) 
J2VwaWtfcHl0aG9uJywgJy1waHQnLCAnMi4wJywgJy1waCcsICc3LjAnLCAnLXRuJywgJzgnLCAnLW1hJywgJzIwMCcsICctaW1hZScsICc8aW5maWxlLm1hZT4nLCAnLW9tYWUnLCAnPG91dGZpbGUubWFlPic=

>  <r_lp_tautomer_probability>  (130) 
1

>  <r_epik_Ionization_Penalty>  (130) 
0.0472097

>  <r_epik_Ionization_Penalty_Charging>  (130) 
0.0472097

>  <r_epik_Ionization_Penalty_Neutral>  (130) 
3.66521e-13

>  <r_epik_State_Penalty>  (130) 
0.040189

>  <r_epik_Charging_Adjusted_Penalty>  (130) 
0.0873987

>  <i_epik_Tot_Q>  (130) 
1

>  <i_epik_Tot_abs_Q>  (130) 
1

>  <s_lp_Force_Field>  (130) 
OPLS3e

>  <r_lp_Energy>  (130) 
52.7582

>  <b_lp_Chiralities_Consistent>  (130) 
1

>  <s_lp_Variant>  (130) 
41:0-1

>  <s_i_glide_gridfile>  (130) 
pfpi4k_grid

>  <i_i_glide_lignum>  (130) 
14

>  <i_i_glide_rotatable_bonds>  (130) 
5

>  <r_i_docking_score>  (130) 
-3.24685

>  <r_i_glide_ligand_efficiency>  (130) 
-0.141167

>  <r_i_glide_ligand_efficiency_sa>  (130) 
-0.401461

>  <r_i_glide_ligand_efficiency_ln>  (130) 
-0.785117

>  <r_i_glide_gscore>  (130) 
-3.24685

>  <r_i_glide_lipo>  (130) 
-0.119891

>  <r_i_glide_hbond>  (130) 
-0.2

>  <r_i_glide_metal>  (130) 
-0

>  <r_i_glide_rewards>  (130) 
-1.37589

>  <r_i_glide_evdw>  (130) 
-23.4401

>  <r_i_glide_ecoul>  (130) 
-7.9121

>  <r_i_glide_erotb>  (130) 
0.961537

>  <r_i_glide_esite>  (130) 
-0.153779

>  <r_i_glide_emodel>  (130) 
-38.3489

>  <r_i_glide_energy>  (130) 
-31.3522

>  <r_i_glide_einternal>  (130) 
1.56037

>  <r_i_glide_intrahb_reward>  (130) 
-0

>  <i_i_glide_confnum>  (130) 
4

>  <i_i_glide_posenum>  (130) 
39

>  <r_i_glide_eff_state_penalty>  (130) 
0

>  <ligand_id>  (130) 
41

>  <original_smiles>  (130) 
Cn1nnnc1CNCC12CCC3(c4ccccc4)CC1C3C2

>  <smiles>  (130) 
[H]c1c([H])c([H])c(C23C([H])([H])C([H])([H])C4(C([H])([H])[N+]([H])([H])C([H])([H])c5nnnn5C([H])([H])[H])C([H])([H])C2([H])C4([H])C3([H])[H])c([H])c1[H]

$$$$
41:0:2
     RDKit          3D

 47 51  0  0  1  0  0  0  0  0999 V2000
    3.9704   -1.1013   -0.5813 C   0  0  0  0  0  0  0  0  0  0  0  0
    3.9436   -1.6014   -1.9502 N   0  0  0  0  0  0  0  0  0  0  0  0
    3.3513   -0.8628   -2.9202 N   0  0  0  0  0  0  0  0  0  0  0  0
    3.5106   -1.5187   -4.0361 N   0  0  0  0  0  0  0  0  0  0  0  0
    4.1946   -2.6911   -3.8175 N   0  0  0  0  0  0  0  0  0  0  0  0
    4.4498   -2.6786   -2.5151 C   0  0  0  0  0  0  0  0  0  0  0  0
    5.3593   -3.6530   -1.8615 C   0  0  0  0  0  0  0  0  0  0  0  0
    4.5443   -4.3079   -0.8138 N   0  0  0  0  0  0  0  0  0  0  0  0
    5.3661   -4.9317    0.2518 C   0  0  0  0  0  0  0  0  0  0  0  0
    4.5435   -5.6480    1.3276 C   0  0  1  0  0  0  0  0  0  0  0  0
    3.8015   -4.6682    2.2575 C   0  0  0  0  0  0  0  0  0  0  0  0
    2.9169   -5.4604    3.2664 C   0  0  0  0  0  0  0  0  0  0  0  0
    2.6197   -6.8612    2.7133 C   0  0  1  0  0  0  0  0  0  0  0  0
    1.7963   -7.6598    3.7174 C   0  0  0  0  0  0  0  0  0  0  0  0
    0.3933   -7.7221    3.5978 C   0  0  0  0  0  0  0  0  0  0  0  0
   -0.3781   -8.4199    4.5539 C   0  0  0  0  0  0  0  0  0  0  0  0
    0.2562   -9.0649    5.6344 C   0  0  0  0  0  0  0  0  0  0  0  0
    1.6576   -9.0244    5.7514 C   0  0  0  0  0  0  0  0  0  0  0  0
    2.4291   -8.3247    4.7940 C   0  0  0  0  0  0  0  0  0  0  0  0
    2.1373   -6.8545    1.2488 C   0  0  0  0  0  0  0  0  0  0  0  0
    3.6109   -6.7752    0.8447 C   0  0  2  0  0  0  0  0  0  0  0  0
    3.9020   -7.5157    2.1412 C   0  0  1  0  0  0  0  0  0  0  0  0
    5.2478   -6.7867    2.1123 C   0  0  0  0  0  0  0  0  0  0  0  0
    4.1196   -1.9163    0.1197 H   0  0  0  0  0  0  0  0  0  0  0  0
    3.0154   -0.6458   -0.3425 H   0  0  0  0  0  0  0  0  0  0  0  0
    4.7700   -0.3755   -0.4730 H   0  0  0  0  0  0  0  0  0  0  0  0
    5.6853   -4.3445   -2.6272 H   0  0  0  0  0  0  0  0  0  0  0  0
    6.2244   -3.1096   -1.5002 H   0  0  0  0  0  0  0  0  0  0  0  0
    3.9465   -3.6177   -0.3801 H   0  0  0  0  0  0  0  0  0  0  0  0
    6.0428   -5.6369   -0.2183 H   0  0  0  0  0  0  0  0  0  0  0  0
    6.0103   -4.1950    0.7216 H   0  0  0  0  0  0  0  0  0  0  0  0
    4.4966   -4.0183    2.7919 H   0  0  0  0  0  0  0  0  0  0  0  0
    3.1530   -4.0269    1.6618 H   0  0  0  0  0  0  0  0  0  0  0  0
    3.4541   -5.5665    4.2097 H   0  0  0  0  0  0  0  0  0  0  0  0
    1.9941   -4.9247    3.4846 H   0  0  0  0  0  0  0  0  0  0  0  0
   -0.1097   -7.2403    2.7716 H   0  0  0  0  0  0  0  0  0  0  0  0
   -1.4527   -8.4779    4.4617 H   0  0  0  0  0  0  0  0  0  0  0  0
   -0.3385   -9.6134    6.3610 H   0  0  0  0  0  0  0  0  0  0  0  0
    2.1377   -9.5358    6.5762 H   0  0  0  0  0  0  0  0  0  0  0  0
    3.5040   -8.3005    4.8978 H   0  0  0  0  0  0  0  0  0  0  0  0
    1.6572   -7.7806    0.9131 H   0  0  0  0  0  0  0  0  0  0  0  0
    1.5614   -5.9681    0.9830 H   0  0  0  0  0  0  0  0  0  0  0  0
    3.9539   -7.3317   -0.0192 H   0  0  0  0  0  0  0  0  0  0  0  0
    3.8955   -8.5898    1.9690 H   0  0  0  0  0  0  0  0  0  0  0  0
    6.0304   -7.3288    1.5659 H   0  0  0  0  0  0  0  0  0  0  0  0
    5.5773   -6.4974    3.1118 H   0  0  0  0  0  0  0  0  0  0  0  0
    3.9592   -5.0077   -1.2673 H   0  0  0  0  0  0  0  0  0  0  0  0
  1  2  1  0
  1 24  1  0
  1 25  1  0
  1 26  1  0
  2  6  1  0
  2  3  1  0
  3  4  2  0
  4  5  1  0
  5  6  2  0
  6  7  1  0
  7  8  1  0
  7 27  1  0
  7 28  1  0
  8  9  1  0
  8 29  1  0
  8 47  1  0
 10  9  1  6
  9 30  1  0
  9 31  1  0
 10 21  1  0
 10 23  1  0
 10 11  1  0
 11 12  1  0
 11 32  1  0
 11 33  1  0
 12 13  1  0
 12 34  1  0
 12 35  1  0
 13 22  1  0
 13 14  1  1
 13 20  1  0
 14 19  1  0
 14 15  2  0
 15 16  1  0
 15 36  1  0
 16 17  2  0
 16 37  1  0
 17 18  1  0
 17 38  1  0
 18 19  2  0
 18 39  1  0
 19 40  1  0
 20 21  1  0
 20 41  1  0
 20 42  1  0
 21 22  1  0
 21 43  1  6
 22 23  1  0
 22 44  1  6
 23 45  1  0
 23 46  1  0
M  CHG  1   8   1
M  END
>  <i_m_ct_stereo_status>  (131) 
1

>  <s_m_source_file>  (131) 
/var/tmp/pbs.5076255.sched01/tmp06uo9b_r/40lj_pgbub.sdf

>  <i_m_source_file_index>  (131) 
14

>  <i_lp_mmshare_version>  (131) 
48012

>  <i_f3d_flags>  (131) 
0

>  <s_epik_input>  (131) 
W0NIM11uMW5ubmMxW0NIMl1bTkhdW0NIMl1bQ0BdMjNbQ0BIXTRbQ0BASF0oW0NIMl0zKVtDQF0oW0NIMl00KShbQ0gyXVtDSDJdMiljNVtjSF1bY0hdW2NIXVtjSF1bY0hdNQ==

>  <s_epik_cmdline>  (131) 
J2VwaWtfcHl0aG9uJywgJy1waHQnLCAnMi4wJywgJy1waCcsICc3LjAnLCAnLXRuJywgJzgnLCAnLW1hJywgJzIwMCcsICctaW1hZScsICc8aW5maWxlLm1hZT4nLCAnLW9tYWUnLCAnPG91dGZpbGUubWFlPic=

>  <r_lp_tautomer_probability>  (131) 
1

>  <r_epik_Ionization_Penalty>  (131) 
0.0472097

>  <r_epik_Ionization_Penalty_Charging>  (131) 
0.0472097

>  <r_epik_Ionization_Penalty_Neutral>  (131) 
3.66521e-13

>  <r_epik_State_Penalty>  (131) 
0.040189

>  <r_epik_Charging_Adjusted_Penalty>  (131) 
0.0873987

>  <i_epik_Tot_Q>  (131) 
1

>  <i_epik_Tot_abs_Q>  (131) 
1

>  <s_lp_Force_Field>  (131) 
OPLS3e

>  <r_lp_Energy>  (131) 
52.7582

>  <b_lp_Chiralities_Consistent>  (131) 
1

>  <s_lp_Variant>  (131) 
41:0-1

>  <s_i_glide_gridfile>  (131) 
pfpi4k_grid

>  <i_i_glide_lignum>  (131) 
14

>  <i_i_glide_rotatable_bonds>  (131) 
5

>  <r_i_docking_score>  (131) 
-2.97217

>  <r_i_glide_ligand_efficiency>  (131) 
-0.129225

>  <r_i_glide_ligand_efficiency_sa>  (131) 
-0.367498

>  <r_i_glide_ligand_efficiency_ln>  (131) 
-0.718698

>  <r_i_glide_gscore>  (131) 
-2.97217

>  <r_i_glide_lipo>  (131) 
-0.303985

>  <r_i_glide_hbond>  (131) 
0

>  <r_i_glide_metal>  (131) 
-0

>  <r_i_glide_rewards>  (131) 
-1.39131

>  <r_i_glide_evdw>  (131) 
-25.7359

>  <r_i_glide_ecoul>  (131) 
-5.859

>  <r_i_glide_erotb>  (131) 
0.961537

>  <r_i_glide_esite>  (131) 
-0.0727696

>  <r_i_glide_emodel>  (131) 
-37.9565

>  <r_i_glide_energy>  (131) 
-31.5949

>  <r_i_glide_einternal>  (131) 
1.04356

>  <r_i_glide_intrahb_reward>  (131) 
-0

>  <i_i_glide_confnum>  (131) 
1

>  <i_i_glide_posenum>  (131) 
12

>  <r_i_glide_eff_state_penalty>  (131) 
0

>  <ligand_id>  (131) 
41

>  <original_smiles>  (131) 
Cn1nnnc1CNCC12CCC3(c4ccccc4)CC1C3C2

>  <smiles>  (131) 
[H]c1c([H])c([H])c(C23C([H])([H])C([H])([H])C4(C([H])([H])[N+]([H])([H])C([H])([H])c5nnnn5C([H])([H])[H])C([H])([H])C2([H])C4([H])C3([H])[H])c([H])c1[H]

$$$$
41:1:0
     RDKit          3D

 46 50  0  0  1  0  0  0  0  0999 V2000
    2.0477   -3.3671   -2.3668 C   0  0  0  0  0  0  0  0  0  0  0  0
    3.1083   -2.3929   -2.2487 N   0  0  0  0  0  0  0  0  0  0  0  0
    3.4041   -1.5705   -3.2794 N   0  0  0  0  0  0  0  0  0  0  0  0
    4.3756   -0.8065   -2.8957 N   0  0  0  0  0  0  0  0  0  0  0  0
    4.7839   -1.1293   -1.6225 N   0  0  0  0  0  0  0  0  0  0  0  0
    3.9554   -2.0936   -1.2546 C   0  0  0  0  0  0  0  0  0  0  0  0
    3.9668   -2.7739    0.0782 C   0  0  0  0  0  0  0  0  0  0  0  0
    3.0726   -2.1743    1.0642 N   0  0  0  0  0  0  0  0  0  0  0  0
    3.5264   -0.8481    1.4684 C   0  0  0  0  0  0  0  0  0  0  0  0
    2.5312   -0.1916    2.4255 C   0  0  1  0  0  0  0  0  0  0  0  0
    1.2075    0.1378    1.7201 C   0  0  0  0  0  0  0  0  0  0  0  0
    0.2329    0.7838    2.7254 C   0  0  0  0  0  0  0  0  0  0  0  0
    0.6118    0.4118    4.1799 C   0  0  1  0  0  0  0  0  0  0  0  0
   -0.3143    1.0880    5.2119 C   0  0  0  0  0  0  0  0  0  0  0  0
   -0.1304    0.8807    6.6010 C   0  0  0  0  0  0  0  0  0  0  0  0
   -0.9812    1.4934    7.5451 C   0  0  0  0  0  0  0  0  0  0  0  0
   -2.0282    2.3307    7.1126 C   0  0  0  0  0  0  0  0  0  0  0  0
   -2.2066    2.5602    5.7435 C   0  0  0  0  0  0  0  0  0  0  0  0
   -1.3704    1.9452    4.8018 C   0  0  0  0  0  0  0  0  0  0  0  0
    0.8713   -1.1065    4.3426 C   0  0  0  0  0  0  0  0  0  0  0  0
    2.2848   -0.8676    3.7979 C   0  0  2  0  0  0  0  0  0  0  0  0
    2.1486    0.5411    4.3895 C   0  0  1  0  0  0  0  0  0  0  0  0
    3.0742    0.9927    3.2556 C   0  0  0  0  0  0  0  0  0  0  0  0
    2.0054   -4.0218   -1.4960 H   0  0  0  0  0  0  0  0  0  0  0  0
    2.2133   -3.9615   -3.2660 H   0  0  0  0  0  0  0  0  0  0  0  0
    1.0928   -2.8542   -2.4595 H   0  0  0  0  0  0  0  0  0  0  0  0
    3.6673   -3.8110   -0.0632 H   0  0  0  0  0  0  0  0  0  0  0  0
    4.9954   -2.8013    0.4490 H   0  0  0  0  0  0  0  0  0  0  0  0
    3.0028   -2.7673    1.8789 H   0  0  0  0  0  0  0  0  0  0  0  0
    4.4992   -0.9567    1.9541 H   0  0  0  0  0  0  0  0  0  0  0  0
    3.6761   -0.2016    0.6024 H   0  0  0  0  0  0  0  0  0  0  0  0
    1.3552    0.7915    0.8600 H   0  0  0  0  0  0  0  0  0  0  0  0
    0.7533   -0.7814    1.3534 H   0  0  0  0  0  0  0  0  0  0  0  0
    0.3148    1.8619    2.5894 H   0  0  0  0  0  0  0  0  0  0  0  0
   -0.7824    0.4775    2.4748 H   0  0  0  0  0  0  0  0  0  0  0  0
    0.6772    0.2557    6.9555 H   0  0  0  0  0  0  0  0  0  0  0  0
   -0.8298    1.3357    8.5995 H   0  0  0  0  0  0  0  0  0  0  0  0
   -2.6904    2.7984    7.8200 H   0  0  0  0  0  0  0  0  0  0  0  0
   -3.0010    3.1959    5.3829 H   0  0  0  0  0  0  0  0  0  0  0  0
   -1.5803    2.1685    3.7681 H   0  0  0  0  0  0  0  0  0  0  0  0
    0.8829   -1.4737    5.3659 H   0  0  0  0  0  0  0  0  0  0  0  0
    0.2491   -1.7355    3.7053 H   0  0  0  0  0  0  0  0  0  0  0  0
    3.1110   -1.4385    4.2321 H   0  0  0  0  0  0  0  0  0  0  0  0
    2.5346    0.5911    5.4106 H   0  0  0  0  0  0  0  0  0  0  0  0
    4.1348    0.9241    3.4969 H   0  0  0  0  0  0  0  0  0  0  0  0
    2.8223    1.9729    2.8464 H   0  0  0  0  0  0  0  0  0  0  0  0
  1  2  1  0
  1 24  1  0
  1 25  1  0
  1 26  1  0
  2  6  1  0
  2  3  1  0
  3  4  2  0
  4  5  1  0
  5  6  2  0
  6  7  1  0
  7  8  1  0
  7 27  1  0
  7 28  1  0
  8  9  1  0
  8 29  1  0
 10  9  1  6
  9 30  1  0
  9 31  1  0
 10 21  1  0
 10 23  1  0
 10 11  1  0
 11 12  1  0
 11 32  1  0
 11 33  1  0
 12 13  1  0
 12 34  1  0
 12 35  1  0
 13 22  1  0
 13 14  1  1
 13 20  1  0
 14 19  1  0
 14 15  2  0
 15 16  1  0
 15 36  1  0
 16 17  2  0
 16 37  1  0
 17 18  1  0
 17 38  1  0
 18 19  2  0
 18 39  1  0
 19 40  1  0
 20 21  1  0
 20 41  1  0
 20 42  1  0
 21 22  1  0
 21 43  1  1
 22 23  1  0
 22 44  1  1
 23 45  1  0
 23 46  1  0
M  END
>  <i_m_ct_stereo_status>  (132) 
1

>  <s_m_source_file>  (132) 
/var/tmp/pbs.5076255.sched01/tmp06uo9b_r/40lj_pgbub.sdf

>  <i_m_source_file_index>  (132) 
15

>  <i_lp_mmshare_version>  (132) 
48012

>  <i_f3d_flags>  (132) 
0

>  <s_epik_input>  (132) 
W0NIM11uMW5ubmMxW0NIMl1bTkhdW0NIMl1bQ0BdMjNbQ0BIXTRbQ0BASF0oW0NIMl0zKVtDQF0oW0NIMl00KShbQ0gyXVtDSDJdMiljNVtjSF1bY0hdW2NIXVtjSF1bY0hdNQ==

>  <s_epik_cmdline>  (132) 
J2VwaWtfcHl0aG9uJywgJy1waHQnLCAnMi4wJywgJy1waCcsICc3LjAnLCAnLXRuJywgJzgnLCAnLW1hJywgJzIwMCcsICctaW1hZScsICc8aW5maWxlLm1hZT4nLCAnLW9tYWUnLCAnPG91dGZpbGUubWFlPic=

>  <r_lp_tautomer_probability>  (132) 
1

>  <r_epik_Ionization_Penalty>  (132) 
1.52228

>  <r_epik_Ionization_Penalty_Charging>  (132) 
0

>  <r_epik_Ionization_Penalty_Neutral>  (132) 
1.52228

>  <r_epik_State_Penalty>  (132) 
1.6142

>  <r_epik_Charging_Adjusted_Penalty>  (132) 
1.6142

>  <i_epik_Tot_Q>  (132) 
0

>  <i_epik_Tot_abs_Q>  (132) 
0

>  <s_lp_Force_Field>  (132) 
OPLS3e

>  <r_lp_Energy>  (132) 
57.7705

>  <b_lp_Chiralities_Consistent>  (132) 
1

>  <s_lp_Variant>  (132) 
41:0-2

>  <s_i_glide_gridfile>  (132) 
pfpi4k_grid

>  <i_i_glide_lignum>  (132) 
15

>  <i_i_glide_rotatable_bonds>  (132) 
5

>  <r_i_docking_score>  (132) 
-2.49897

>  <r_i_glide_ligand_efficiency>  (132) 
-0.108651

>  <r_i_glide_ligand_efficiency_sa>  (132) 
-0.308988

>  <r_i_glide_ligand_efficiency_ln>  (132) 
-0.604273

>  <r_i_glide_gscore>  (132) 
-2.49897

>  <r_i_glide_lipo>  (132) 
-0.304222

>  <r_i_glide_hbond>  (132) 
0

>  <r_i_glide_metal>  (132) 
-0

>  <r_i_glide_rewards>  (132) 
-1.29949

>  <r_i_glide_evdw>  (132) 
-26.2548

>  <r_i_glide_ecoul>  (132) 
-2.7492

>  <r_i_glide_erotb>  (132) 
0.967044

>  <r_i_glide_esite>  (132) 
-0.137184

>  <r_i_glide_emodel>  (132) 
-31.5315

>  <r_i_glide_energy>  (132) 
-29.004

>  <r_i_glide_einternal>  (132) 
3.78175

>  <r_i_glide_intrahb_reward>  (132) 
-0

>  <i_i_glide_confnum>  (132) 
3

>  <i_i_glide_posenum>  (132) 
18

>  <r_i_glide_eff_state_penalty>  (132) 
0

>  <ligand_id>  (132) 
41

>  <original_smiles>  (132) 
Cn1nnnc1CNCC12CCC3(c4ccccc4)CC1C3C2

>  <smiles>  (132) 
[H]c1c([H])c([H])c(C23C([H])([H])C([H])([H])C4(C([H])([H])N([H])C([H])([H])c5nnnn5C([H])([H])[H])C([H])([H])C2([H])C4([H])C3([H])[H])c([H])c1[H]

$$$$
41:1:1
     RDKit          3D

 46 50  0  0  1  0  0  0  0  0999 V2000
    5.4571   -3.6905    1.4269 C   0  0  0  0  0  0  0  0  0  0  0  0
    5.4369   -2.8781    0.2324 N   0  0  0  0  0  0  0  0  0  0  0  0
    5.4714   -3.4499   -0.9991 N   0  0  0  0  0  0  0  0  0  0  0  0
    5.4484   -2.4832   -1.8660 N   0  0  0  0  0  0  0  0  0  0  0  0
    5.4103   -1.2505   -1.2410 N   0  0  0  0  0  0  0  0  0  0  0  0
    5.3906   -1.5519    0.0406 C   0  0  0  0  0  0  0  0  0  0  0  0
    5.3752   -0.5546    1.1536 C   0  0  0  0  0  0  0  0  0  0  0  0
    4.2406   -0.6586    2.0652 N   0  0  0  0  0  0  0  0  0  0  0  0
    2.9934   -0.2913    1.4080 C   0  0  0  0  0  0  0  0  0  0  0  0
    1.9539    0.1847    2.4285 C   0  0  1  0  0  0  0  0  0  0  0  0
    1.5648   -0.9049    3.4478 C   0  0  0  0  0  0  0  0  0  0  0  0
    0.5313   -0.3255    4.4613 C   0  0  0  0  0  0  0  0  0  0  0  0
    0.6277    1.2122    4.5021 C   0  0  1  0  0  0  0  0  0  0  0  0
   -0.4278    1.7811    5.4500 C   0  0  0  0  0  0  0  0  0  0  0  0
   -0.2521    1.6520    6.8442 C   0  0  0  0  0  0  0  0  0  0  0  0
   -1.2384    2.1295    7.7301 C   0  0  0  0  0  0  0  0  0  0  0  0
   -2.3981    2.7478    7.2290 C   0  0  0  0  0  0  0  0  0  0  0  0
   -2.5658    2.8975    5.8402 C   0  0  0  0  0  0  0  0  0  0  0  0
   -1.5908    2.4079    4.9519 C   0  0  0  0  0  0  0  0  0  0  0  0
    2.0772    1.7217    4.6501 C   0  0  0  0  0  0  0  0  0  0  0  0
    2.2270    1.5415    3.1343 C   0  0  2  0  0  0  0  0  0  0  0  0
    0.7259    1.8023    3.0689 C   0  0  1  0  0  0  0  0  0  0  0  0
    0.7217    0.9001    1.8354 C   0  0  0  0  0  0  0  0  0  0  0  0
    5.5483   -3.0684    2.3212 H   0  0  0  0  0  0  0  0  0  0  0  0
    6.3018   -4.3785    1.3930 H   0  0  0  0  0  0  0  0  0  0  0  0
    4.5282   -4.2570    1.4845 H   0  0  0  0  0  0  0  0  0  0  0  0
    6.2904   -0.6998    1.7227 H   0  0  0  0  0  0  0  0  0  0  0  0
    5.4447    0.4416    0.7103 H   0  0  0  0  0  0  0  0  0  0  0  0
    4.3889   -0.0555    2.8618 H   0  0  0  0  0  0  0  0  0  0  0  0
    3.1926    0.5303    0.7183 H   0  0  0  0  0  0  0  0  0  0  0  0
    2.6237   -1.1184    0.7973 H   0  0  0  0  0  0  0  0  0  0  0  0
    1.1795   -1.7944    2.9453 H   0  0  0  0  0  0  0  0  0  0  0  0
    2.4509   -1.2087    4.0069 H   0  0  0  0  0  0  0  0  0  0  0  0
   -0.4706   -0.6091    4.1423 H   0  0  0  0  0  0  0  0  0  0  0  0
    0.6899   -0.7621    5.4475 H   0  0  0  0  0  0  0  0  0  0  0  0
    0.6395    1.1810    7.2307 H   0  0  0  0  0  0  0  0  0  0  0  0
   -1.1053    2.0138    8.7934 H   0  0  0  0  0  0  0  0  0  0  0  0
   -3.1632    3.0953    7.9074 H   0  0  0  0  0  0  0  0  0  0  0  0
   -3.4622    3.3524    5.4516 H   0  0  0  0  0  0  0  0  0  0  0  0
   -1.7527    2.4980    3.8860 H   0  0  0  0  0  0  0  0  0  0  0  0
    2.1677    2.7636    4.9633 H   0  0  0  0  0  0  0  0  0  0  0  0
    2.7240    1.0635    5.2323 H   0  0  0  0  0  0  0  0  0  0  0  0
    2.7990    2.2920    2.5859 H   0  0  0  0  0  0  0  0  0  0  0  0
    0.5204    2.8629    2.9283 H   0  0  0  0  0  0  0  0  0  0  0  0
    0.9023    1.4343    0.8953 H   0  0  0  0  0  0  0  0  0  0  0  0
   -0.1641    0.2682    1.7645 H   0  0  0  0  0  0  0  0  0  0  0  0
  1  2  1  0
  1 24  1  0
  1 25  1  0
  1 26  1  0
  2  6  1  0
  2  3  1  0
  3  4  2  0
  4  5  1  0
  5  6  2  0
  6  7  1  0
  7  8  1  0
  7 27  1  0
  7 28  1  0
  8  9  1  0
  8 29  1  0
 10  9  1  6
  9 30  1  0
  9 31  1  0
 10 21  1  0
 10 23  1  0
 10 11  1  0
 11 12  1  0
 11 32  1  0
 11 33  1  0
 12 13  1  0
 12 34  1  0
 12 35  1  0
 13 22  1  0
 13 14  1  1
 13 20  1  0
 14 19  1  0
 14 15  2  0
 15 16  1  0
 15 36  1  0
 16 17  2  0
 16 37  1  0
 17 18  1  0
 17 38  1  0
 18 19  2  0
 18 39  1  0
 19 40  1  0
 20 21  1  0
 20 41  1  0
 20 42  1  0
 21 22  1  0
 21 43  1  6
 22 23  1  0
 22 44  1  6
 23 45  1  0
 23 46  1  0
M  END
>  <i_m_ct_stereo_status>  (133) 
1

>  <s_m_source_file>  (133) 
/var/tmp/pbs.5076255.sched01/tmp06uo9b_r/40lj_pgbub.sdf

>  <i_m_source_file_index>  (133) 
15

>  <i_lp_mmshare_version>  (133) 
48012

>  <i_f3d_flags>  (133) 
0

>  <s_epik_input>  (133) 
W0NIM11uMW5ubmMxW0NIMl1bTkhdW0NIMl1bQ0BdMjNbQ0BIXTRbQ0BASF0oW0NIMl0zKVtDQF0oW0NIMl00KShbQ0gyXVtDSDJdMiljNVtjSF1bY0hdW2NIXVtjSF1bY0hdNQ==

>  <s_epik_cmdline>  (133) 
J2VwaWtfcHl0aG9uJywgJy1waHQnLCAnMi4wJywgJy1waCcsICc3LjAnLCAnLXRuJywgJzgnLCAnLW1hJywgJzIwMCcsICctaW1hZScsICc8aW5maWxlLm1hZT4nLCAnLW9tYWUnLCAnPG91dGZpbGUubWFlPic=

>  <r_lp_tautomer_probability>  (133) 
1

>  <r_epik_Ionization_Penalty>  (133) 
1.52228

>  <r_epik_Ionization_Penalty_Charging>  (133) 
0

>  <r_epik_Ionization_Penalty_Neutral>  (133) 
1.52228

>  <r_epik_State_Penalty>  (133) 
1.6142

>  <r_epik_Charging_Adjusted_Penalty>  (133) 
1.6142

>  <i_epik_Tot_Q>  (133) 
0

>  <i_epik_Tot_abs_Q>  (133) 
0

>  <s_lp_Force_Field>  (133) 
OPLS3e

>  <r_lp_Energy>  (133) 
57.7705

>  <b_lp_Chiralities_Consistent>  (133) 
1

>  <s_lp_Variant>  (133) 
41:0-2

>  <s_i_glide_gridfile>  (133) 
pfpi4k_grid

>  <i_i_glide_lignum>  (133) 
15

>  <i_i_glide_rotatable_bonds>  (133) 
5

>  <r_i_docking_score>  (133) 
-2.25515

>  <r_i_glide_ligand_efficiency>  (133) 
-0.0980499

>  <r_i_glide_ligand_efficiency_sa>  (133) 
-0.278841

>  <r_i_glide_ligand_efficiency_ln>  (133) 
-0.545315

>  <r_i_glide_gscore>  (133) 
-2.25515

>  <r_i_glide_lipo>  (133) 
-0.372355

>  <r_i_glide_hbond>  (133) 
0

>  <r_i_glide_metal>  (133) 
-0

>  <r_i_glide_rewards>  (133) 
-1.35279

>  <r_i_glide_evdw>  (133) 
-24.0462

>  <r_i_glide_ecoul>  (133) 
-1.53224

>  <r_i_glide_erotb>  (133) 
0.967044

>  <r_i_glide_esite>  (133) 
-0.0649029

>  <r_i_glide_emodel>  (133) 
-28.8523

>  <r_i_glide_energy>  (133) 
-25.5784

>  <r_i_glide_einternal>  (133) 
1.44403

>  <r_i_glide_intrahb_reward>  (133) 
-0

>  <i_i_glide_confnum>  (133) 
3

>  <i_i_glide_posenum>  (133) 
9

>  <r_i_glide_eff_state_penalty>  (133) 
0

>  <ligand_id>  (133) 
41

>  <original_smiles>  (133) 
Cn1nnnc1CNCC12CCC3(c4ccccc4)CC1C3C2

>  <smiles>  (133) 
[H]c1c([H])c([H])c(C23C([H])([H])C([H])([H])C4(C([H])([H])N([H])C([H])([H])c5nnnn5C([H])([H])[H])C([H])([H])C2([H])C4([H])C3([H])[H])c([H])c1[H]

$$$$
41:1:2
     RDKit          3D

 46 50  0  0  1  0  0  0  0  0999 V2000
    3.0173   -3.3578    0.0943 C   0  0  0  0  0  0  0  0  0  0  0  0
    3.8730   -2.5634   -0.7787 N   0  0  0  0  0  0  0  0  0  0  0  0
    3.8021   -2.7328   -2.1196 N   0  0  0  0  0  0  0  0  0  0  0  0
    4.6673   -1.9073   -2.6557 N   0  0  0  0  0  0  0  0  0  0  0  0
    5.3269   -1.1861   -1.6774 N   0  0  0  0  0  0  0  0  0  0  0  0
    4.7832   -1.6097   -0.5388 C   0  0  0  0  0  0  0  0  0  0  0  0
    5.1859   -1.0842    0.7999 C   0  0  0  0  0  0  0  0  0  0  0  0
    4.1025   -0.8953    1.7649 N   0  0  0  0  0  0  0  0  0  0  0  0
    3.1176    0.0583    1.2769 C   0  0  0  0  0  0  0  0  0  0  0  0
    2.0936    0.4069    2.3627 C   0  0  1  0  0  0  0  0  0  0  0  0
    1.3495   -0.8287    2.9205 C   0  0  0  0  0  0  0  0  0  0  0  0
    0.3714   -0.3833    4.0477 C   0  0  0  0  0  0  0  0  0  0  0  0
    0.8148    0.9788    4.6284 C   0  0  1  0  0  0  0  0  0  0  0  0
   -0.1778    1.4487    5.6865 C   0  0  0  0  0  0  0  0  0  0  0  0
    0.0442    1.1522    7.0419 C   0  0  0  0  0  0  0  0  0  0  0  0
   -0.8842    1.5510    8.0189 C   0  0  0  0  0  0  0  0  0  0  0  0
   -2.0456    2.2516    7.6362 C   0  0  0  0  0  0  0  0  0  0  0  0
   -2.2630    2.5637    6.2828 C   0  0  0  0  0  0  0  0  0  0  0  0
   -1.3319    2.1633    5.3070 C   0  0  0  0  0  0  0  0  0  0  0  0
    2.3198    1.0277    4.9737 C   0  0  0  0  0  0  0  0  0  0  0  0
    2.5852    1.3415    3.4992 C   0  0  2  0  0  0  0  0  0  0  0  0
    1.2065    1.9707    3.4977 C   0  0  1  0  0  0  0  0  0  0  0  0
    1.1393    1.5663    2.0198 C   0  0  0  0  0  0  0  0  0  0  0  0
    3.2712   -3.2202    1.1428 H   0  0  0  0  0  0  0  0  0  0  0  0
    3.1353   -4.4119   -0.1457 H   0  0  0  0  0  0  0  0  0  0  0  0
    1.9875   -3.0495   -0.0666 H   0  0  0  0  0  0  0  0  0  0  0  0
    5.8815   -1.8047    1.2175 H   0  0  0  0  0  0  0  0  0  0  0  0
    5.7381   -0.1533    0.6446 H   0  0  0  0  0  0  0  0  0  0  0  0
    4.4522   -0.6157    2.6703 H   0  0  0  0  0  0  0  0  0  0  0  0
    3.6365    0.9648    0.9556 H   0  0  0  0  0  0  0  0  0  0  0  0
    2.6143   -0.3312    0.3899 H   0  0  0  0  0  0  0  0  0  0  0  0
    0.8320   -1.3722    2.1299 H   0  0  0  0  0  0  0  0  0  0  0  0
    2.0651   -1.5190    3.3626 H   0  0  0  0  0  0  0  0  0  0  0  0
   -0.6277   -0.2732    3.6284 H   0  0  0  0  0  0  0  0  0  0  0  0
    0.3114   -1.1386    4.8309 H   0  0  0  0  0  0  0  0  0  0  0  0
    0.9329    0.6179    7.3414 H   0  0  0  0  0  0  0  0  0  0  0  0
   -0.7113    1.3217    9.0586 H   0  0  0  0  0  0  0  0  0  0  0  0
   -2.7683    2.5491    8.3879 H   0  0  0  0  0  0  0  0  0  0  0  0
   -3.1554    3.0974    5.9917 H   0  0  0  0  0  0  0  0  0  0  0  0
   -1.5079    2.3984    4.2700 H   0  0  0  0  0  0  0  0  0  0  0  0
    2.6160    1.8512    5.6222 H   0  0  0  0  0  0  0  0  0  0  0  0
    2.7359    0.0754    5.3124 H   0  0  0  0  0  0  0  0  0  0  0  0
    3.3672    2.0593    3.2622 H   0  0  0  0  0  0  0  0  0  0  0  0
    1.2639    3.0298    3.7376 H   0  0  0  0  0  0  0  0  0  0  0  0
    1.5580    2.3216    1.3514 H   0  0  0  0  0  0  0  0  0  0  0  0
    0.1497    1.2425    1.6894 H   0  0  0  0  0  0  0  0  0  0  0  0
  1  2  1  0
  1 24  1  0
  1 25  1  0
  1 26  1  0
  2  6  1  0
  2  3  1  0
  3  4  2  0
  4  5  1  0
  5  6  2  0
  6  7  1  0
  7  8  1  0
  7 27  1  0
  7 28  1  0
  8  9  1  0
  8 29  1  0
 10  9  1  6
  9 30  1  0
  9 31  1  0
 10 21  1  0
 10 23  1  0
 10 11  1  0
 11 12  1  0
 11 32  1  0
 11 33  1  0
 12 13  1  0
 12 34  1  0
 12 35  1  0
 13 22  1  0
 13 14  1  1
 13 20  1  0
 14 19  1  0
 14 15  2  0
 15 16  1  0
 15 36  1  0
 16 17  2  0
 16 37  1  0
 17 18  1  0
 17 38  1  0
 18 19  2  0
 18 39  1  0
 19 40  1  0
 20 21  1  0
 20 41  1  0
 20 42  1  0
 21 22  1  0
 21 43  1  1
 22 23  1  0
 22 44  1  6
 23 45  1  0
 23 46  1  0
M  END
>  <i_m_ct_stereo_status>  (134) 
1

>  <s_m_source_file>  (134) 
/var/tmp/pbs.5076255.sched01/tmp06uo9b_r/40lj_pgbub.sdf

>  <i_m_source_file_index>  (134) 
15

>  <i_lp_mmshare_version>  (134) 
48012

>  <i_f3d_flags>  (134) 
0

>  <s_epik_input>  (134) 
W0NIM11uMW5ubmMxW0NIMl1bTkhdW0NIMl1bQ0BdMjNbQ0BIXTRbQ0BASF0oW0NIMl0zKVtDQF0oW0NIMl00KShbQ0gyXVtDSDJdMiljNVtjSF1bY0hdW2NIXVtjSF1bY0hdNQ==

>  <s_epik_cmdline>  (134) 
J2VwaWtfcHl0aG9uJywgJy1waHQnLCAnMi4wJywgJy1waCcsICc3LjAnLCAnLXRuJywgJzgnLCAnLW1hJywgJzIwMCcsICctaW1hZScsICc8aW5maWxlLm1hZT4nLCAnLW9tYWUnLCAnPG91dGZpbGUubWFlPic=

>  <r_lp_tautomer_probability>  (134) 
1

>  <r_epik_Ionization_Penalty>  (134) 
1.52228

>  <r_epik_Ionization_Penalty_Charging>  (134) 
0

>  <r_epik_Ionization_Penalty_Neutral>  (134) 
1.52228

>  <r_epik_State_Penalty>  (134) 
1.6142

>  <r_epik_Charging_Adjusted_Penalty>  (134) 
1.6142

>  <i_epik_Tot_Q>  (134) 
0

>  <i_epik_Tot_abs_Q>  (134) 
0

>  <s_lp_Force_Field>  (134) 
OPLS3e

>  <r_lp_Energy>  (134) 
57.7705

>  <b_lp_Chiralities_Consistent>  (134) 
1

>  <s_lp_Variant>  (134) 
41:0-2

>  <s_i_glide_gridfile>  (134) 
pfpi4k_grid

>  <i_i_glide_lignum>  (134) 
15

>  <i_i_glide_rotatable_bonds>  (134) 
5

>  <r_i_docking_score>  (134) 
-2.25339

>  <r_i_glide_ligand_efficiency>  (134) 
-0.0979735

>  <r_i_glide_ligand_efficiency_sa>  (134) 
-0.278624

>  <r_i_glide_ligand_efficiency_ln>  (134) 
-0.54489

>  <r_i_glide_gscore>  (134) 
-2.25339

>  <r_i_glide_lipo>  (134) 
-0.210099

>  <r_i_glide_hbond>  (134) 
0

>  <r_i_glide_metal>  (134) 
-0

>  <r_i_glide_rewards>  (134) 
-1.29949

>  <r_i_glide_evdw>  (134) 
-24.8951

>  <r_i_glide_ecoul>  (134) 
-2.25313

>  <r_i_glide_erotb>  (134) 
0.967044

>  <r_i_glide_esite>  (134) 
-0.128125

>  <r_i_glide_emodel>  (134) 
-30.4703

>  <r_i_glide_energy>  (134) 
-27.1483

>  <r_i_glide_einternal>  (134) 
1.23963

>  <r_i_glide_intrahb_reward>  (134) 
-0

>  <i_i_glide_confnum>  (134) 
3

>  <i_i_glide_posenum>  (134) 
1

>  <r_i_glide_eff_state_penalty>  (134) 
0

>  <ligand_id>  (134) 
41

>  <original_smiles>  (134) 
Cn1nnnc1CNCC12CCC3(c4ccccc4)CC1C3C2

>  <smiles>  (134) 
[H]c1c([H])c([H])c(C23C([H])([H])C([H])([H])C4(C([H])([H])N([H])C([H])([H])c5nnnn5C([H])([H])[H])C([H])([H])C2([H])C4([H])C3([H])[H])c([H])c1[H]

$$$$
42:0:0
     RDKit          3D

 74 80  0  0  1  0  0  0  0  0999 V2000
   -1.6996    3.1546    6.8442 C   0  0  0  0  0  0  0  0  0  0  0  0
   -0.3742    3.3764    6.0845 C   0  0  2  0  0  0  0  0  0  0  0  0
   -0.5734    3.9601    4.6829 C   0  0  0  0  0  0  0  0  0  0  0  0
   -1.6864    4.2366    4.2322 O   0  0  0  0  0  0  0  0  0  0  0  0
    0.7090    4.2386    3.9087 C   0  0  0  0  0  0  0  0  0  0  0  0
    1.6552    3.0232    3.9348 C   0  0  1  0  0  0  0  0  0  0  0  0
    2.8659    3.4318    3.3322 O   0  0  0  0  0  0  0  0  0  0  0  0
    1.9253    2.4141    5.3555 C   0  0  1  0  0  0  0  0  0  0  0  0
    2.7188    3.4625    6.1902 C   0  0  0  0  0  0  0  0  0  0  0  0
    0.5544    2.1287    6.0522 C   0  0  2  0  0  0  0  0  0  0  0  0
   -0.1158    0.8778    5.4421 C   0  0  0  0  0  0  0  0  0  0  0  0
    0.8011   -0.3469    5.5663 C   0  0  1  0  0  0  0  0  0  0  0  0
    0.0006   -1.4923    5.3874 O   0  0  0  0  0  0  0  0  0  0  0  0
    2.1254   -0.2080    4.6959 C   0  0  2  0  0  0  0  0  0  0  0  0
    1.8548   -0.3715    3.1611 C   0  0  2  0  0  0  0  0  0  0  0  0
    1.3396   -1.7860    2.8114 C   0  0  0  0  0  0  0  0  0  0  0  0
    2.0339   -2.9320    3.5922 C   0  0  1  0  0  0  0  0  0  0  0  0
    1.9943   -4.0600    2.7009 O   0  0  0  0  0  0  0  0  0  0  0  0
    3.2529   -4.4866    2.2144 C   0  0  1  0  0  0  0  0  0  0  0  0
    3.2765   -5.3901    0.9870 C   0  0  0  0  0  0  0  0  0  0  0  0
    4.5745   -5.1488    0.4381 O   0  0  0  0  0  0  0  0  0  0  0  0
    5.2041   -4.0856    1.1016 C   0  0  1  0  0  0  0  0  0  0  0  0
    5.9910   -3.3201    0.2245 O   0  0  0  0  0  0  0  0  0  0  0  0
    4.0450   -3.2900    1.7336 C   0  0  2  0  0  0  0  0  0  0  0  0
    4.3900   -2.2719    2.8816 C   0  0  1  0  0  0  0  0  0  0  0  0
    4.4077   -0.7754    2.3552 C   0  0  1  0  0  0  0  0  0  0  0  0
    5.2997   -0.5423    1.1204 C   0  0  0  0  0  0  0  0  0  0  0  0
    3.0404   -0.0491    2.2231 C   0  0  0  0  0  0  0  0  0  0  0  0
    2.8945    0.8268    1.3789 O   0  0  0  0  0  0  0  0  0  0  0  0
    3.4375   -2.4909    4.1503 C   0  0  2  0  0  0  0  0  0  0  0  0
    4.0207   -3.5667    5.0930 C   0  0  0  0  0  0  0  0  0  0  0  0
    3.3213   -4.1526    5.9106 O   0  0  0  0  0  0  0  0  0  0  0  0
    3.2917   -1.1791    5.0223 C   0  0  2  0  0  0  0  0  0  0  0  0
    3.5693   -0.9693    6.5089 C   0  0  0  0  0  0  0  0  0  0  0  0
    3.4123    0.5791    6.6160 C   0  0  0  0  0  0  0  0  0  0  0  0
    2.7903    1.0947    5.2633 C   0  0  2  0  0  0  0  0  0  0  0  0
   -2.2040    4.1032    7.0246 H   0  0  0  0  0  0  0  0  0  0  0  0
   -1.5196    2.6983    7.8180 H   0  0  0  0  0  0  0  0  0  0  0  0
   -2.3910    2.5178    6.2922 H   0  0  0  0  0  0  0  0  0  0  0  0
    0.1528    4.1497    6.6431 H   0  0  0  0  0  0  0  0  0  0  0  0
    0.4569    4.4964    2.8793 H   0  0  0  0  0  0  0  0  0  0  0  0
    1.1895    5.1138    4.3379 H   0  0  0  0  0  0  0  0  0  0  0  0
    1.2005    2.2849    3.2832 H   0  0  0  0  0  0  0  0  0  0  0  0
    3.2993    2.6826    2.9450 H   0  0  0  0  0  0  0  0  0  0  0  0
    2.7943    3.1827    7.2403 H   0  0  0  0  0  0  0  0  0  0  0  0
    2.2564    4.4485    6.1661 H   0  0  0  0  0  0  0  0  0  0  0  0
    3.7355    3.5939    5.8142 H   0  0  0  0  0  0  0  0  0  0  0  0
    0.7627    1.8937    7.0970 H   0  0  0  0  0  0  0  0  0  0  0  0
   -1.0356    0.6731    5.9881 H   0  0  0  0  0  0  0  0  0  0  0  0
   -0.4098    1.0389    4.4051 H   0  0  0  0  0  0  0  0  0  0  0  0
    1.0422   -0.3990    6.6248 H   0  0  0  0  0  0  0  0  0  0  0  0
   -0.1321   -1.6140    4.4607 H   0  0  0  0  0  0  0  0  0  0  0  0
    1.0618    0.3065    2.8596 H   0  0  0  0  0  0  0  0  0  0  0  0
    0.2578   -1.8505    2.9332 H   0  0  0  0  0  0  0  0  0  0  0  0
    1.4642   -1.9362    1.7368 H   0  0  0  0  0  0  0  0  0  0  0  0
    1.4123   -3.2275    4.4356 H   0  0  0  0  0  0  0  0  0  0  0  0
    3.7703   -5.0276    3.0031 H   0  0  0  0  0  0  0  0  0  0  0  0
    3.1442   -6.4421    1.2395 H   0  0  0  0  0  0  0  0  0  0  0  0
    2.5164   -5.1023    0.2612 H   0  0  0  0  0  0  0  0  0  0  0  0
    5.8671   -4.5123    1.8585 H   0  0  0  0  0  0  0  0  0  0  0  0
    5.4138   -2.9228   -0.4114 H   0  0  0  0  0  0  0  0  0  0  0  0
    3.4807   -2.8020    0.9327 H   0  0  0  0  0  0  0  0  0  0  0  0
    5.4162   -2.4816    3.1887 H   0  0  0  0  0  0  0  0  0  0  0  0
    4.9422   -0.1759    3.0832 H   0  0  0  0  0  0  0  0  0  0  0  0
    5.4656    0.5226    0.9511 H   0  0  0  0  0  0  0  0  0  0  0  0
    4.8547   -0.9358    0.2065 H   0  0  0  0  0  0  0  0  0  0  0  0
    6.2870   -0.9842    1.2665 H   0  0  0  0  0  0  0  0  0  0  0  0
    5.0889   -3.7669    4.9775 H   0  0  0  0  0  0  0  0  0  0  0  0
    4.2285   -0.7108    4.7594 H   0  0  0  0  0  0  0  0  0  0  0  0
    2.8481   -1.4984    7.1348 H   0  0  0  0  0  0  0  0  0  0  0  0
    4.5668   -1.2949    6.8120 H   0  0  0  0  0  0  0  0  0  0  0  0
    2.7891    0.8216    7.4784 H   0  0  0  0  0  0  0  0  0  0  0  0
    4.3793    1.0553    6.7855 H   0  0  0  0  0  0  0  0  0  0  0  0
    3.6450    1.3455    4.6318 H   0  0  0  0  0  0  0  0  0  0  0  0
  1  2  1  0
  1 37  1  0
  1 38  1  0
  1 39  1  0
  2 10  1  0
  2  3  1  0
  2 40  1  1
  3  4  2  0
  3  5  1  0
  5  6  1  0
  5 41  1  0
  5 42  1  0
  6  7  1  0
  6  8  1  0
  6 43  1  6
  7 44  1  0
  8 36  1  0
  8  9  1  1
  8 10  1  0
  9 45  1  0
  9 46  1  0
  9 47  1  0
 10 11  1  0
 10 48  1  1
 11 12  1  0
 11 49  1  0
 11 50  1  0
 12 13  1  0
 14 12  1  1
 12 51  1  1
 13 52  1  0
 14 33  1  0
 14 36  1  0
 14 15  1  0
 15 28  1  0
 15 16  1  0
 15 53  1  6
 16 17  1  0
 16 54  1  0
 16 55  1  0
 17 30  1  0
 17 18  1  0
 17 56  1  1
 18 19  1  0
 19 24  1  0
 19 20  1  0
 19 57  1  1
 20 21  1  0
 20 58  1  0
 20 59  1  0
 21 22  1  0
 22 23  1  0
 22 24  1  0
 22 60  1  1
 23 61  1  0
 24 25  1  0
 24 62  1  6
 25 26  1  0
 25 30  1  0
 25 63  1  1
 26 27  1  0
 26 28  1  0
 26 64  1  1
 27 65  1  0
 27 66  1  0
 27 67  1  0
 28 29  2  0
 30 31  1  1
 30 33  1  0
 31 32  2  0
 31 68  1  0
 33 34  1  0
 33 69  1  6
 34 35  1  0
 34 70  1  0
 34 71  1  0
 35 36  1  0
 35 72  1  0
 35 73  1  0
 36 74  1  6
M  END
>  <i_m_ct_stereo_status>  (135) 
1

>  <s_m_source_file>  (135) 
/var/tmp/pbs.5076255.sched01/tmp06uo9b_r/40lj_pgbub.sdf

>  <i_m_source_file_index>  (135) 
16

>  <i_lp_mmshare_version>  (135) 
48012

>  <i_f3d_flags>  (135) 
0

>  <s_epik_input>  (135) 
W09IXVtDQEBIXTFbQ0gyXUMoPU8pW0NAQEhdKFtDSDNdKVtDQEBIXShbQ0gyXVtDQEhdMltPSF0pW0NAQF0xKFtDSDNdKVtDQEhdM1tDSDJdW0NIMl1bQ0BIXTRbQ0BAXShbQ0hdPU8pKFtDQEhdNVtDSDJdW0NASF02W0NAXTIzNClbQ0hdKFtDQEBIXShbQ0gzXSlDNj1PKVtDQEBIXTdbQ0BASF0oTzUpW0NIMl1PW0NASF03W09IXQ==

>  <s_epik_cmdline>  (135) 
J2VwaWtfcHl0aG9uJywgJy1waHQnLCAnMi4wJywgJy1waCcsICc3LjAnLCAnLXRuJywgJzgnLCAnLW1hJywgJzIwMCcsICctaW1hZScsICc8aW5maWxlLm1hZT4nLCAnLW9tYWUnLCAnPG91dGZpbGUubWFlPic=

>  <r_lp_tautomer_probability>  (135) 
1

>  <r_epik_Ionization_Penalty>  (135) 
7.06762e-07

>  <r_epik_Ionization_Penalty_Charging>  (135) 
0

>  <r_epik_Ionization_Penalty_Neutral>  (135) 
7.06762e-07

>  <r_epik_State_Penalty>  (135) 
-0

>  <r_epik_Charging_Adjusted_Penalty>  (135) 
0

>  <i_epik_Tot_Q>  (135) 
0

>  <i_epik_Tot_abs_Q>  (135) 
0

>  <s_epik_Chemistry_Notes>  (135) 
This compound contains an acetal/aminal-like group ( X-CH(R)-Y where X, Y are N, S, or O) that may be acid/base labile, releasing an aldehyde.

>  <s_lp_Force_Field>  (135) 
OPLS3e

>  <r_lp_Energy>  (135) 
91.0761

>  <b_lp_Chiralities_Consistent>  (135) 
1

>  <s_lp_Variant>  (135) 
42:0-1

>  <s_i_glide_gridfile>  (135) 
pfpi4k_grid

>  <i_i_glide_lignum>  (135) 
16

>  <i_i_glide_rotatable_bonds>  (135) 
4

>  <r_i_docking_score>  (135) 
-2.96617

>  <r_i_glide_ligand_efficiency>  (135) 
-0.0823937

>  <r_i_glide_ligand_efficiency_sa>  (135) 
-0.272058

>  <r_i_glide_ligand_efficiency_ln>  (135) 
-0.647139

>  <r_i_glide_gscore>  (135) 
-2.96617

>  <r_i_glide_lipo>  (135) 
-0.285949

>  <r_i_glide_hbond>  (135) 
-0.0578628

>  <r_i_glide_metal>  (135) 
-0

>  <r_i_glide_rewards>  (135) 
-0.558349

>  <r_i_glide_evdw>  (135) 
-28.1334

>  <r_i_glide_ecoul>  (135) 
-4.12352

>  <r_i_glide_erotb>  (135) 
0

>  <r_i_glide_esite>  (135) 
-0.0388126

>  <r_i_glide_emodel>  (135) 
-43.1232

>  <r_i_glide_energy>  (135) 
-32.2569

>  <r_i_glide_einternal>  (135) 
0.561976

>  <r_i_glide_intrahb_reward>  (135) 
-0.5

>  <i_i_glide_confnum>  (135) 
1

>  <i_i_glide_posenum>  (135) 
35

>  <r_i_glide_eff_state_penalty>  (135) 
0

>  <ligand_id>  (135) 
42

>  <original_smiles>  (135) 
CC1C(=O)CC(O)C2(C)C1CC(O)C13C4CC5OC6COC(O)C6C(C(C)C4=O)C5(C=O)C1CCC23

>  <smiles>  (135) 
[H]OC1([H])OC([H])([H])C2([H])OC3([H])C([H])([H])C4([H])C(=O)C([H])(C([H])([H])[H])C([H])(C12[H])C3(C([H])=O)C1([H])C([H])([H])C([H])([H])C2([H])C3(C([H])([H])[H])C([H])(O[H])C([H])([H])C(=O)C([H])(C([H])([H])[H])C3([H])C([H])([H])C([H])(O[H])C412

$$$$
42:0:1
     RDKit          3D

 74 80  0  0  1  0  0  0  0  0999 V2000
   -2.3953    2.6125    7.0248 C   0  0  0  0  0  0  0  0  0  0  0  0
   -1.2321    3.0028    6.0893 C   0  0  2  0  0  0  0  0  0  0  0  0
   -1.6877    3.3306    4.6658 C   0  0  0  0  0  0  0  0  0  0  0  0
   -2.8639    3.2757    4.3140 O   0  0  0  0  0  0  0  0  0  0  0  0
   -0.5915    3.7748    3.7087 C   0  0  0  0  0  0  0  0  0  0  0  0
    0.6022    2.8035    3.7326 C   0  0  1  0  0  0  0  0  0  0  0  0
    1.5911    3.3642    2.8840 O   0  0  0  0  0  0  0  0  0  0  0  0
    1.1395    2.4556    5.1742 C   0  0  1  0  0  0  0  0  0  0  0  0
    1.7567    3.7426    5.7940 C   0  0  0  0  0  0  0  0  0  0  0  0
   -0.0584    1.9841    6.0683 C   0  0  2  0  0  0  0  0  0  0  0  0
   -0.4972    0.5526    5.6879 C   0  0  0  0  0  0  0  0  0  0  0  0
    0.6716   -0.4317    5.8292 C   0  0  1  0  0  0  0  0  0  0  0  0
    0.1197   -1.7282    5.8740 O   0  0  0  0  0  0  0  0  0  0  0  0
    1.8417   -0.1372    4.7919 C   0  0  2  0  0  0  0  0  0  0  0  0
    1.4651   -0.5533    3.3292 C   0  0  2  0  0  0  0  0  0  0  0  0
    1.2389   -2.0790    3.2046 C   0  0  0  0  0  0  0  0  0  0  0  0
    2.2434   -2.9445    4.0077 C   0  0  1  0  0  0  0  0  0  0  0  0
    2.3635   -4.1559    3.2428 O   0  0  0  0  0  0  0  0  0  0  0  0
    3.6355   -4.3783    2.6653 C   0  0  1  0  0  0  0  0  0  0  0  0
    3.7406   -5.4116    1.5504 C   0  0  0  0  0  0  0  0  0  0  0  0
    4.8916   -4.9807    0.8189 O   0  0  0  0  0  0  0  0  0  0  0  0
    5.3364   -3.7351    1.2863 C   0  0  1  0  0  0  0  0  0  0  0  0
    5.8477   -2.9436    0.2412 O   0  0  0  0  0  0  0  0  0  0  0  0
    4.0985   -3.1191    1.9656 C   0  0  2  0  0  0  0  0  0  0  0  0
    4.3189   -1.9101    2.9476 C   0  0  1  0  0  0  0  0  0  0  0  0
    3.9552   -0.5242    2.2673 C   0  0  1  0  0  0  0  0  0  0  0  0
    4.6493   -0.2719    0.9168 C   0  0  0  0  0  0  0  0  0  0  0  0
    2.4564   -0.1191    2.2226 C   0  0  0  0  0  0  0  0  0  0  0  0
    2.0408    0.5741    1.3005 O   0  0  0  0  0  0  0  0  0  0  0  0
    3.5641   -2.1538    4.3400 C   0  0  2  0  0  0  0  0  0  0  0  0
    4.4627   -2.9513    5.3115 C   0  0  0  0  0  0  0  0  0  0  0  0
    3.9974   -3.5561    6.2710 O   0  0  0  0  0  0  0  0  0  0  0  0
    3.2185   -0.7967    5.0769 C   0  0  2  0  0  0  0  0  0  0  0  0
    3.5870   -0.3399    6.4868 C   0  0  0  0  0  0  0  0  0  0  0  0
    3.1046    1.1439    6.4425 C   0  0  0  0  0  0  0  0  0  0  0  0
    2.2577    1.3397    5.1256 C   0  0  2  0  0  0  0  0  0  0  0  0
   -3.0792    3.4493    7.1611 H   0  0  0  0  0  0  0  0  0  0  0  0
   -2.0304    2.3369    8.0140 H   0  0  0  0  0  0  0  0  0  0  0  0
   -2.9814    1.7795    6.6390 H   0  0  0  0  0  0  0  0  0  0  0  0
   -0.8397    3.9356    6.4918 H   0  0  0  0  0  0  0  0  0  0  0  0
   -1.0053    3.8333    2.7030 H   0  0  0  0  0  0  0  0  0  0  0  0
   -0.2767    4.7827    3.9775 H   0  0  0  0  0  0  0  0  0  0  0  0
    0.2587    1.9008    3.2411 H   0  0  0  0  0  0  0  0  0  0  0  0
    1.1757    3.6171    2.0579 H   0  0  0  0  0  0  0  0  0  0  0  0
    1.9907    3.6196    6.8521 H   0  0  0  0  0  0  0  0  0  0  0  0
    1.0874    4.5998    5.7280 H   0  0  0  0  0  0  0  0  0  0  0  0
    2.6785    4.0307    5.2864 H   0  0  0  0  0  0  0  0  0  0  0  0
    0.2980    1.9340    7.0987 H   0  0  0  0  0  0  0  0  0  0  0  0
   -1.2909    0.2366    6.3624 H   0  0  0  0  0  0  0  0  0  0  0  0
   -0.9192    0.5102    4.6848 H   0  0  0  0  0  0  0  0  0  0  0  0
    1.0205   -0.2974    6.8497 H   0  0  0  0  0  0  0  0  0  0  0  0
   -0.0523   -2.0068    4.9894 H   0  0  0  0  0  0  0  0  0  0  0  0
    0.5179   -0.0962    3.0581 H   0  0  0  0  0  0  0  0  0  0  0  0
    0.2141   -2.3547    3.4559 H   0  0  0  0  0  0  0  0  0  0  0  0
    1.2998   -2.3364    2.1457 H   0  0  0  0  0  0  0  0  0  0  0  0
    1.7888   -3.2557    4.9474 H   0  0  0  0  0  0  0  0  0  0  0  0
    4.3308   -4.6944    3.4395 H   0  0  0  0  0  0  0  0  0  0  0  0
    3.8703   -6.4247    1.9317 H   0  0  0  0  0  0  0  0  0  0  0  0
    2.8661   -5.3895    0.9001 H   0  0  0  0  0  0  0  0  0  0  0  0
    6.1475   -3.9157    1.9953 H   0  0  0  0  0  0  0  0  0  0  0  0
    5.1354   -2.7479   -0.3484 H   0  0  0  0  0  0  0  0  0  0  0  0
    3.3687   -2.8654    1.1909 H   0  0  0  0  0  0  0  0  0  0  0  0
    5.3902   -1.8589    3.1474 H   0  0  0  0  0  0  0  0  0  0  0  0
    4.4114    0.2646    2.8547 H   0  0  0  0  0  0  0  0  0  0  0  0
    4.5553    0.7755    0.6330 H   0  0  0  0  0  0  0  0  0  0  0  0
    4.2144   -0.8599    0.1077 H   0  0  0  0  0  0  0  0  0  0  0  0
    5.7188   -0.4791    0.9812 H   0  0  0  0  0  0  0  0  0  0  0  0
    5.5314   -2.9411    5.0848 H   0  0  0  0  0  0  0  0  0  0  0  0
    4.0000   -0.1841    4.6529 H   0  0  0  0  0  0  0  0  0  0  0  0
    3.0662   -0.9200    7.2511 H   0  0  0  0  0  0  0  0  0  0  0  0
    4.6561   -0.4100    6.6987 H   0  0  0  0  0  0  0  0  0  0  0  0
    2.5317    1.3630    7.3452 H   0  0  0  0  0  0  0  0  0  0  0  0
    3.9562    1.8254    6.4420 H   0  0  0  0  0  0  0  0  0  0  0  0
    2.9663    1.6778    4.3664 H   0  0  0  0  0  0  0  0  0  0  0  0
  1  2  1  0
  1 37  1  0
  1 38  1  0
  1 39  1  0
  2 10  1  0
  2  3  1  0
  2 40  1  1
  3  4  2  0
  3  5  1  0
  5  6  1  0
  5 41  1  0
  5 42  1  0
  6  7  1  0
  6  8  1  0
  6 43  1  6
  7 44  1  0
  8 36  1  0
  8  9  1  1
  8 10  1  0
  9 45  1  0
  9 46  1  0
  9 47  1  0
 10 11  1  0
 10 48  1  1
 11 12  1  0
 11 49  1  0
 11 50  1  0
 12 13  1  0
 14 12  1  1
 12 51  1  1
 13 52  1  0
 14 33  1  0
 14 36  1  0
 14 15  1  0
 15 28  1  0
 15 16  1  0
 15 53  1  6
 16 17  1  0
 16 54  1  0
 16 55  1  0
 17 30  1  0
 17 18  1  0
 17 56  1  1
 18 19  1  0
 19 24  1  0
 19 20  1  0
 19 57  1  1
 20 21  1  0
 20 58  1  0
 20 59  1  0
 21 22  1  0
 22 23  1  0
 22 24  1  0
 22 60  1  1
 23 61  1  0
 24 25  1  0
 24 62  1  6
 25 26  1  0
 25 30  1  0
 25 63  1  1
 26 27  1  0
 26 28  1  0
 26 64  1  1
 27 65  1  0
 27 66  1  0
 27 67  1  0
 28 29  2  0
 30 31  1  1
 30 33  1  0
 31 32  2  0
 31 68  1  0
 33 34  1  0
 33 69  1  6
 34 35  1  0
 34 70  1  0
 34 71  1  0
 35 36  1  0
 35 72  1  0
 35 73  1  0
 36 74  1  6
M  END
>  <i_m_ct_stereo_status>  (136) 
1

>  <s_m_source_file>  (136) 
/var/tmp/pbs.5076255.sched01/tmp06uo9b_r/40lj_pgbub.sdf

>  <i_m_source_file_index>  (136) 
16

>  <i_lp_mmshare_version>  (136) 
48012

>  <i_f3d_flags>  (136) 
0

>  <s_epik_input>  (136) 
W09IXVtDQEBIXTFbQ0gyXUMoPU8pW0NAQEhdKFtDSDNdKVtDQEBIXShbQ0gyXVtDQEhdMltPSF0pW0NAQF0xKFtDSDNdKVtDQEhdM1tDSDJdW0NIMl1bQ0BIXTRbQ0BAXShbQ0hdPU8pKFtDQEhdNVtDSDJdW0NASF02W0NAXTIzNClbQ0hdKFtDQEBIXShbQ0gzXSlDNj1PKVtDQEBIXTdbQ0BASF0oTzUpW0NIMl1PW0NASF03W09IXQ==

>  <s_epik_cmdline>  (136) 
J2VwaWtfcHl0aG9uJywgJy1waHQnLCAnMi4wJywgJy1waCcsICc3LjAnLCAnLXRuJywgJzgnLCAnLW1hJywgJzIwMCcsICctaW1hZScsICc8aW5maWxlLm1hZT4nLCAnLW9tYWUnLCAnPG91dGZpbGUubWFlPic=

>  <r_lp_tautomer_probability>  (136) 
1

>  <r_epik_Ionization_Penalty>  (136) 
7.06762e-07

>  <r_epik_Ionization_Penalty_Charging>  (136) 
0

>  <r_epik_Ionization_Penalty_Neutral>  (136) 
7.06762e-07

>  <r_epik_State_Penalty>  (136) 
-0

>  <r_epik_Charging_Adjusted_Penalty>  (136) 
0

>  <i_epik_Tot_Q>  (136) 
0

>  <i_epik_Tot_abs_Q>  (136) 
0

>  <s_epik_Chemistry_Notes>  (136) 
This compound contains an acetal/aminal-like group ( X-CH(R)-Y where X, Y are N, S, or O) that may be acid/base labile, releasing an aldehyde.

>  <s_lp_Force_Field>  (136) 
OPLS3e

>  <r_lp_Energy>  (136) 
91.0761

>  <b_lp_Chiralities_Consistent>  (136) 
1

>  <s_lp_Variant>  (136) 
42:0-1

>  <s_i_glide_gridfile>  (136) 
pfpi4k_grid

>  <i_i_glide_lignum>  (136) 
16

>  <i_i_glide_rotatable_bonds>  (136) 
4

>  <r_i_docking_score>  (136) 
-2.67122

>  <r_i_glide_ligand_efficiency>  (136) 
-0.0742005

>  <r_i_glide_ligand_efficiency_sa>  (136) 
-0.245005

>  <r_i_glide_ligand_efficiency_ln>  (136) 
-0.582788

>  <r_i_glide_gscore>  (136) 
-2.67122

>  <r_i_glide_lipo>  (136) 
-0.379376

>  <r_i_glide_hbond>  (136) 
0

>  <r_i_glide_metal>  (136) 
-0

>  <r_i_glide_rewards>  (136) 
-0.0754473

>  <r_i_glide_evdw>  (136) 
-29.6242

>  <r_i_glide_ecoul>  (136) 
-4.55651

>  <r_i_glide_erotb>  (136) 
0

>  <r_i_glide_esite>  (136) 
-0.0517077

>  <r_i_glide_emodel>  (136) 
-39.464

>  <r_i_glide_energy>  (136) 
-34.1808

>  <r_i_glide_einternal>  (136) 
0.59102

>  <r_i_glide_intrahb_reward>  (136) 
-0

>  <i_i_glide_confnum>  (136) 
1

>  <i_i_glide_posenum>  (136) 
25

>  <r_i_glide_eff_state_penalty>  (136) 
0

>  <ligand_id>  (136) 
42

>  <original_smiles>  (136) 
CC1C(=O)CC(O)C2(C)C1CC(O)C13C4CC5OC6COC(O)C6C(C(C)C4=O)C5(C=O)C1CCC23

>  <smiles>  (136) 
[H]OC1([H])OC([H])([H])C2([H])OC3([H])C([H])([H])C4([H])C(=O)C([H])(C([H])([H])[H])C([H])(C12[H])C3(C([H])=O)C1([H])C([H])([H])C([H])([H])C2([H])C3(C([H])([H])[H])C([H])(O[H])C([H])([H])C(=O)C([H])(C([H])([H])[H])C3([H])C([H])([H])C([H])(O[H])C412

$$$$
42:0:2
     RDKit          3D

 74 80  0  0  1  0  0  0  0  0999 V2000
   -1.9617    2.5677    6.9270 C   0  0  0  0  0  0  0  0  0  0  0  0
   -0.6882    2.9003    6.1253 C   0  0  2  0  0  0  0  0  0  0  0  0
   -0.9905    3.4467    4.7269 C   0  0  0  0  0  0  0  0  0  0  0  0
   -2.1370    3.6203    4.3111 O   0  0  0  0  0  0  0  0  0  0  0  0
    0.2294    3.8309    3.9031 C   0  0  0  0  0  0  0  0  0  0  0  0
    1.2844    2.7077    3.9032 C   0  0  1  0  0  0  0  0  0  0  0  0
    2.4071    3.2255    3.2226 O   0  0  0  0  0  0  0  0  0  0  0  0
    1.6650    2.1481    5.3215 C   0  0  1  0  0  0  0  0  0  0  0  0
    2.3855    3.2741    6.1180 C   0  0  0  0  0  0  0  0  0  0  0  0
    0.3512    1.7440    6.0670 C   0  0  2  0  0  0  0  0  0  0  0  0
   -0.2241    0.4284    5.4934 C   0  0  0  0  0  0  0  0  0  0  0  0
    0.8059   -0.7054    5.5967 C   0  0  1  0  0  0  0  0  0  0  0  0
    0.1080   -1.9214    5.4555 O   0  0  0  0  0  0  0  0  0  0  0  0
    2.0855   -0.4539    4.6828 C   0  0  2  0  0  0  0  0  0  0  0  0
    1.7832   -0.6597    3.1605 C   0  0  2  0  0  0  0  0  0  0  0  0
    1.3900   -2.1222    2.8499 C   0  0  0  0  0  0  0  0  0  0  0  0
    2.2075   -3.1924    3.6134 C   0  0  1  0  0  0  0  0  0  0  0  0
    2.2367   -4.3275    2.7295 O   0  0  0  0  0  0  0  0  0  0  0  0
    3.5140   -4.6451    2.2062 C   0  0  1  0  0  0  0  0  0  0  0  0
    3.5796   -5.5612    0.9888 C   0  0  0  0  0  0  0  0  0  0  0  0
    4.8324   -5.2127    0.3957 O   0  0  0  0  0  0  0  0  0  0  0  0
    5.3835   -4.0887    1.0274 C   0  0  1  0  0  0  0  0  0  0  0  0
    6.0691   -3.2690    0.1134 O   0  0  0  0  0  0  0  0  0  0  0  0
    4.1792   -3.3902    1.6870 C   0  0  2  0  0  0  0  0  0  0  0  0
    4.4663   -2.3289    2.8127 C   0  0  1  0  0  0  0  0  0  0  0  0
    4.3314   -0.8434    2.2759 C   0  0  1  0  0  0  0  0  0  0  0  0
    5.1608   -0.5450    1.0142 C   0  0  0  0  0  0  0  0  0  0  0  0
    2.9009   -0.2501    2.1728 C   0  0  0  0  0  0  0  0  0  0  0  0
    2.6368    0.5610    1.2899 O   0  0  0  0  0  0  0  0  0  0  0  0
    3.5779   -2.6201    4.1181 C   0  0  2  0  0  0  0  0  0  0  0  0
    4.2702   -3.6356    5.0546 C   0  0  0  0  0  0  0  0  0  0  0  0
    5.4375   -3.4876    5.4012 O   0  0  0  0  0  0  0  0  0  0  0  0
    3.3459   -1.3111    4.9803 C   0  0  2  0  0  0  0  0  0  0  0  0
    3.6417   -1.0592    6.4581 C   0  0  0  0  0  0  0  0  0  0  0  0
    3.3487    0.4700    6.5523 C   0  0  0  0  0  0  0  0  0  0  0  0
    2.6446    0.9118    5.2133 C   0  0  2  0  0  0  0  0  0  0  0  0
   -2.5478    3.4680    7.1109 H   0  0  0  0  0  0  0  0  0  0  0  0
   -1.7090    2.1436    7.8975 H   0  0  0  0  0  0  0  0  0  0  0  0
   -2.6034    1.8619    6.4031 H   0  0  0  0  0  0  0  0  0  0  0  0
   -0.2180    3.7256    6.6555 H   0  0  0  0  0  0  0  0  0  0  0  0
   -0.0859    4.0520    2.8836 H   0  0  0  0  0  0  0  0  0  0  0  0
    0.6460    4.7537    4.3063 H   0  0  0  0  0  0  0  0  0  0  0  0
    0.8824    1.9166    3.2813 H   0  0  0  0  0  0  0  0  0  0  0  0
    2.1264    3.4806    2.3545 H   0  0  0  0  0  0  0  0  0  0  0  0
    2.5188    3.0121    7.1673 H   0  0  0  0  0  0  0  0  0  0  0  0
    1.8355    4.2141    6.1027 H   0  0  0  0  0  0  0  0  0  0  0  0
    3.3745    3.4899    5.7077 H   0  0  0  0  0  0  0  0  0  0  0  0
    0.6165    1.5427    7.1054 H   0  0  0  0  0  0  0  0  0  0  0  0
   -1.0999    0.1489    6.0739 H   0  0  0  0  0  0  0  0  0  0  0  0
   -0.5654    0.5485    4.4652 H   0  0  0  0  0  0  0  0  0  0  0  0
    1.0835   -0.7233    6.6468 H   0  0  0  0  0  0  0  0  0  0  0  0
   -0.0741   -2.0519    4.5389 H   0  0  0  0  0  0  0  0  0  0  0  0
    0.9206   -0.0639    2.8790 H   0  0  0  0  0  0  0  0  0  0  0  0
    0.3234   -2.2847    3.0093 H   0  0  0  0  0  0  0  0  0  0  0  0
    1.4932   -2.2691    1.7714 H   0  0  0  0  0  0  0  0  0  0  0  0
    1.6521   -3.5366    4.4843 H   0  0  0  0  0  0  0  0  0  0  0  0
    4.1066   -5.1286    2.9795 H   0  0  0  0  0  0  0  0  0  0  0  0
    3.5510   -6.6177    1.2587 H   0  0  0  0  0  0  0  0  0  0  0  0
    2.7712   -5.3557    0.2872 H   0  0  0  0  0  0  0  0  0  0  0  0
    6.1078   -4.4430    1.7642 H   0  0  0  0  0  0  0  0  0  0  0  0
    5.4355   -2.9265   -0.5003 H   0  0  0  0  0  0  0  0  0  0  0  0
    3.5500   -2.9658    0.8989 H   0  0  0  0  0  0  0  0  0  0  0  0
    5.5169   -2.4397    3.0813 H   0  0  0  0  0  0  0  0  0  0  0  0
    4.8316   -0.1861    2.9787 H   0  0  0  0  0  0  0  0  0  0  0  0
    5.2258    0.5319    0.8513 H   0  0  0  0  0  0  0  0  0  0  0  0
    4.7230   -0.9779    0.1155 H   0  0  0  0  0  0  0  0  0  0  0  0
    6.1868   -0.8977    1.1273 H   0  0  0  0  0  0  0  0  0  0  0  0
    3.6670   -4.4930    5.3649 H   0  0  0  0  0  0  0  0  0  0  0  0
    4.2288   -0.7631    4.6840 H   0  0  0  0  0  0  0  0  0  0  0  0
    2.9928   -1.6458    7.1090 H   0  0  0  0  0  0  0  0  0  0  0  0
    4.6740   -1.2809    6.7381 H   0  0  0  0  0  0  0  0  0  0  0  0
    2.7357    0.6645    7.4328 H   0  0  0  0  0  0  0  0  0  0  0  0
    4.2768    1.0293    6.6870 H   0  0  0  0  0  0  0  0  0  0  0  0
    3.4485    1.2336    4.5475 H   0  0  0  0  0  0  0  0  0  0  0  0
  1  2  1  0
  1 37  1  0
  1 38  1  0
  1 39  1  0
  2 10  1  0
  2  3  1  0
  2 40  1  1
  3  4  2  0
  3  5  1  0
  5  6  1  0
  5 41  1  0
  5 42  1  0
  6  7  1  0
  6  8  1  0
  6 43  1  6
  7 44  1  0
  8 36  1  0
  8  9  1  1
  8 10  1  0
  9 45  1  0
  9 46  1  0
  9 47  1  0
 10 11  1  0
 10 48  1  1
 11 12  1  0
 11 49  1  0
 11 50  1  0
 12 13  1  0
 14 12  1  1
 12 51  1  1
 13 52  1  0
 14 33  1  0
 14 36  1  0
 14 15  1  0
 15 28  1  0
 15 16  1  0
 15 53  1  6
 16 17  1  0
 16 54  1  0
 16 55  1  0
 17 30  1  0
 17 18  1  0
 17 56  1  1
 18 19  1  0
 19 24  1  0
 19 20  1  0
 19 57  1  1
 20 21  1  0
 20 58  1  0
 20 59  1  0
 21 22  1  0
 22 23  1  0
 22 24  1  0
 22 60  1  1
 23 61  1  0
 24 25  1  0
 24 62  1  6
 25 26  1  0
 25 30  1  0
 25 63  1  1
 26 27  1  0
 26 28  1  0
 26 64  1  1
 27 65  1  0
 27 66  1  0
 27 67  1  0
 28 29  2  0
 30 31  1  1
 30 33  1  0
 31 32  2  0
 31 68  1  0
 33 34  1  0
 33 69  1  6
 34 35  1  0
 34 70  1  0
 34 71  1  0
 35 36  1  0
 35 72  1  0
 35 73  1  0
 36 74  1  6
M  END
>  <i_m_ct_stereo_status>  (137) 
1

>  <s_m_source_file>  (137) 
/var/tmp/pbs.5076255.sched01/tmp06uo9b_r/40lj_pgbub.sdf

>  <i_m_source_file_index>  (137) 
16

>  <i_lp_mmshare_version>  (137) 
48012

>  <i_f3d_flags>  (137) 
0

>  <s_epik_input>  (137) 
W09IXVtDQEBIXTFbQ0gyXUMoPU8pW0NAQEhdKFtDSDNdKVtDQEBIXShbQ0gyXVtDQEhdMltPSF0pW0NAQF0xKFtDSDNdKVtDQEhdM1tDSDJdW0NIMl1bQ0BIXTRbQ0BAXShbQ0hdPU8pKFtDQEhdNVtDSDJdW0NASF02W0NAXTIzNClbQ0hdKFtDQEBIXShbQ0gzXSlDNj1PKVtDQEBIXTdbQ0BASF0oTzUpW0NIMl1PW0NASF03W09IXQ==

>  <s_epik_cmdline>  (137) 
J2VwaWtfcHl0aG9uJywgJy1waHQnLCAnMi4wJywgJy1waCcsICc3LjAnLCAnLXRuJywgJzgnLCAnLW1hJywgJzIwMCcsICctaW1hZScsICc8aW5maWxlLm1hZT4nLCAnLW9tYWUnLCAnPG91dGZpbGUubWFlPic=

>  <r_lp_tautomer_probability>  (137) 
1

>  <r_epik_Ionization_Penalty>  (137) 
7.06762e-07

>  <r_epik_Ionization_Penalty_Charging>  (137) 
0

>  <r_epik_Ionization_Penalty_Neutral>  (137) 
7.06762e-07

>  <r_epik_State_Penalty>  (137) 
-0

>  <r_epik_Charging_Adjusted_Penalty>  (137) 
0

>  <i_epik_Tot_Q>  (137) 
0

>  <i_epik_Tot_abs_Q>  (137) 
0

>  <s_epik_Chemistry_Notes>  (137) 
This compound contains an acetal/aminal-like group ( X-CH(R)-Y where X, Y are N, S, or O) that may be acid/base labile, releasing an aldehyde.

>  <s_lp_Force_Field>  (137) 
OPLS3e

>  <r_lp_Energy>  (137) 
91.0761

>  <b_lp_Chiralities_Consistent>  (137) 
1

>  <s_lp_Variant>  (137) 
42:0-1

>  <s_i_glide_gridfile>  (137) 
pfpi4k_grid

>  <i_i_glide_lignum>  (137) 
16

>  <i_i_glide_rotatable_bonds>  (137) 
4

>  <r_i_docking_score>  (137) 
-2.44062

>  <r_i_glide_ligand_efficiency>  (137) 
-0.0677949

>  <r_i_glide_ligand_efficiency_sa>  (137) 
-0.223854

>  <r_i_glide_ligand_efficiency_ln>  (137) 
-0.532477

>  <r_i_glide_gscore>  (137) 
-2.44062

>  <r_i_glide_lipo>  (137) 
-0.307089

>  <r_i_glide_hbond>  (137) 
0

>  <r_i_glide_metal>  (137) 
-0

>  <r_i_glide_rewards>  (137) 
-0.0740116

>  <r_i_glide_evdw>  (137) 
-30.4111

>  <r_i_glide_ecoul>  (137) 
-3.3096

>  <r_i_glide_erotb>  (137) 
0

>  <r_i_glide_esite>  (137) 
-0.0425219

>  <r_i_glide_emodel>  (137) 
-38.5063

>  <r_i_glide_energy>  (137) 
-33.7207

>  <r_i_glide_einternal>  (137) 
0.595797

>  <r_i_glide_intrahb_reward>  (137) 
-0

>  <i_i_glide_confnum>  (137) 
2

>  <i_i_glide_posenum>  (137) 
21

>  <r_i_glide_eff_state_penalty>  (137) 
0

>  <ligand_id>  (137) 
42

>  <original_smiles>  (137) 
CC1C(=O)CC(O)C2(C)C1CC(O)C13C4CC5OC6COC(O)C6C(C(C)C4=O)C5(C=O)C1CCC23

>  <smiles>  (137) 
[H]OC1([H])OC([H])([H])C2([H])OC3([H])C([H])([H])C4([H])C(=O)C([H])(C([H])([H])[H])C([H])(C12[H])C3(C([H])=O)C1([H])C([H])([H])C([H])([H])C2([H])C3(C([H])([H])[H])C([H])(O[H])C([H])([H])C(=O)C([H])(C([H])([H])[H])C3([H])C([H])([H])C([H])(O[H])C412

$$$$
43:0:0
     RDKit          3D

 63 68  0  0  1  0  0  0  0  0999 V2000
   -0.3901    4.7499    3.6774 C   0  0  0  0  0  0  0  0  0  0  0  0
   -0.6313    3.2886    3.2784 C   0  0  2  0  0  0  0  0  0  0  0  0
   -1.4516    2.5658    4.3259 C   0  0  0  0  0  0  0  0  0  0  0  0
   -2.5495    2.9407    4.7211 O   0  0  0  0  0  0  0  0  0  0  0  0
   -0.7332    1.3320    4.8237 C   0  0  0  0  0  0  0  0  0  0  0  0
    0.7555    1.5304    4.4506 C   0  0  2  0  0  0  0  0  0  0  0  0
    1.3272    2.2986    5.5019 O   0  0  0  0  0  0  0  0  0  0  0  0
    0.6599    2.4439    3.1925 C   0  0  1  0  0  0  0  0  0  0  0  0
    0.7091    1.4518    2.0128 C   0  0  0  0  0  0  0  0  0  0  0  0
    1.0161    0.0639    2.5968 C   0  0  1  0  0  0  0  0  0  0  0  0
    1.8184   -0.6357    1.6814 O   0  0  0  0  0  0  0  0  0  0  0  0
    1.6415    0.2715    4.0136 C   0  0  1  0  0  0  0  0  0  0  0  0
    3.1007    0.8018    3.8500 C   0  0  0  0  0  0  0  0  0  0  0  0
    3.7660    0.9489    5.1059 O   0  0  0  0  0  0  0  0  0  0  0  0
    4.0071   -0.2796    5.7776 C   0  0  2  0  0  0  0  0  0  0  0  0
    4.8728   -1.1829    4.8586 C   0  0  0  0  0  0  0  0  0  0  0  0
    4.0455   -2.2863    4.1605 C   0  0  2  0  0  0  0  0  0  0  0  0
    4.1918   -2.3121    2.7474 O   0  0  0  0  0  0  0  0  0  0  0  0
    3.5760   -3.4132    2.1390 C   0  0  0  0  0  0  0  0  0  0  0  0
    3.6531   -3.1965    0.6211 C   0  0  0  0  0  0  0  0  0  0  0  0
    4.3111   -4.7353    2.4856 C   0  0  0  0  0  0  0  0  0  0  0  0
    2.2251   -3.5035    2.4733 O   0  0  0  0  0  0  0  0  0  0  0  0
    1.9284   -3.5123    3.8668 C   0  0  0  0  0  0  0  0  0  0  0  0
    2.5704   -2.3345    4.6254 C   0  0  1  0  0  0  0  0  0  0  0  0
    2.6482   -2.4536    6.1596 C   0  0  0  0  0  0  0  0  0  0  0  0
    2.6482   -0.9188    6.1691 C   0  0  1  0  0  0  0  0  0  0  0  0
    2.1481   -0.3062    7.4790 C   0  0  0  0  0  0  0  0  0  0  0  0
    1.6701   -1.0421    4.9505 C   0  0  1  0  0  0  0  0  0  0  0  0
    0.2034   -1.4268    5.3153 C   0  0  0  0  0  0  0  0  0  0  0  0
   -1.3305    5.2866    3.7322 H   0  0  0  0  0  0  0  0  0  0  0  0
    0.2274    5.2687    2.9427 H   0  0  0  0  0  0  0  0  0  0  0  0
    0.0998    4.8303    4.6422 H   0  0  0  0  0  0  0  0  0  0  0  0
   -1.1721    3.2631    2.3415 H   0  0  0  0  0  0  0  0  0  0  0  0
   -0.8894    1.2143    5.8921 H   0  0  0  0  0  0  0  0  0  0  0  0
   -1.1840    0.4939    4.3003 H   0  0  0  0  0  0  0  0  0  0  0  0
    2.1976    2.5431    5.2345 H   0  0  0  0  0  0  0  0  0  0  0  0
    1.5155    3.1215    3.1097 H   0  0  0  0  0  0  0  0  0  0  0  0
   -0.2227    1.4372    1.4434 H   0  0  0  0  0  0  0  0  0  0  0  0
    1.4936    1.7715    1.3232 H   0  0  0  0  0  0  0  0  0  0  0  0
    0.0757   -0.4644    2.6667 H   0  0  0  0  0  0  0  0  0  0  0  0
    1.4002   -0.6495    0.8149 H   0  0  0  0  0  0  0  0  0  0  0  0
    3.6726    0.1967    3.1509 H   0  0  0  0  0  0  0  0  0  0  0  0
    3.1449    1.7880    3.3994 H   0  0  0  0  0  0  0  0  0  0  0  0
    4.6020   -0.0474    6.6631 H   0  0  0  0  0  0  0  0  0  0  0  0
    5.4481   -0.5939    4.1421 H   0  0  0  0  0  0  0  0  0  0  0  0
    5.6208   -1.6764    5.4833 H   0  0  0  0  0  0  0  0  0  0  0  0
    4.5343   -3.1901    4.5229 H   0  0  0  0  0  0  0  0  0  0  0  0
    3.1701   -2.2640    0.3363 H   0  0  0  0  0  0  0  0  0  0  0  0
    3.1561   -4.0167    0.1011 H   0  0  0  0  0  0  0  0  0  0  0  0
    4.6957   -3.1605    0.3076 H   0  0  0  0  0  0  0  0  0  0  0  0
    4.1687   -5.0454    3.5202 H   0  0  0  0  0  0  0  0  0  0  0  0
    5.3790   -4.6098    2.3125 H   0  0  0  0  0  0  0  0  0  0  0  0
    3.9467   -5.5422    1.8487 H   0  0  0  0  0  0  0  0  0  0  0  0
    0.8417   -3.4891    3.9304 H   0  0  0  0  0  0  0  0  0  0  0  0
    2.2192   -4.4645    4.3135 H   0  0  0  0  0  0  0  0  0  0  0  0
    1.8210   -2.9445    6.6657 H   0  0  0  0  0  0  0  0  0  0  0  0
    3.5700   -2.8910    6.5496 H   0  0  0  0  0  0  0  0  0  0  0  0
    1.2232   -0.7804    7.8042 H   0  0  0  0  0  0  0  0  0  0  0  0
    1.9616    0.7590    7.3819 H   0  0  0  0  0  0  0  0  0  0  0  0
    2.8644   -0.4488    8.2895 H   0  0  0  0  0  0  0  0  0  0  0  0
    0.0852   -2.4163    5.7519 H   0  0  0  0  0  0  0  0  0  0  0  0
   -0.4491   -1.4710    4.4481 H   0  0  0  0  0  0  0  0  0  0  0  0
   -0.2208   -0.7660    6.0677 H   0  0  0  0  0  0  0  0  0  0  0  0
  1  2  1  0
  1 30  1  0
  1 31  1  0
  1 32  1  0
  2  8  1  0
  2  3  1  0
  2 33  1  6
  3  4  2  0
  3  5  1  0
  5  6  1  0
  5 34  1  0
  5 35  1  0
  6 12  1  0
  6  7  1  1
  6  8  1  0
  7 36  1  0
  8  9  1  0
  8 37  1  6
  9 10  1  0
  9 38  1  0
  9 39  1  0
 10 11  1  0
 10 12  1  0
 10 40  1  1
 11 41  1  0
 12 28  1  0
 12 13  1  6
 13 14  1  0
 13 42  1  0
 13 43  1  0
 14 15  1  0
 15 26  1  0
 15 16  1  0
 15 44  1  1
 16 17  1  0
 16 45  1  0
 16 46  1  0
 17 24  1  0
 17 18  1  0
 17 47  1  1
 18 19  1  0
 19 20  1  0
 19 21  1  0
 19 22  1  0
 20 48  1  0
 20 49  1  0
 20 50  1  0
 21 51  1  0
 21 52  1  0
 21 53  1  0
 22 23  1  0
 24 23  1  6
 23 54  1  0
 23 55  1  0
 24 28  1  0
 24 25  1  0
 25 26  1  0
 25 56  1  0
 25 57  1  0
 26 27  1  1
 26 28  1  0
 27 58  1  0
 27 59  1  0
 27 60  1  0
 28 29  1  1
 29 61  1  0
 29 62  1  0
 29 63  1  0
M  END
>  <i_m_ct_stereo_status>  (138) 
1

>  <s_m_source_file>  (138) 
/var/tmp/pbs.5076255.sched01/tmp06uo9b_r/40lj_pgbub.sdf

>  <i_m_source_file_index>  (138) 
17

>  <i_lp_mmshare_version>  (138) 
48012

>  <i_f3d_flags>  (138) 
0

>  <s_epik_input>  (138) 
Tz1DKFtDSDJdMSlbQ0BASF0oW0NIM10pW0NASF0oW0NIMl1bQ0BIXTJbT0hdKVtDQF0xKFtPSF0pW0NAQF0yM1tDQEBdNChbQ0gzXSlbQ0BdNTZbQ0BIXShbQ0gyXVtDQEBIXShPW0NIMl0zKVtDQEBdNChbQ0gyXTYpW0NIM10pT0MoW0NIM10pKFtDSDNdKU9bQ0gyXTU=

>  <s_epik_cmdline>  (138) 
J2VwaWtfcHl0aG9uJywgJy1waHQnLCAnMi4wJywgJy1waCcsICc3LjAnLCAnLXRuJywgJzgnLCAnLW1hJywgJzIwMCcsICctaW1hZScsICc8aW5maWxlLm1hZT4nLCAnLW9tYWUnLCAnPG91dGZpbGUubWFlPic=

>  <r_lp_tautomer_probability>  (138) 
1

>  <r_epik_Ionization_Penalty>  (138) 
3.63943e-07

>  <r_epik_Ionization_Penalty_Charging>  (138) 
0

>  <r_epik_Ionization_Penalty_Neutral>  (138) 
3.63943e-07

>  <r_epik_State_Penalty>  (138) 
-0

>  <r_epik_Charging_Adjusted_Penalty>  (138) 
0

>  <i_epik_Tot_Q>  (138) 
0

>  <i_epik_Tot_abs_Q>  (138) 
0

>  <s_lp_Force_Field>  (138) 
OPLS3e

>  <r_lp_Energy>  (138) 
75.2569

>  <b_lp_Chiralities_Consistent>  (138) 
1

>  <s_lp_Variant>  (138) 
43:0-1

>  <s_i_glide_gridfile>  (138) 
pfpi4k_grid

>  <i_i_glide_lignum>  (138) 
17

>  <i_i_glide_rotatable_bonds>  (138) 
2

>  <r_i_docking_score>  (138) 
-2.21312

>  <r_i_glide_ligand_efficiency>  (138) 
-0.0763144

>  <r_i_glide_ligand_efficiency_sa>  (138) 
-0.234462

>  <r_i_glide_ligand_efficiency_ln>  (138) 
-0.506748

>  <r_i_glide_gscore>  (138) 
-2.21312

>  <r_i_glide_lipo>  (138) 
-0.0456868

>  <r_i_glide_hbond>  (138) 
0

>  <r_i_glide_metal>  (138) 
-0

>  <r_i_glide_rewards>  (138) 
-0.6403

>  <r_i_glide_evdw>  (138) 
-18.1535

>  <r_i_glide_ecoul>  (138) 
-3.97202

>  <r_i_glide_erotb>  (138) 
0

>  <r_i_glide_esite>  (138) 
-0.023656

>  <r_i_glide_emodel>  (138) 
-25.4105

>  <r_i_glide_energy>  (138) 
-22.1255

>  <r_i_glide_einternal>  (138) 
0.478255

>  <r_i_glide_intrahb_reward>  (138) 
-0

>  <i_i_glide_confnum>  (138) 
1

>  <i_i_glide_posenum>  (138) 
7

>  <r_i_glide_eff_state_penalty>  (138) 
0

>  <ligand_id>  (138) 
43

>  <original_smiles>  (138) 
CC1C(=O)CC2(O)C1CC(O)C21COC2CC3OC(C)(C)OCC34CC2(C)C41C

>  <smiles>  (138) 
[H]OC1([H])C([H])([H])C2([H])C([H])(C([H])([H])[H])C(=O)C([H])([H])C2(O[H])C12C([H])([H])OC1([H])C([H])([H])C3([H])OC(C([H])([H])[H])(C([H])([H])[H])OC([H])([H])C34C([H])([H])C1(C([H])([H])[H])C42C([H])([H])[H]

$$$$
43:0:1
     RDKit          3D

 63 68  0  0  1  0  0  0  0  0999 V2000
   -0.4656    4.6320    3.6737 C   0  0  0  0  0  0  0  0  0  0  0  0
   -0.6858    3.1854    3.2015 C   0  0  2  0  0  0  0  0  0  0  0  0
   -1.7577    2.5111    4.0219 C   0  0  0  0  0  0  0  0  0  0  0  0
   -2.8946    2.9446    4.1799 O   0  0  0  0  0  0  0  0  0  0  0  0
   -1.2418    1.2313    4.6416 C   0  0  0  0  0  0  0  0  0  0  0  0
    0.3045    1.3508    4.6185 C   0  0  2  0  0  0  0  0  0  0  0  0
    0.6655    2.0683    5.7825 O   0  0  0  0  0  0  0  0  0  0  0  0
    0.5430    2.2723    3.3873 C   0  0  1  0  0  0  0  0  0  0  0  0
    0.8022    1.2860    2.2285 C   0  0  0  0  0  0  0  0  0  0  0  0
    0.8961   -0.1238    2.8479 C   0  0  1  0  0  0  0  0  0  0  0  0
    1.8309   -0.9026    2.1432 O   0  0  0  0  0  0  0  0  0  0  0  0
    1.1951    0.0492    4.3636 C   0  0  1  0  0  0  0  0  0  0  0  0
    2.6838    0.4954    4.5292 C   0  0  0  0  0  0  0  0  0  0  0  0
    3.0644    0.5907    5.9004 O   0  0  0  0  0  0  0  0  0  0  0  0
    3.0878   -0.6578    6.5780 C   0  0  2  0  0  0  0  0  0  0  0  0
    4.0845   -1.5987    5.8559 C   0  0  0  0  0  0  0  0  0  0  0  0
    3.3768   -2.6405    4.9654 C   0  0  2  0  0  0  0  0  0  0  0  0
    3.8286   -2.6574    3.6168 O   0  0  0  0  0  0  0  0  0  0  0  0
    3.3048   -3.7172    2.8603 C   0  0  0  0  0  0  0  0  0  0  0  0
    3.7283   -3.4898    1.4022 C   0  0  0  0  0  0  0  0  0  0  0  0
    3.8640   -5.0848    3.3348 C   0  0  0  0  0  0  0  0  0  0  0  0
    1.9059   -3.7067    2.8862 O   0  0  0  0  0  0  0  0  0  0  0  0
    1.3112   -3.7411    4.1798 C   0  0  0  0  0  0  0  0  0  0  0  0
    1.8314   -2.6155    5.0960 C   0  0  1  0  0  0  0  0  0  0  0  0
    1.5649   -2.7611    6.6073 C   0  0  0  0  0  0  0  0  0  0  0  0
    1.6422   -1.2269    6.6501 C   0  0  1  0  0  0  0  0  0  0  0  0
    0.9002   -0.5955    7.8283 C   0  0  0  0  0  0  0  0  0  0  0  0
    0.9484   -1.2788    5.2521 C   0  0  1  0  0  0  0  0  0  0  0  0
   -0.5814   -1.5848    5.2665 C   0  0  0  0  0  0  0  0  0  0  0  0
   -1.3658    5.2175    3.5238 H   0  0  0  0  0  0  0  0  0  0  0  0
    0.3260    5.1179    3.1091 H   0  0  0  0  0  0  0  0  0  0  0  0
   -0.2022    4.6778    4.7312 H   0  0  0  0  0  0  0  0  0  0  0  0
   -1.0143    3.1884    2.1608 H   0  0  0  0  0  0  0  0  0  0  0  0
   -1.6376    1.1113    5.6456 H   0  0  0  0  0  0  0  0  0  0  0  0
   -1.6107    0.4264    4.0129 H   0  0  0  0  0  0  0  0  0  0  0  0
    1.5886    2.2780    5.7163 H   0  0  0  0  0  0  0  0  0  0  0  0
    1.4280    2.8962    3.5050 H   0  0  0  0  0  0  0  0  0  0  0  0
    0.0212    1.3175    1.4664 H   0  0  0  0  0  0  0  0  0  0  0  0
    1.7357    1.5507    1.7247 H   0  0  0  0  0  0  0  0  0  0  0  0
   -0.0762   -0.5854    2.7002 H   0  0  0  0  0  0  0  0  0  0  0  0
    1.7625   -1.8047    2.4381 H   0  0  0  0  0  0  0  0  0  0  0  0
    3.3617   -0.1331    3.9602 H   0  0  0  0  0  0  0  0  0  0  0  0
    2.8769    1.4785    4.1163 H   0  0  0  0  0  0  0  0  0  0  0  0
    3.4816   -0.4678    7.5768 H   0  0  0  0  0  0  0  0  0  0  0  0
    4.8348   -1.0395    5.2958 H   0  0  0  0  0  0  0  0  0  0  0  0
    4.6481   -2.1412    6.6159 H   0  0  0  0  0  0  0  0  0  0  0  0
    3.7235   -3.5788    5.3992 H   0  0  0  0  0  0  0  0  0  0  0  0
    3.3764   -2.5327    1.0316 H   0  0  0  0  0  0  0  0  0  0  0  0
    3.3176   -4.2809    0.7734 H   0  0  0  0  0  0  0  0  0  0  0  0
    4.8163   -3.5182    1.3314 H   0  0  0  0  0  0  0  0  0  0  0  0
    3.4869   -5.3977    4.3028 H   0  0  0  0  0  0  0  0  0  0  0  0
    4.9491   -5.0220    3.3996 H   0  0  0  0  0  0  0  0  0  0  0  0
    3.6096   -5.8625    2.6145 H   0  0  0  0  0  0  0  0  0  0  0  0
    0.2384   -3.6676    4.0175 H   0  0  0  0  0  0  0  0  0  0  0  0
    1.4597   -4.7145    4.6426 H   0  0  0  0  0  0  0  0  0  0  0  0
    0.6207   -3.2048    6.9036 H   0  0  0  0  0  0  0  0  0  0  0  0
    2.3481   -3.2521    7.1796 H   0  0  0  0  0  0  0  0  0  0  0  0
   -0.0987   -1.0169    7.9311 H   0  0  0  0  0  0  0  0  0  0  0  0
    0.7997    0.4807    7.7162 H   0  0  0  0  0  0  0  0  0  0  0  0
    1.4138   -0.7850    8.7709 H   0  0  0  0  0  0  0  0  0  0  0  0
   -0.8451   -2.5719    5.6384 H   0  0  0  0  0  0  0  0  0  0  0  0
   -1.0217   -1.5810    4.2756 H   0  0  0  0  0  0  0  0  0  0  0  0
   -1.1249   -0.9087    5.9159 H   0  0  0  0  0  0  0  0  0  0  0  0
  1  2  1  0
  1 30  1  0
  1 31  1  0
  1 32  1  0
  2  8  1  0
  2  3  1  0
  2 33  1  6
  3  4  2  0
  3  5  1  0
  5  6  1  0
  5 34  1  0
  5 35  1  0
  6 12  1  0
  6  7  1  1
  6  8  1  0
  7 36  1  0
  8  9  1  0
  8 37  1  1
  9 10  1  0
  9 38  1  0
  9 39  1  0
 10 11  1  0
 10 12  1  0
 10 40  1  1
 11 41  1  0
 12 28  1  0
 12 13  1  6
 13 14  1  0
 13 42  1  0
 13 43  1  0
 14 15  1  0
 15 26  1  0
 15 16  1  0
 15 44  1  1
 16 17  1  0
 16 45  1  0
 16 46  1  0
 17 24  1  0
 17 18  1  0
 17 47  1  1
 18 19  1  0
 19 20  1  0
 19 21  1  0
 19 22  1  0
 20 48  1  0
 20 49  1  0
 20 50  1  0
 21 51  1  0
 21 52  1  0
 21 53  1  0
 22 23  1  0
 24 23  1  6
 23 54  1  0
 23 55  1  0
 24 28  1  0
 24 25  1  0
 25 26  1  0
 25 56  1  0
 25 57  1  0
 26 27  1  1
 26 28  1  0
 27 58  1  0
 27 59  1  0
 27 60  1  0
 28 29  1  1
 29 61  1  0
 29 62  1  0
 29 63  1  0
M  END
>  <i_m_ct_stereo_status>  (139) 
1

>  <s_m_source_file>  (139) 
/var/tmp/pbs.5076255.sched01/tmp06uo9b_r/40lj_pgbub.sdf

>  <i_m_source_file_index>  (139) 
17

>  <i_lp_mmshare_version>  (139) 
48012

>  <i_f3d_flags>  (139) 
0

>  <s_epik_input>  (139) 
Tz1DKFtDSDJdMSlbQ0BASF0oW0NIM10pW0NASF0oW0NIMl1bQ0BIXTJbT0hdKVtDQF0xKFtPSF0pW0NAQF0yM1tDQEBdNChbQ0gzXSlbQ0BdNTZbQ0BIXShbQ0gyXVtDQEBIXShPW0NIMl0zKVtDQEBdNChbQ0gyXTYpW0NIM10pT0MoW0NIM10pKFtDSDNdKU9bQ0gyXTU=

>  <s_epik_cmdline>  (139) 
J2VwaWtfcHl0aG9uJywgJy1waHQnLCAnMi4wJywgJy1waCcsICc3LjAnLCAnLXRuJywgJzgnLCAnLW1hJywgJzIwMCcsICctaW1hZScsICc8aW5maWxlLm1hZT4nLCAnLW9tYWUnLCAnPG91dGZpbGUubWFlPic=

>  <r_lp_tautomer_probability>  (139) 
1

>  <r_epik_Ionization_Penalty>  (139) 
3.63943e-07

>  <r_epik_Ionization_Penalty_Charging>  (139) 
0

>  <r_epik_Ionization_Penalty_Neutral>  (139) 
3.63943e-07

>  <r_epik_State_Penalty>  (139) 
-0

>  <r_epik_Charging_Adjusted_Penalty>  (139) 
0

>  <i_epik_Tot_Q>  (139) 
0

>  <i_epik_Tot_abs_Q>  (139) 
0

>  <s_lp_Force_Field>  (139) 
OPLS3e

>  <r_lp_Energy>  (139) 
75.2569

>  <b_lp_Chiralities_Consistent>  (139) 
1

>  <s_lp_Variant>  (139) 
43:0-1

>  <s_i_glide_gridfile>  (139) 
pfpi4k_grid

>  <i_i_glide_lignum>  (139) 
17

>  <i_i_glide_rotatable_bonds>  (139) 
2

>  <r_i_docking_score>  (139) 
-2.14943

>  <r_i_glide_ligand_efficiency>  (139) 
-0.0741181

>  <r_i_glide_ligand_efficiency_sa>  (139) 
-0.227714

>  <r_i_glide_ligand_efficiency_ln>  (139) 
-0.492164

>  <r_i_glide_gscore>  (139) 
-2.14943

>  <r_i_glide_lipo>  (139) 
-0.0211279

>  <r_i_glide_hbond>  (139) 
0

>  <r_i_glide_metal>  (139) 
-0

>  <r_i_glide_rewards>  (139) 
-1.13766

>  <r_i_glide_evdw>  (139) 
-18.052

>  <r_i_glide_ecoul>  (139) 
-0.399011

>  <r_i_glide_erotb>  (139) 
0

>  <r_i_glide_esite>  (139) 
-0.0281893

>  <r_i_glide_emodel>  (139) 
-26.69

>  <r_i_glide_energy>  (139) 
-18.451

>  <r_i_glide_einternal>  (139) 
0.367909

>  <r_i_glide_intrahb_reward>  (139) 
-0.5

>  <i_i_glide_confnum>  (139) 
1

>  <i_i_glide_posenum>  (139) 
3

>  <r_i_glide_eff_state_penalty>  (139) 
0

>  <ligand_id>  (139) 
43

>  <original_smiles>  (139) 
CC1C(=O)CC2(O)C1CC(O)C21COC2CC3OC(C)(C)OCC34CC2(C)C41C

>  <smiles>  (139) 
[H]OC1([H])C([H])([H])C2([H])C([H])(C([H])([H])[H])C(=O)C([H])([H])C2(O[H])C12C([H])([H])OC1([H])C([H])([H])C3([H])OC(C([H])([H])[H])(C([H])([H])[H])OC([H])([H])C34C([H])([H])C1(C([H])([H])[H])C42C([H])([H])[H]

$$$$
43:0:2
     RDKit          3D

 63 68  0  0  1  0  0  0  0  0999 V2000
   -0.0941    4.8044    3.6735 C   0  0  0  0  0  0  0  0  0  0  0  0
   -0.4226    3.3489    3.3115 C   0  0  2  0  0  0  0  0  0  0  0  0
   -1.2238    2.6771    4.4006 C   0  0  0  0  0  0  0  0  0  0  0  0
   -2.2969    3.1025    4.8388 O   0  0  0  0  0  0  0  0  0  0  0  0
   -0.5423    1.4237    4.8950 C   0  0  0  0  0  0  0  0  0  0  0  0
    0.9400    1.5606    4.4526 C   0  0  2  0  0  0  0  0  0  0  0  0
    1.5862    2.3288    5.4521 O   0  0  0  0  0  0  0  0  0  0  0  0
    0.8247    2.4482    3.1837 C   0  0  1  0  0  0  0  0  0  0  0  0
    0.7807    1.4408    2.0201 C   0  0  0  0  0  0  0  0  0  0  0  0
    1.0564    0.0477    2.6175 C   0  0  1  0  0  0  0  0  0  0  0  0
    1.7960   -0.7043    1.6824 O   0  0  0  0  0  0  0  0  0  0  0  0
    1.7479    0.2575    4.0014 C   0  0  1  0  0  0  0  0  0  0  0  0
    3.2240    0.7178    3.7681 C   0  0  0  0  0  0  0  0  0  0  0  0
    3.9550    0.8462    4.9858 O   0  0  0  0  0  0  0  0  0  0  0  0
    4.1731   -0.3787    5.6666 C   0  0  2  0  0  0  0  0  0  0  0  0
    4.9526   -1.3312    4.7238 C   0  0  0  0  0  0  0  0  0  0  0  0
    4.0478   -2.4071    4.0842 C   0  0  2  0  0  0  0  0  0  0  0  0
    4.1282   -2.4631    2.6663 O   0  0  0  0  0  0  0  0  0  0  0  0
    3.4388   -3.5461    2.1074 C   0  0  0  0  0  0  0  0  0  0  0  0
    3.4539   -3.3590    0.5822 C   0  0  0  0  0  0  0  0  0  0  0  0
    4.1316   -4.8955    2.4458 C   0  0  0  0  0  0  0  0  0  0  0  0
    2.1023   -3.5725    2.5031 O   0  0  0  0  0  0  0  0  0  0  0  0
    1.8686   -3.5442    3.9079 C   0  0  0  0  0  0  0  0  0  0  0  0
    2.5910   -2.3821    4.6175 C   0  0  1  0  0  0  0  0  0  0  0  0
    2.7351   -2.4799    6.1469 C   0  0  0  0  0  0  0  0  0  0  0  0
    2.8018   -0.9476    6.1297 C   0  0  1  0  0  0  0  0  0  0  0  0
    2.3932   -0.2928    7.4535 C   0  0  0  0  0  0  0  0  0  0  0  0
    1.7654   -1.0442    4.9617 C   0  0  1  0  0  0  0  0  0  0  0  0
    0.2997   -1.3605    5.3959 C   0  0  0  0  0  0  0  0  0  0  0  0
   -1.0024    5.3913    3.7666 H   0  0  0  0  0  0  0  0  0  0  0  0
    0.5102    5.2834    2.9036 H   0  0  0  0  0  0  0  0  0  0  0  0
    0.4461    4.8792    4.6167 H   0  0  0  0  0  0  0  0  0  0  0  0
   -1.0092    3.3367    2.3967 H   0  0  0  0  0  0  0  0  0  0  0  0
   -0.6640    1.3315    5.9699 H   0  0  0  0  0  0  0  0  0  0  0  0
   -1.0539    0.5980    4.4038 H   0  0  0  0  0  0  0  0  0  0  0  0
    1.7518    1.7642    6.1934 H   0  0  0  0  0  0  0  0  0  0  0  0
    1.7034    3.0818    3.0630 H   0  0  0  0  0  0  0  0  0  0  0  0
   -0.1756    1.4567    1.4951 H   0  0  0  0  0  0  0  0  0  0  0  0
    1.5464    1.7128    1.2920 H   0  0  0  0  0  0  0  0  0  0  0  0
    0.0891   -0.4414    2.7350 H   0  0  0  0  0  0  0  0  0  0  0  0
    1.3631   -0.6729    0.8265 H   0  0  0  0  0  0  0  0  0  0  0  0
    3.7328    0.0790    3.0497 H   0  0  0  0  0  0  0  0  0  0  0  0
    3.2876    1.6934    3.3023 H   0  0  0  0  0  0  0  0  0  0  0  0
    4.8155   -0.1588    6.5201 H   0  0  0  0  0  0  0  0  0  0  0  0
    5.5158   -0.7790    3.9719 H   0  0  0  0  0  0  0  0  0  0  0  0
    5.7069   -1.8468    5.3215 H   0  0  0  0  0  0  0  0  0  0  0  0
    4.5117   -3.3268    4.4414 H   0  0  0  0  0  0  0  0  0  0  0  0
    2.9975   -2.4108    0.3048 H   0  0  0  0  0  0  0  0  0  0  0  0
    2.8988   -4.1639    0.1026 H   0  0  0  0  0  0  0  0  0  0  0  0
    4.4799   -3.3728    0.2216 H   0  0  0  0  0  0  0  0  0  0  0  0
    4.0208   -5.1787    3.4912 H   0  0  0  0  0  0  0  0  0  0  0  0
    5.1935   -4.8187    2.2231 H   0  0  0  0  0  0  0  0  0  0  0  0
    3.7020   -5.6933    1.8421 H   0  0  0  0  0  0  0  0  0  0  0  0
    0.7867   -3.4698    4.0191 H   0  0  0  0  0  0  0  0  0  0  0  0
    2.1358   -4.4999    4.3622 H   0  0  0  0  0  0  0  0  0  0  0  0
    1.9108   -2.9256    6.7002 H   0  0  0  0  0  0  0  0  0  0  0  0
    3.6566   -2.9502    6.5034 H   0  0  0  0  0  0  0  0  0  0  0  0
    1.4610   -0.7203    7.8263 H   0  0  0  0  0  0  0  0  0  0  0  0
    2.2552    0.7782    7.3560 H   0  0  0  0  0  0  0  0  0  0  0  0
    3.1383   -0.4614    8.2315 H   0  0  0  0  0  0  0  0  0  0  0  0
    0.1614   -2.3368    5.8557 H   0  0  0  0  0  0  0  0  0  0  0  0
   -0.3895   -1.3898    4.5594 H   0  0  0  0  0  0  0  0  0  0  0  0
   -0.0599   -0.6703    6.1534 H   0  0  0  0  0  0  0  0  0  0  0  0
  1  2  1  0
  1 30  1  0
  1 31  1  0
  1 32  1  0
  2  8  1  0
  2  3  1  0
  2 33  1  6
  3  4  2  0
  3  5  1  0
  5  6  1  0
  5 34  1  0
  5 35  1  0
  6 12  1  0
  6  7  1  1
  6  8  1  0
  7 36  1  0
  8  9  1  0
  8 37  1  6
  9 10  1  0
  9 38  1  0
  9 39  1  0
 10 11  1  0
 10 12  1  0
 10 40  1  1
 11 41  1  0
 12 28  1  0
 12 13  1  6
 13 14  1  0
 13 42  1  0
 13 43  1  0
 14 15  1  0
 15 26  1  0
 15 16  1  0
 15 44  1  1
 16 17  1  0
 16 45  1  0
 16 46  1  0
 17 24  1  0
 17 18  1  0
 17 47  1  1
 18 19  1  0
 19 20  1  0
 19 21  1  0
 19 22  1  0
 20 48  1  0
 20 49  1  0
 20 50  1  0
 21 51  1  0
 21 52  1  0
 21 53  1  0
 22 23  1  0
 24 23  1  6
 23 54  1  0
 23 55  1  0
 24 28  1  0
 24 25  1  0
 25 26  1  0
 25 56  1  0
 25 57  1  0
 26 27  1  1
 26 28  1  0
 27 58  1  0
 27 59  1  0
 27 60  1  0
 28 29  1  1
 29 61  1  0
 29 62  1  0
 29 63  1  0
M  END
>  <i_m_ct_stereo_status>  (140) 
1

>  <s_m_source_file>  (140) 
/var/tmp/pbs.5076255.sched01/tmp06uo9b_r/40lj_pgbub.sdf

>  <i_m_source_file_index>  (140) 
17

>  <i_lp_mmshare_version>  (140) 
48012

>  <i_f3d_flags>  (140) 
0

>  <s_epik_input>  (140) 
Tz1DKFtDSDJdMSlbQ0BASF0oW0NIM10pW0NASF0oW0NIMl1bQ0BIXTJbT0hdKVtDQF0xKFtPSF0pW0NAQF0yM1tDQEBdNChbQ0gzXSlbQ0BdNTZbQ0BIXShbQ0gyXVtDQEBIXShPW0NIMl0zKVtDQEBdNChbQ0gyXTYpW0NIM10pT0MoW0NIM10pKFtDSDNdKU9bQ0gyXTU=

>  <s_epik_cmdline>  (140) 
J2VwaWtfcHl0aG9uJywgJy1waHQnLCAnMi4wJywgJy1waCcsICc3LjAnLCAnLXRuJywgJzgnLCAnLW1hJywgJzIwMCcsICctaW1hZScsICc8aW5maWxlLm1hZT4nLCAnLW9tYWUnLCAnPG91dGZpbGUubWFlPic=

>  <r_lp_tautomer_probability>  (140) 
1

>  <r_epik_Ionization_Penalty>  (140) 
3.63943e-07

>  <r_epik_Ionization_Penalty_Charging>  (140) 
0

>  <r_epik_Ionization_Penalty_Neutral>  (140) 
3.63943e-07

>  <r_epik_State_Penalty>  (140) 
-0

>  <r_epik_Charging_Adjusted_Penalty>  (140) 
0

>  <i_epik_Tot_Q>  (140) 
0

>  <i_epik_Tot_abs_Q>  (140) 
0

>  <s_lp_Force_Field>  (140) 
OPLS3e

>  <r_lp_Energy>  (140) 
75.2569

>  <b_lp_Chiralities_Consistent>  (140) 
1

>  <s_lp_Variant>  (140) 
43:0-1

>  <s_i_glide_gridfile>  (140) 
pfpi4k_grid

>  <i_i_glide_lignum>  (140) 
17

>  <i_i_glide_rotatable_bonds>  (140) 
2

>  <r_i_docking_score>  (140) 
-2.11186

>  <r_i_glide_ligand_efficiency>  (140) 
-0.0728229

>  <r_i_glide_ligand_efficiency_sa>  (140) 
-0.223735

>  <r_i_glide_ligand_efficiency_ln>  (140) 
-0.483563

>  <r_i_glide_gscore>  (140) 
-2.11186

>  <r_i_glide_lipo>  (140) 
-0.0490238

>  <r_i_glide_hbond>  (140) 
0

>  <r_i_glide_metal>  (140) 
-0

>  <r_i_glide_rewards>  (140) 
-0.639696

>  <r_i_glide_evdw>  (140) 
-17.6696

>  <r_i_glide_ecoul>  (140) 
-3.44881

>  <r_i_glide_erotb>  (140) 
0

>  <r_i_glide_esite>  (140) 
-0.0223449

>  <r_i_glide_emodel>  (140) 
-24.1482

>  <r_i_glide_energy>  (140) 
-21.1184

>  <r_i_glide_einternal>  (140) 
0.588746

>  <r_i_glide_intrahb_reward>  (140) 
-0

>  <i_i_glide_confnum>  (140) 
1

>  <i_i_glide_posenum>  (140) 
1

>  <r_i_glide_eff_state_penalty>  (140) 
0

>  <ligand_id>  (140) 
43

>  <original_smiles>  (140) 
CC1C(=O)CC2(O)C1CC(O)C21COC2CC3OC(C)(C)OCC34CC2(C)C41C

>  <smiles>  (140) 
[H]OC1([H])C([H])([H])C2([H])C([H])(C([H])([H])[H])C(=O)C([H])([H])C2(O[H])C12C([H])([H])OC1([H])C([H])([H])C3([H])OC(C([H])([H])[H])(C([H])([H])[H])OC([H])([H])C34C([H])([H])C1(C([H])([H])[H])C42C([H])([H])[H]

$$$$
44:0:0
     RDKit          3D

 31 32  0  0  1  0  0  0  0  0999 V2000
   -0.1236    1.6372    1.8802 C   0  0  0  0  0  0  0  0  0  0  0  0
    0.7457    1.0783    3.0034 C   0  0  2  0  0  0  0  0  0  0  0  0
    1.3989   -0.0455    2.4222 O   0  0  0  0  0  0  0  0  0  0  0  0
    2.7347   -0.0933    2.3350 C   0  0  0  0  0  0  0  0  0  0  0  0
    3.5044    0.4816    3.1049 O   0  0  0  0  0  0  0  0  0  0  0  0
    3.1466   -0.8734    1.1567 C   0  0  0  0  0  0  0  0  0  0  0  0
    4.4329   -1.0175    0.7926 C   0  0  0  0  0  0  0  0  0  0  0  0
    4.8991   -1.7320   -0.4114 C   0  0  0  0  0  0  0  0  0  0  0  0
    6.2755   -2.0453   -0.6097 C   0  0  0  0  0  0  0  0  0  0  0  0
    6.4988   -2.7177   -1.7849 C   0  0  0  0  0  0  0  0  0  0  0  0
    5.0090   -3.0025   -2.6494 S   0  0  0  0  0  0  0  0  0  0  0  0
    4.0817   -2.1801   -1.4183 C   0  0  0  0  0  0  0  0  0  0  0  0
   -0.0961    0.7373    4.2239 C   0  0  0  0  0  0  0  0  0  0  0  0
   -0.6460   -0.5471    4.4058 C   0  0  0  0  0  0  0  0  0  0  0  0
   -1.4478   -0.7875    5.5352 C   0  0  0  0  0  0  0  0  0  0  0  0
   -1.7239    0.1498    6.4682 N   0  0  0  0  0  0  0  0  0  0  0  0
   -1.2114    1.3807    6.2799 C   0  0  0  0  0  0  0  0  0  0  0  0
   -0.3991    1.7274    5.1816 C   0  0  0  0  0  0  0  0  0  0  0  0
   -0.6514    2.5399    2.1857 H   0  0  0  0  0  0  0  0  0  0  0  0
   -0.8623    0.9097    1.5406 H   0  0  0  0  0  0  0  0  0  0  0  0
    0.4919    1.8910    1.0173 H   0  0  0  0  0  0  0  0  0  0  0  0
    1.4632    1.8444    3.3051 H   0  0  0  0  0  0  0  0  0  0  0  0
    2.3648   -1.3223    0.5680 H   0  0  0  0  0  0  0  0  0  0  0  0
    5.2047   -0.5700    1.3995 H   0  0  0  0  0  0  0  0  0  0  0  0
    7.0374   -1.7768    0.1082 H   0  0  0  0  0  0  0  0  0  0  0  0
    7.4406   -3.0833   -2.1924 H   0  0  0  0  0  0  0  0  0  0  0  0
    3.0036   -2.0869   -1.5125 H   0  0  0  0  0  0  0  0  0  0  0  0
   -0.4677   -1.3369    3.6868 H   0  0  0  0  0  0  0  0  0  0  0  0
   -1.8674   -1.7640    5.7088 H   0  0  0  0  0  0  0  0  0  0  0  0
   -1.4418    2.1123    7.0428 H   0  0  0  0  0  0  0  0  0  0  0  0
   -0.0230    2.7357    5.0765 H   0  0  0  0  0  0  0  0  0  0  0  0
  1  2  1  0
  1 19  1  0
  1 20  1  0
  1 21  1  0
  2  3  1  0
  2 13  1  0
  2 22  1  1
  3  4  1  0
  4  5  2  0
  4  6  1  0
  6  7  2  3
  6 23  1  0
  7  8  1  0
  7 24  1  0
  8 12  2  0
  8  9  1  0
  9 10  2  0
  9 25  1  0
 10 11  1  0
 10 26  1  0
 11 12  1  0
 12 27  1  0
 13 18  1  0
 13 14  2  0
 14 15  1  0
 14 28  1  0
 15 16  2  0
 15 29  1  0
 16 17  1  0
 17 18  2  0
 17 30  1  0
 18 31  1  0
M  END
>  <i_m_ct_stereo_status>  (141) 
1

>  <s_m_source_file>  (141) 
/var/tmp/pbs.5076255.sched01/tmp06uo9b_r/40lj_pgbub.sdf

>  <i_m_source_file_index>  (141) 
18

>  <i_lp_mmshare_version>  (141) 
48012

>  <i_f3d_flags>  (141) 
0

>  <s_epik_input>  (141) 
W2NIXTFbY0hdbltjSF1bY0hdYzFbQ0BIXShbQ0gzXSlPQyg9TykvW0NIXT1bQ0hdL2MyW2NIXVtjSF1zW2NIXTI=

>  <s_epik_cmdline>  (141) 
J2VwaWtfcHl0aG9uJywgJy1waHQnLCAnMi4wJywgJy1waCcsICc3LjAnLCAnLXRuJywgJzgnLCAnLW1hJywgJzIwMCcsICctaW1hZScsICc8aW5maWxlLm1hZT4nLCAnLW9tYWUnLCAnPG91dGZpbGUubWFlPic=

>  <r_epik_Ionization_Penalty>  (141) 
0.0314817

>  <r_epik_Ionization_Penalty_Charging>  (141) 
0

>  <r_epik_Ionization_Penalty_Neutral>  (141) 
0.0314817

>  <r_epik_State_Penalty>  (141) 
0.0260226

>  <r_epik_Charging_Adjusted_Penalty>  (141) 
0.0260226

>  <i_epik_Tot_Q>  (141) 
0

>  <i_epik_Tot_abs_Q>  (141) 
0

>  <s_epik_Chemistry_Notes>  (141) 
This compound has an ester and may undergo hydrolysis at high or low pH.

>  <s_lp_Force_Field>  (141) 
OPLS3e

>  <r_lp_Energy>  (141) 
15.216

>  <b_lp_Chiralities_Consistent>  (141) 
1

>  <s_lp_Variant>  (141) 
44:0-1

>  <s_i_glide_gridfile>  (141) 
pfpi4k_grid

>  <i_i_glide_lignum>  (141) 
18

>  <i_i_glide_rotatable_bonds>  (141) 
5

>  <r_i_docking_score>  (141) 
-3.39106

>  <r_i_glide_ligand_efficiency>  (141) 
-0.188392

>  <r_i_glide_ligand_efficiency_sa>  (141) 
-0.493728

>  <r_i_glide_ligand_efficiency_ln>  (141) 
-0.871655

>  <r_i_glide_gscore>  (141) 
-3.39106

>  <r_i_glide_lipo>  (141) 
-0.213747

>  <r_i_glide_hbond>  (141) 
-0.16

>  <r_i_glide_metal>  (141) 
-0

>  <r_i_glide_rewards>  (141) 
-1.64097

>  <r_i_glide_evdw>  (141) 
-22.748

>  <r_i_glide_ecoul>  (141) 
-6.79526

>  <r_i_glide_erotb>  (141) 
0.788782

>  <r_i_glide_esite>  (141) 
-0.00844087

>  <r_i_glide_emodel>  (141) 
-33.9754

>  <r_i_glide_energy>  (141) 
-29.5433

>  <r_i_glide_einternal>  (141) 
4.59685

>  <r_i_glide_intrahb_reward>  (141) 
-0

>  <i_i_glide_confnum>  (141) 
1

>  <i_i_glide_posenum>  (141) 
19

>  <r_i_glide_eff_state_penalty>  (141) 
0

>  <ligand_id>  (141) 
44

>  <original_smiles>  (141) 
CC(OC(=O)C=Cc1ccsc1)c1ccncc1

>  <smiles>  (141) 
[H]C(C(=O)OC([H])(c1c([H])c([H])nc([H])c1[H])C([H])([H])[H])=C([H])c1c([H])sc([H])c1[H]

$$$$
44:0:1
     RDKit          3D

 31 32  0  0  1  0  0  0  0  0999 V2000
   -2.1711    2.6872    4.4311 C   0  0  0  0  0  0  0  0  0  0  0  0
   -1.5612    2.0991    5.7211 C   0  0  2  0  0  0  0  0  0  0  0  0
   -2.0439    0.7781    5.9411 O   0  0  0  0  0  0  0  0  0  0  0  0
   -1.5800   -0.3125    5.2776 C   0  0  0  0  0  0  0  0  0  0  0  0
   -2.0835   -1.4231    5.4386 O   0  0  0  0  0  0  0  0  0  0  0  0
   -0.4266   -0.0589    4.3937 C   0  0  0  0  0  0  0  0  0  0  0  0
    0.2422   -1.0288    3.7478 C   0  0  0  0  0  0  0  0  0  0  0  0
    1.4042   -0.7577    2.8834 C   0  0  0  0  0  0  0  0  0  0  0  0
    1.9199    0.5520    2.6013 C   0  0  0  0  0  0  0  0  0  0  0  0
    3.0192    0.5111    1.7800 C   0  0  0  0  0  0  0  0  0  0  0  0
    3.4371   -1.1154    1.3327 S   0  0  0  0  0  0  0  0  0  0  0  0
    2.1170   -1.7508    2.2861 C   0  0  0  0  0  0  0  0  0  0  0  0
   -1.8091    2.9988    6.9197 C   0  0  0  0  0  0  0  0  0  0  0  0
   -0.8445    3.9568    7.2833 C   0  0  0  0  0  0  0  0  0  0  0  0
   -1.0973    4.7846    8.3914 C   0  0  0  0  0  0  0  0  0  0  0  0
   -2.2318    4.7127    9.1179 N   0  0  0  0  0  0  0  0  0  0  0  0
   -3.1536    3.7882    8.7728 C   0  0  0  0  0  0  0  0  0  0  0  0
   -2.9937    2.9184    7.6786 C   0  0  0  0  0  0  0  0  0  0  0  0
   -1.7525    3.6716    4.2185 H   0  0  0  0  0  0  0  0  0  0  0  0
   -3.2574    2.7865    4.4891 H   0  0  0  0  0  0  0  0  0  0  0  0
   -1.9598    2.0617    3.5668 H   0  0  0  0  0  0  0  0  0  0  0  0
   -0.4841    2.0418    5.6361 H   0  0  0  0  0  0  0  0  0  0  0  0
   -0.0948    0.9430    4.2513 H   0  0  0  0  0  0  0  0  0  0  0  0
   -0.0463   -2.0743    3.8472 H   0  0  0  0  0  0  0  0  0  0  0  0
    1.5113    1.4772    2.9777 H   0  0  0  0  0  0  0  0  0  0  0  0
    3.6067    1.3390    1.4051 H   0  0  0  0  0  0  0  0  0  0  0  0
    1.9450   -2.8212    2.3399 H   0  0  0  0  0  0  0  0  0  0  0  0
    0.0785    4.0468    6.7318 H   0  0  0  0  0  0  0  0  0  0  0  0
   -0.3677    5.5207    8.6955 H   0  0  0  0  0  0  0  0  0  0  0  0
   -4.0518    3.7571    9.3708 H   0  0  0  0  0  0  0  0  0  0  0  0
   -3.7679    2.2106    7.4221 H   0  0  0  0  0  0  0  0  0  0  0  0
  1  2  1  0
  1 19  1  0
  1 20  1  0
  1 21  1  0
  2  3  1  0
  2 13  1  0
  2 22  1  6
  3  4  1  0
  4  5  2  0
  4  6  1  0
  6  7  2  3
  6 23  1  0
  7  8  1  0
  7 24  1  0
  8 12  2  0
  8  9  1  0
  9 10  2  0
  9 25  1  0
 10 11  1  0
 10 26  1  0
 11 12  1  0
 12 27  1  0
 13 18  1  0
 13 14  2  0
 14 15  1  0
 14 28  1  0
 15 16  2  0
 15 29  1  0
 16 17  1  0
 17 18  2  0
 17 30  1  0
 18 31  1  0
M  END
>  <i_m_ct_stereo_status>  (142) 
1

>  <s_m_source_file>  (142) 
/var/tmp/pbs.5076255.sched01/tmp06uo9b_r/40lj_pgbub.sdf

>  <i_m_source_file_index>  (142) 
18

>  <i_lp_mmshare_version>  (142) 
48012

>  <i_f3d_flags>  (142) 
0

>  <s_epik_input>  (142) 
W2NIXTFbY0hdbltjSF1bY0hdYzFbQ0BIXShbQ0gzXSlPQyg9TykvW0NIXT1bQ0hdL2MyW2NIXVtjSF1zW2NIXTI=

>  <s_epik_cmdline>  (142) 
J2VwaWtfcHl0aG9uJywgJy1waHQnLCAnMi4wJywgJy1waCcsICc3LjAnLCAnLXRuJywgJzgnLCAnLW1hJywgJzIwMCcsICctaW1hZScsICc8aW5maWxlLm1hZT4nLCAnLW9tYWUnLCAnPG91dGZpbGUubWFlPic=

>  <r_epik_Ionization_Penalty>  (142) 
0.0314817

>  <r_epik_Ionization_Penalty_Charging>  (142) 
0

>  <r_epik_Ionization_Penalty_Neutral>  (142) 
0.0314817

>  <r_epik_State_Penalty>  (142) 
0.0260226

>  <r_epik_Charging_Adjusted_Penalty>  (142) 
0.0260226

>  <i_epik_Tot_Q>  (142) 
0

>  <i_epik_Tot_abs_Q>  (142) 
0

>  <s_epik_Chemistry_Notes>  (142) 
This compound has an ester and may undergo hydrolysis at high or low pH.

>  <s_lp_Force_Field>  (142) 
OPLS3e

>  <r_lp_Energy>  (142) 
15.216

>  <b_lp_Chiralities_Consistent>  (142) 
1

>  <s_lp_Variant>  (142) 
44:0-1

>  <s_i_glide_gridfile>  (142) 
pfpi4k_grid

>  <i_i_glide_lignum>  (142) 
18

>  <i_i_glide_rotatable_bonds>  (142) 
5

>  <r_i_docking_score>  (142) 
-2.88308

>  <r_i_glide_ligand_efficiency>  (142) 
-0.160171

>  <r_i_glide_ligand_efficiency_sa>  (142) 
-0.419767

>  <r_i_glide_ligand_efficiency_ln>  (142) 
-0.741081

>  <r_i_glide_gscore>  (142) 
-2.88308

>  <r_i_glide_lipo>  (142) 
-0.362744

>  <r_i_glide_hbond>  (142) 
-0.0128258

>  <r_i_glide_metal>  (142) 
-0

>  <r_i_glide_rewards>  (142) 
-1.64097

>  <r_i_glide_evdw>  (142) 
-23.0852

>  <r_i_glide_ecoul>  (142) 
-2.99368

>  <r_i_glide_erotb>  (142) 
0.788782

>  <r_i_glide_esite>  (142) 
-0.0520111

>  <r_i_glide_emodel>  (142) 
-29.8145

>  <r_i_glide_energy>  (142) 
-26.0789

>  <r_i_glide_einternal>  (142) 
3.34647

>  <r_i_glide_intrahb_reward>  (142) 
-0

>  <i_i_glide_confnum>  (142) 
2

>  <i_i_glide_posenum>  (142) 
30

>  <r_i_glide_eff_state_penalty>  (142) 
0

>  <ligand_id>  (142) 
44

>  <original_smiles>  (142) 
CC(OC(=O)C=Cc1ccsc1)c1ccncc1

>  <smiles>  (142) 
[H]C(C(=O)OC([H])(c1c([H])c([H])nc([H])c1[H])C([H])([H])[H])=C([H])c1c([H])sc([H])c1[H]

$$$$
44:0:2
     RDKit          3D

 31 32  0  0  1  0  0  0  0  0999 V2000
    1.7444   -0.4888    2.4822 C   0  0  0  0  0  0  0  0  0  0  0  0
    1.7483   -1.2553    3.8160 C   0  0  2  0  0  0  0  0  0  0  0  0
    1.5660   -2.6404    3.5697 O   0  0  0  0  0  0  0  0  0  0  0  0
    2.6031   -3.4497    3.2704 C   0  0  0  0  0  0  0  0  0  0  0  0
    3.7650   -3.0695    3.1297 O   0  0  0  0  0  0  0  0  0  0  0  0
    2.2074   -4.8678    3.1456 C   0  0  0  0  0  0  0  0  0  0  0  0
    0.9849   -5.3135    3.5064 C   0  0  0  0  0  0  0  0  0  0  0  0
    0.4941   -6.6925    3.3967 C   0  0  0  0  0  0  0  0  0  0  0  0
   -0.7348   -7.0925    4.0037 C   0  0  0  0  0  0  0  0  0  0  0  0
   -1.0002   -8.4223    3.8011 C   0  0  0  0  0  0  0  0  0  0  0  0
    0.2688   -9.1946    2.8832 S   0  0  0  0  0  0  0  0  0  0  0  0
    1.1611   -7.7074    2.7589 C   0  0  0  0  0  0  0  0  0  0  0  0
    0.6567   -0.7533    4.7479 C   0  0  0  0  0  0  0  0  0  0  0  0
   -0.6972   -1.0727    4.5156 C   0  0  0  0  0  0  0  0  0  0  0  0
   -1.6766   -0.5722    5.3927 C   0  0  0  0  0  0  0  0  0  0  0  0
   -1.3878    0.1717    6.4794 N   0  0  0  0  0  0  0  0  0  0  0  0
   -0.0916    0.4908    6.6898 C   0  0  0  0  0  0  0  0  0  0  0  0
    0.9633    0.0553    5.8614 C   0  0  0  0  0  0  0  0  0  0  0  0
    1.8729    0.5822    2.6427 H   0  0  0  0  0  0  0  0  0  0  0  0
    0.8118   -0.6335    1.9365 H   0  0  0  0  0  0  0  0  0  0  0  0
    2.5519   -0.8217    1.8319 H   0  0  0  0  0  0  0  0  0  0  0  0
    2.7039   -1.0941    4.3210 H   0  0  0  0  0  0  0  0  0  0  0  0
    2.9486   -5.5530    2.7508 H   0  0  0  0  0  0  0  0  0  0  0  0
    0.2672   -4.6150    3.9167 H   0  0  0  0  0  0  0  0  0  0  0  0
   -1.3606   -6.4161    4.5679 H   0  0  0  0  0  0  0  0  0  0  0  0
   -1.8324   -9.0184    4.1554 H   0  0  0  0  0  0  0  0  0  0  0  0
    2.1049   -7.6861    2.2360 H   0  0  0  0  0  0  0  0  0  0  0  0
   -0.9739   -1.6991    3.6898 H   0  0  0  0  0  0  0  0  0  0  0  0
   -2.7185   -0.8088    5.2401 H   0  0  0  0  0  0  0  0  0  0  0  0
    0.1113    1.1046    7.5556 H   0  0  0  0  0  0  0  0  0  0  0  0
    1.9859    0.3333    6.0854 H   0  0  0  0  0  0  0  0  0  0  0  0
  1  2  1  0
  1 19  1  0
  1 20  1  0
  1 21  1  0
  2  3  1  0
  2 13  1  0
  2 22  1  1
  3  4  1  0
  4  5  2  0
  4  6  1  0
  6  7  2  3
  6 23  1  0
  7  8  1  0
  7 24  1  0
  8 12  2  0
  8  9  1  0
  9 10  2  0
  9 25  1  0
 10 11  1  0
 10 26  1  0
 11 12  1  0
 12 27  1  0
 13 18  1  0
 13 14  2  0
 14 15  1  0
 14 28  1  0
 15 16  2  0
 15 29  1  0
 16 17  1  0
 17 18  2  0
 17 30  1  0
 18 31  1  0
M  END
>  <i_m_ct_stereo_status>  (143) 
1

>  <s_m_source_file>  (143) 
/var/tmp/pbs.5076255.sched01/tmp06uo9b_r/40lj_pgbub.sdf

>  <i_m_source_file_index>  (143) 
18

>  <i_lp_mmshare_version>  (143) 
48012

>  <i_f3d_flags>  (143) 
0

>  <s_epik_input>  (143) 
W2NIXTFbY0hdbltjSF1bY0hdYzFbQ0BIXShbQ0gzXSlPQyg9TykvW0NIXT1bQ0hdL2MyW2NIXVtjSF1zW2NIXTI=

>  <s_epik_cmdline>  (143) 
J2VwaWtfcHl0aG9uJywgJy1waHQnLCAnMi4wJywgJy1waCcsICc3LjAnLCAnLXRuJywgJzgnLCAnLW1hJywgJzIwMCcsICctaW1hZScsICc8aW5maWxlLm1hZT4nLCAnLW9tYWUnLCAnPG91dGZpbGUubWFlPic=

>  <r_epik_Ionization_Penalty>  (143) 
0.0314817

>  <r_epik_Ionization_Penalty_Charging>  (143) 
0

>  <r_epik_Ionization_Penalty_Neutral>  (143) 
0.0314817

>  <r_epik_State_Penalty>  (143) 
0.0260226

>  <r_epik_Charging_Adjusted_Penalty>  (143) 
0.0260226

>  <i_epik_Tot_Q>  (143) 
0

>  <i_epik_Tot_abs_Q>  (143) 
0

>  <s_epik_Chemistry_Notes>  (143) 
This compound has an ester and may undergo hydrolysis at high or low pH.

>  <s_lp_Force_Field>  (143) 
OPLS3e

>  <r_lp_Energy>  (143) 
15.216

>  <b_lp_Chiralities_Consistent>  (143) 
1

>  <s_lp_Variant>  (143) 
44:0-1

>  <s_i_glide_gridfile>  (143) 
pfpi4k_grid

>  <i_i_glide_lignum>  (143) 
18

>  <i_i_glide_rotatable_bonds>  (143) 
5

>  <r_i_docking_score>  (143) 
-2.67917

>  <r_i_glide_ligand_efficiency>  (143) 
-0.148843

>  <r_i_glide_ligand_efficiency_sa>  (143) 
-0.390079

>  <r_i_glide_ligand_efficiency_ln>  (143) 
-0.688668

>  <r_i_glide_gscore>  (143) 
-2.67917

>  <r_i_glide_lipo>  (143) 
0

>  <r_i_glide_hbond>  (143) 
-0.16

>  <r_i_glide_metal>  (143) 
-0

>  <r_i_glide_rewards>  (143) 
-1.642

>  <r_i_glide_evdw>  (143) 
-19.5415

>  <r_i_glide_ecoul>  (143) 
-4.59256

>  <r_i_glide_erotb>  (143) 
0.788782

>  <r_i_glide_esite>  (143) 
0

>  <r_i_glide_emodel>  (143) 
-29.1775

>  <r_i_glide_energy>  (143) 
-24.1341

>  <r_i_glide_einternal>  (143) 
0.640149

>  <r_i_glide_intrahb_reward>  (143) 
-0

>  <i_i_glide_confnum>  (143) 
6

>  <i_i_glide_posenum>  (143) 
15

>  <r_i_glide_eff_state_penalty>  (143) 
0

>  <ligand_id>  (143) 
44

>  <original_smiles>  (143) 
CC(OC(=O)C=Cc1ccsc1)c1ccncc1

>  <smiles>  (143) 
[H]C(C(=O)OC([H])(c1c([H])c([H])nc([H])c1[H])C([H])([H])[H])=C([H])c1c([H])sc([H])c1[H]

$$$$
44:1:0
     RDKit          3D

 31 32  0  0  1  0  0  0  0  0999 V2000
    5.6677   -4.0193    0.4423 C   0  0  0  0  0  0  0  0  0  0  0  0
    4.6974   -5.1610    0.8025 C   0  0  2  0  0  0  0  0  0  0  0  0
    3.9425   -4.7751    1.9505 O   0  0  0  0  0  0  0  0  0  0  0  0
    2.6289   -5.1200    2.0971 C   0  0  0  0  0  0  0  0  0  0  0  0
    1.9305   -5.5475    1.2016 O   0  0  0  0  0  0  0  0  0  0  0  0
    2.1687   -4.8596    3.4650 C   0  0  0  0  0  0  0  0  0  0  0  0
    1.1378   -5.4570    4.1027 C   0  0  0  0  0  0  0  0  0  0  0  0
    0.2408   -6.5701    3.7213 C   0  0  0  0  0  0  0  0  0  0  0  0
    0.4811   -7.4839    2.6422 C   0  0  0  0  0  0  0  0  0  0  0  0
   -0.5483   -8.3594    2.4709 C   0  0  0  0  0  0  0  0  0  0  0  0
   -1.7891   -8.1525    3.6758 S   0  0  0  0  0  0  0  0  0  0  0  0
   -0.9344   -6.8193    4.3916 C   0  0  0  0  0  0  0  0  0  0  0  0
    5.3825   -6.4994    1.0436 C   0  0  0  0  0  0  0  0  0  0  0  0
    4.6570   -7.7001    0.8954 C   0  0  0  0  0  0  0  0  0  0  0  0
    5.3177   -8.9177    1.1651 C   0  0  0  0  0  0  0  0  0  0  0  0
    6.6110   -8.9920    1.5376 N   0  0  0  0  0  0  0  0  0  0  0  0
    7.2950   -7.8379    1.6823 C   0  0  0  0  0  0  0  0  0  0  0  0
    6.7275   -6.5733    1.4533 C   0  0  0  0  0  0  0  0  0  0  0  0
    6.2709   -4.3012   -0.4278 H   0  0  0  0  0  0  0  0  0  0  0  0
    6.3367   -3.7973    1.2697 H   0  0  0  0  0  0  0  0  0  0  0  0
    5.1368   -3.0950    0.1980 H   0  0  0  0  0  0  0  0  0  0  0  0
    4.0294   -5.2744   -0.0477 H   0  0  0  0  0  0  0  0  0  0  0  0
    2.7197   -4.1150    4.0200 H   0  0  0  0  0  0  0  0  0  0  0  0
    0.9460   -5.0695    5.0915 H   0  0  0  0  0  0  0  0  0  0  0  0
    1.3736   -7.4775    2.0402 H   0  0  0  0  0  0  0  0  0  0  0  0
   -0.6674   -9.1359    1.7204 H   0  0  0  0  0  0  0  0  0  0  0  0
   -1.3524   -6.3250    5.2719 H   0  0  0  0  0  0  0  0  0  0  0  0
    3.6252   -7.7034    0.5914 H   0  0  0  0  0  0  0  0  0  0  0  0
    4.8024   -9.8598    1.0560 H   0  0  0  0  0  0  0  0  0  0  0  0
    8.3239   -7.9093    1.9880 H   0  0  0  0  0  0  0  0  0  0  0  0
    7.3376   -5.6967    1.6060 H   0  0  0  0  0  0  0  0  0  0  0  0
  1  2  1  0
  1 19  1  0
  1 20  1  0
  1 21  1  0
  2  3  1  0
  2 13  1  0
  2 22  1  6
  3  4  1  0
  4  5  2  0
  4  6  1  0
  6  7  2  3
  6 23  1  0
  7  8  1  0
  7 24  1  0
  8 12  2  0
  8  9  1  0
  9 10  2  0
  9 25  1  0
 10 11  1  0
 10 26  1  0
 11 12  1  0
 12 27  1  0
 13 18  1  0
 13 14  2  0
 14 15  1  0
 14 28  1  0
 15 16  2  0
 15 29  1  0
 16 17  1  0
 17 18  2  0
 17 30  1  0
 18 31  1  0
M  END
>  <i_m_ct_stereo_status>  (144) 
1

>  <s_m_source_file>  (144) 
/var/tmp/pbs.5076255.sched01/tmp06uo9b_r/40lj_pgbub.sdf

>  <i_m_source_file_index>  (144) 
19

>  <i_lp_mmshare_version>  (144) 
48012

>  <i_f3d_flags>  (144) 
0

>  <s_epik_input>  (144) 
W2NIXTFbY0hdbltjSF1bY0hdYzFbQ0BIXShbQ0gzXSlPQyg9TykvW0NIXT1bQ0hdL2MyW2NIXVtjSF1zW2NIXTI=

>  <s_epik_cmdline>  (144) 
J2VwaWtfcHl0aG9uJywgJy1waHQnLCAnMi4wJywgJy1waCcsICc3LjAnLCAnLXRuJywgJzgnLCAnLW1hJywgJzIwMCcsICctaW1hZScsICc8aW5maWxlLm1hZT4nLCAnLW9tYWUnLCAnPG91dGZpbGUubWFlPic=

>  <r_epik_Ionization_Penalty>  (144) 
0.0314817

>  <r_epik_Ionization_Penalty_Charging>  (144) 
0

>  <r_epik_Ionization_Penalty_Neutral>  (144) 
0.0314817

>  <r_epik_State_Penalty>  (144) 
0.0260226

>  <r_epik_Charging_Adjusted_Penalty>  (144) 
0.0260226

>  <i_epik_Tot_Q>  (144) 
0

>  <i_epik_Tot_abs_Q>  (144) 
0

>  <s_epik_Chemistry_Notes>  (144) 
This compound has an ester and may undergo hydrolysis at high or low pH.

>  <s_lp_Force_Field>  (144) 
OPLS3e

>  <r_lp_Energy>  (144) 
18.908

>  <b_lp_Chiralities_Consistent>  (144) 
1

>  <s_lp_Variant>  (144) 
44:0-2

>  <s_i_glide_gridfile>  (144) 
pfpi4k_grid

>  <i_i_glide_lignum>  (144) 
19

>  <i_i_glide_rotatable_bonds>  (144) 
5

>  <r_i_docking_score>  (144) 
-3.01142

>  <r_i_glide_ligand_efficiency>  (144) 
-0.167301

>  <r_i_glide_ligand_efficiency_sa>  (144) 
-0.438453

>  <r_i_glide_ligand_efficiency_ln>  (144) 
-0.774071

>  <r_i_glide_gscore>  (144) 
-3.01142

>  <r_i_glide_lipo>  (144) 
-0.417817

>  <r_i_glide_hbond>  (144) 
-0.0502236

>  <r_i_glide_metal>  (144) 
-0

>  <r_i_glide_rewards>  (144) 
-1.64097

>  <r_i_glide_evdw>  (144) 
-22.6911

>  <r_i_glide_ecoul>  (144) 
-3.64005

>  <r_i_glide_erotb>  (144) 
0.788782

>  <r_i_glide_esite>  (144) 
-0.0106327

>  <r_i_glide_emodel>  (144) 
-28.7292

>  <r_i_glide_energy>  (144) 
-26.3311

>  <r_i_glide_einternal>  (144) 
4.42695

>  <r_i_glide_intrahb_reward>  (144) 
-0

>  <i_i_glide_confnum>  (144) 
6

>  <i_i_glide_posenum>  (144) 
1

>  <r_i_glide_eff_state_penalty>  (144) 
0

>  <ligand_id>  (144) 
44

>  <original_smiles>  (144) 
CC(OC(=O)C=Cc1ccsc1)c1ccncc1

>  <smiles>  (144) 
[H]C(C(=O)OC([H])(c1c([H])c([H])nc([H])c1[H])C([H])([H])[H])=C([H])c1c([H])sc([H])c1[H]

$$$$
44:1:1
     RDKit          3D

 31 32  0  0  1  0  0  0  0  0999 V2000
    0.6176   -2.8837    4.4260 C   0  0  0  0  0  0  0  0  0  0  0  0
    0.9265   -4.0777    5.3236 C   0  0  2  0  0  0  0  0  0  0  0  0
    0.6145   -5.2615    4.5949 O   0  0  0  0  0  0  0  0  0  0  0  0
    1.5885   -6.0084    4.0318 C   0  0  0  0  0  0  0  0  0  0  0  0
    2.7823   -5.7329    4.1090 O   0  0  0  0  0  0  0  0  0  0  0  0
    1.0667   -7.2010    3.3453 C   0  0  0  0  0  0  0  0  0  0  0  0
    1.7422   -8.0930    2.5740 C   0  0  0  0  0  0  0  0  0  0  0  0
    3.1420   -8.1515    2.0595 C   0  0  0  0  0  0  0  0  0  0  0  0
    4.0025   -7.0252    1.8592 C   0  0  0  0  0  0  0  0  0  0  0  0
    5.2967   -7.4161    1.5444 C   0  0  0  0  0  0  0  0  0  0  0  0
    5.4092   -9.1371    1.3360 S   0  0  0  0  0  0  0  0  0  0  0  0
    3.7192   -9.3586    1.7410 C   0  0  0  0  0  0  0  0  0  0  0  0
    0.2684   -4.0169    6.6758 C   0  0  0  0  0  0  0  0  0  0  0  0
    0.8811   -3.3259    7.7390 C   0  0  0  0  0  0  0  0  0  0  0  0
    0.2111   -3.2912    8.9713 C   0  0  0  0  0  0  0  0  0  0  0  0
   -0.9878   -3.8751    9.1712 N   0  0  0  0  0  0  0  0  0  0  0  0
   -1.5418   -4.5709    8.1572 C   0  0  0  0  0  0  0  0  0  0  0  0
   -0.9654   -4.6740    6.8953 C   0  0  0  0  0  0  0  0  0  0  0  0
    0.8963   -1.9560    4.9183 H   0  0  0  0  0  0  0  0  0  0  0  0
   -0.4426   -2.8621    4.1911 H   0  0  0  0  0  0  0  0  0  0  0  0
    1.1736   -2.9434    3.4896 H   0  0  0  0  0  0  0  0  0  0  0  0
    1.9781   -4.0414    5.5709 H   0  0  0  0  0  0  0  0  0  0  0  0
    0.0162   -7.4148    3.4861 H   0  0  0  0  0  0  0  0  0  0  0  0
    1.1349   -8.9179    2.2660 H   0  0  0  0  0  0  0  0  0  0  0  0
    3.7176   -5.9786    1.9811 H   0  0  0  0  0  0  0  0  0  0  0  0
    6.1579   -6.7796    1.4247 H   0  0  0  0  0  0  0  0  0  0  0  0
    3.3093  -10.3639    1.7291 H   0  0  0  0  0  0  0  0  0  0  0  0
    1.8354   -2.8251    7.6140 H   0  0  0  0  0  0  0  0  0  0  0  0
    0.6280   -2.7682    9.8121 H   0  0  0  0  0  0  0  0  0  0  0  0
   -2.4886   -5.0491    8.3490 H   0  0  0  0  0  0  0  0  0  0  0  0
   -1.4348   -5.2324    6.1032 H   0  0  0  0  0  0  0  0  0  0  0  0
  1  2  1  0
  1 19  1  0
  1 20  1  0
  1 21  1  0
  2  3  1  0
  2 13  1  0
  2 22  1  1
  3  4  1  0
  4  5  2  0
  4  6  1  0
  6  7  2  3
  6 23  1  0
  7  8  1  0
  7 24  1  0
  8 12  2  0
  8  9  1  0
  9 10  2  0
  9 25  1  0
 10 11  1  0
 10 26  1  0
 11 12  1  0
 12 27  1  0
 13 18  1  0
 13 14  2  0
 14 15  1  0
 14 28  1  0
 15 16  2  0
 15 29  1  0
 16 17  1  0
 17 18  2  0
 17 30  1  0
 18 31  1  0
M  END
>  <i_m_ct_stereo_status>  (145) 
1

>  <s_m_source_file>  (145) 
/var/tmp/pbs.5076255.sched01/tmp06uo9b_r/40lj_pgbub.sdf

>  <i_m_source_file_index>  (145) 
19

>  <i_lp_mmshare_version>  (145) 
48012

>  <i_f3d_flags>  (145) 
0

>  <s_epik_input>  (145) 
W2NIXTFbY0hdbltjSF1bY0hdYzFbQ0BIXShbQ0gzXSlPQyg9TykvW0NIXT1bQ0hdL2MyW2NIXVtjSF1zW2NIXTI=

>  <s_epik_cmdline>  (145) 
J2VwaWtfcHl0aG9uJywgJy1waHQnLCAnMi4wJywgJy1waCcsICc3LjAnLCAnLXRuJywgJzgnLCAnLW1hJywgJzIwMCcsICctaW1hZScsICc8aW5maWxlLm1hZT4nLCAnLW9tYWUnLCAnPG91dGZpbGUubWFlPic=

>  <r_epik_Ionization_Penalty>  (145) 
0.0314817

>  <r_epik_Ionization_Penalty_Charging>  (145) 
0

>  <r_epik_Ionization_Penalty_Neutral>  (145) 
0.0314817

>  <r_epik_State_Penalty>  (145) 
0.0260226

>  <r_epik_Charging_Adjusted_Penalty>  (145) 
0.0260226

>  <i_epik_Tot_Q>  (145) 
0

>  <i_epik_Tot_abs_Q>  (145) 
0

>  <s_epik_Chemistry_Notes>  (145) 
This compound has an ester and may undergo hydrolysis at high or low pH.

>  <s_lp_Force_Field>  (145) 
OPLS3e

>  <r_lp_Energy>  (145) 
18.908

>  <b_lp_Chiralities_Consistent>  (145) 
1

>  <s_lp_Variant>  (145) 
44:0-2

>  <s_i_glide_gridfile>  (145) 
pfpi4k_grid

>  <i_i_glide_lignum>  (145) 
19

>  <i_i_glide_rotatable_bonds>  (145) 
5

>  <r_i_docking_score>  (145) 
-2.39888

>  <r_i_glide_ligand_efficiency>  (145) 
-0.133271

>  <r_i_glide_ligand_efficiency_sa>  (145) 
-0.349269

>  <r_i_glide_ligand_efficiency_ln>  (145) 
-0.61662

>  <r_i_glide_gscore>  (145) 
-2.39888

>  <r_i_glide_lipo>  (145) 
-0.156305

>  <r_i_glide_hbond>  (145) 
-0.0611663

>  <r_i_glide_metal>  (145) 
-0

>  <r_i_glide_rewards>  (145) 
-1.64097

>  <r_i_glide_evdw>  (145) 
-17.9139

>  <r_i_glide_ecoul>  (145) 
-2.84646

>  <r_i_glide_erotb>  (145) 
0.788782

>  <r_i_glide_esite>  (145) 
-0.00655921

>  <r_i_glide_emodel>  (145) 
-23.2582

>  <r_i_glide_energy>  (145) 
-20.7603

>  <r_i_glide_einternal>  (145) 
1.94989

>  <r_i_glide_intrahb_reward>  (145) 
-0

>  <i_i_glide_confnum>  (145) 
5

>  <i_i_glide_posenum>  (145) 
3

>  <r_i_glide_eff_state_penalty>  (145) 
0

>  <ligand_id>  (145) 
44

>  <original_smiles>  (145) 
CC(OC(=O)C=Cc1ccsc1)c1ccncc1

>  <smiles>  (145) 
[H]C(C(=O)OC([H])(c1c([H])c([H])nc([H])c1[H])C([H])([H])[H])=C([H])c1c([H])sc([H])c1[H]

$$$$
44:3:0
     RDKit          3D

 32 33  0  0  1  0  0  0  0  0999 V2000
    5.4126   -5.3366    0.5238 C   0  0  0  0  0  0  0  0  0  0  0  0
    4.1769   -4.4343    0.6276 C   0  0  2  0  0  0  0  0  0  0  0  0
    3.0704   -5.1477    0.0866 O   0  0  0  0  0  0  0  0  0  0  0  0
    2.1332   -5.7628    0.8568 C   0  0  0  0  0  0  0  0  0  0  0  0
    1.0430   -6.0644    0.3754 O   0  0  0  0  0  0  0  0  0  0  0  0
    2.5235   -5.9746    2.2866 C   0  0  0  0  0  0  0  0  0  0  0  0
    1.8015   -6.5079    3.2859 C   0  0  0  0  0  0  0  0  0  0  0  0
    0.4890   -7.1718    3.2976 C   0  0  0  0  0  0  0  0  0  0  0  0
   -0.0501   -7.9009    2.1878 C   0  0  0  0  0  0  0  0  0  0  0  0
   -1.3010   -8.3709    2.4455 C   0  0  0  0  0  0  0  0  0  0  0  0
   -1.7886   -8.0142    4.0702 S   0  0  0  0  0  0  0  0  0  0  0  0
   -0.3122   -7.1343    4.3991 C   0  0  0  0  0  0  0  0  0  0  0  0
    4.3427   -3.1131   -0.0699 C   0  0  0  0  0  0  0  0  0  0  0  0
    4.7194   -1.9967    0.7016 C   0  0  0  0  0  0  0  0  0  0  0  0
    4.8539   -0.7543    0.0712 C   0  0  0  0  0  0  0  0  0  0  0  0
    4.6186   -0.6591   -1.2542 N   0  0  0  0  0  0  0  0  0  0  0  0
    4.2366   -1.6933   -2.0318 C   0  0  0  0  0  0  0  0  0  0  0  0
    4.0853   -2.9694   -1.4539 C   0  0  0  0  0  0  0  0  0  0  0  0
    6.2739   -4.8444    0.9736 H   0  0  0  0  0  0  0  0  0  0  0  0
    5.6460   -5.5845   -0.5131 H   0  0  0  0  0  0  0  0  0  0  0  0
    5.2512   -6.2774    1.0531 H   0  0  0  0  0  0  0  0  0  0  0  0
    3.9816   -4.1573    1.6627 H   0  0  0  0  0  0  0  0  0  0  0  0
    3.4999   -5.6609    2.6236 H   0  0  0  0  0  0  0  0  0  0  0  0
    2.2621   -6.4746    4.2668 H   0  0  0  0  0  0  0  0  0  0  0  0
    0.4929   -8.0727    1.2635 H   0  0  0  0  0  0  0  0  0  0  0  0
   -1.9390   -8.9484    1.7853 H   0  0  0  0  0  0  0  0  0  0  0  0
   -0.1340   -6.7142    5.3850 H   0  0  0  0  0  0  0  0  0  0  0  0
    4.8862   -2.0936    1.7629 H   0  0  0  0  0  0  0  0  0  0  0  0
    5.1379    0.1515    0.5827 H   0  0  0  0  0  0  0  0  0  0  0  0
    4.0604   -1.4782   -3.0760 H   0  0  0  0  0  0  0  0  0  0  0  0
    3.7609   -3.8164   -2.0456 H   0  0  0  0  0  0  0  0  0  0  0  0
    4.7173    0.2729   -1.6694 H   0  0  0  0  0  0  0  0  0  0  0  0
  1  2  1  0
  1 19  1  0
  1 20  1  0
  1 21  1  0
  2  3  1  0
  2 13  1  0
  2 22  1  1
  3  4  1  0
  4  5  2  0
  4  6  1  0
  6  7  2  3
  6 23  1  0
  7  8  1  0
  7 24  1  0
  8 12  2  0
  8  9  1  0
  9 10  2  0
  9 25  1  0
 10 11  1  0
 10 26  1  0
 11 12  1  0
 12 27  1  0
 13 18  1  0
 13 14  2  0
 14 15  1  0
 14 28  1  0
 15 16  2  0
 15 29  1  0
 16 17  1  0
 16 32  1  0
 17 18  2  0
 17 30  1  0
 18 31  1  0
M  CHG  1  16   1
M  END
>  <i_m_ct_stereo_status>  (146) 
1

>  <s_m_source_file>  (146) 
/var/tmp/pbs.5076255.sched01/tmp06uo9b_r/40lj_pgbub.sdf

>  <i_m_source_file_index>  (146) 
21

>  <i_lp_mmshare_version>  (146) 
48012

>  <i_f3d_flags>  (146) 
0

>  <s_epik_input>  (146) 
W2NIXTFbY0hdbltjSF1bY0hdYzFbQ0BIXShbQ0gzXSlPQyg9TykvW0NIXT1bQ0hdL2MyW2NIXVtjSF1zW2NIXTI=

>  <s_epik_cmdline>  (146) 
J2VwaWtfcHl0aG9uJywgJy1waHQnLCAnMi4wJywgJy1waCcsICc3LjAnLCAnLXRuJywgJzgnLCAnLW1hJywgJzIwMCcsICctaW1hZScsICc8aW5maWxlLm1hZT4nLCAnLW9tYWUnLCAnPG91dGZpbGUubWFlPic=

>  <r_epik_Ionization_Penalty>  (146) 
1.75457

>  <r_epik_Ionization_Penalty_Charging>  (146) 
1.75457

>  <r_epik_Ionization_Penalty_Neutral>  (146) 
0

>  <r_epik_State_Penalty>  (146) 
1.8647

>  <r_epik_Charging_Adjusted_Penalty>  (146) 
3.61927

>  <i_epik_Tot_Q>  (146) 
1

>  <i_epik_Tot_abs_Q>  (146) 
1

>  <s_epik_Chemistry_Notes>  (146) 
This compound has an ester and may undergo hydrolysis at high or low pH.

>  <s_lp_Force_Field>  (146) 
OPLS3e

>  <r_lp_Energy>  (146) 
23.0021

>  <b_lp_Chiralities_Consistent>  (146) 
1

>  <s_lp_Variant>  (146) 
44:0-4

>  <s_i_glide_gridfile>  (146) 
pfpi4k_grid

>  <i_i_glide_lignum>  (146) 
21

>  <i_i_glide_rotatable_bonds>  (146) 
5

>  <r_i_docking_score>  (146) 
-3.54189

>  <r_i_glide_ligand_efficiency>  (146) 
-0.196772

>  <r_i_glide_ligand_efficiency_sa>  (146) 
-0.515688

>  <r_i_glide_ligand_efficiency_ln>  (146) 
-0.910425

>  <r_i_glide_gscore>  (146) 
-3.54189

>  <r_i_glide_lipo>  (146) 
-0.201933

>  <r_i_glide_hbond>  (146) 
-0.223658

>  <r_i_glide_metal>  (146) 
-0

>  <r_i_glide_rewards>  (146) 
-1.6341

>  <r_i_glide_evdw>  (146) 
-22.5161

>  <r_i_glide_ecoul>  (146) 
-7.02398

>  <r_i_glide_erotb>  (146) 
0.78353

>  <r_i_glide_esite>  (146) 
-0.0863337

>  <r_i_glide_emodel>  (146) 
-33.2702

>  <r_i_glide_energy>  (146) 
-29.5401

>  <r_i_glide_einternal>  (146) 
4.54964

>  <r_i_glide_intrahb_reward>  (146) 
-0

>  <i_i_glide_confnum>  (146) 
2

>  <i_i_glide_posenum>  (146) 
1

>  <r_i_glide_eff_state_penalty>  (146) 
0

>  <ligand_id>  (146) 
44

>  <original_smiles>  (146) 
CC(OC(=O)C=Cc1ccsc1)c1ccncc1

>  <smiles>  (146) 
[H]C(C(=O)OC([H])(c1c([H])c([H])[n+]([H])c([H])c1[H])C([H])([H])[H])=C([H])c1c([H])sc([H])c1[H]

$$$$
45:0:0
     RDKit          3D

 31 34  0  0  1  0  0  0  0  0999 V2000
    2.3710   -5.0203    0.0843 C   0  0  0  0  0  0  0  0  0  0  0  0
    1.7628   -5.8823    0.8848 N   0  0  0  0  0  0  0  0  0  0  0  0
    2.5971   -5.9234    1.9900 N   0  0  0  0  0  0  0  0  0  0  0  0
    3.6097   -5.1129    1.8506 N   0  0  0  0  0  0  0  0  0  0  0  0
    3.4997   -4.5473    0.6182 N   0  0  0  0  0  0  0  0  0  0  0  0
    4.4328   -3.5364    0.1201 C   0  0  2  0  0  0  0  0  0  0  0  0
    4.6204   -3.7280   -1.4117 C   0  0  0  0  0  0  0  0  0  0  0  0
    5.5891   -2.6764   -1.9762 C   0  0  1  0  0  0  0  0  0  0  0  0
    5.0028   -1.2717   -1.7153 C   0  0  0  0  0  0  0  0  0  0  0  0
    4.8522   -1.0570   -0.1959 C   0  0  2  0  0  0  0  0  0  0  0  0
    6.2278   -1.1891    0.4875 C   0  0  0  0  0  0  0  0  0  0  0  0
    6.7957   -2.6005    0.2270 C   0  0  2  0  0  0  0  0  0  0  0  0
    6.9577   -2.8394   -1.2869 C   0  0  0  0  0  0  0  0  0  0  0  0
    5.8265   -3.6524    0.8035 C   0  0  0  0  0  0  0  0  0  0  0  0
    3.8794   -2.1092    0.3804 C   0  0  0  0  0  0  0  0  0  0  0  0
    1.9708   -4.7054   -0.8695 H   0  0  0  0  0  0  0  0  0  0  0  0
    4.9922   -4.7329   -1.6246 H   0  0  0  0  0  0  0  0  0  0  0  0
    3.6708   -3.6297   -1.9399 H   0  0  0  0  0  0  0  0  0  0  0  0
    5.6986   -2.8359   -3.0504 H   0  0  0  0  0  0  0  0  0  0  0  0
    5.6398   -0.5036   -2.1462 H   0  0  0  0  0  0  0  0  0  0  0  0
    4.0312   -1.1712   -2.2038 H   0  0  0  0  0  0  0  0  0  0  0  0
    4.4549   -0.0560   -0.0121 H   0  0  0  0  0  0  0  0  0  0  0  0
    6.9108   -0.4306    0.1110 H   0  0  0  0  0  0  0  0  0  0  0  0
    6.1338   -1.0109    1.5595 H   0  0  0  0  0  0  0  0  0  0  0  0
    7.7641   -2.7009    0.7184 H   0  0  0  0  0  0  0  0  0  0  0  0
    7.3373   -3.8468   -1.4550 H   0  0  0  0  0  0  0  0  0  0  0  0
    7.6934   -2.1672   -1.7204 H   0  0  0  0  0  0  0  0  0  0  0  0
    5.7480   -3.5005    1.8822 H   0  0  0  0  0  0  0  0  0  0  0  0
    6.2358   -4.6543    0.6606 H   0  0  0  0  0  0  0  0  0  0  0  0
    2.8956   -1.9875   -0.0758 H   0  0  0  0  0  0  0  0  0  0  0  0
    3.7393   -1.9395    1.4498 H   0  0  0  0  0  0  0  0  0  0  0  0
  1  5  1  0
  1  2  2  0
  1 16  1  0
  2  3  1  0
  3  4  2  0
  4  5  1  0
  6  5  1  1
  6 14  1  0
  6 15  1  0
  6  7  1  0
  7  8  1  0
  7 17  1  0
  7 18  1  0
  8 13  1  0
  8  9  1  0
  8 19  1  6
  9 10  1  0
  9 20  1  0
  9 21  1  0
 10 11  1  0
 10 15  1  0
 10 22  1  6
 11 12  1  0
 11 23  1  0
 11 24  1  0
 12 13  1  0
 12 14  1  0
 12 25  1  1
 13 26  1  0
 13 27  1  0
 14 28  1  0
 14 29  1  0
 15 30  1  0
 15 31  1  0
M  END
>  <i_m_ct_stereo_status>  (147) 
1

>  <s_m_source_file>  (147) 
/var/tmp/pbs.5076255.sched01/tmp06uo9b_r/40lj_pgbub.sdf

>  <i_m_source_file_index>  (147) 
22

>  <i_lp_mmshare_version>  (147) 
48012

>  <i_f3d_flags>  (147) 
0

>  <s_epik_input>  (147) 
bjFubltjSF1uMUMyM1tDSDJdW0NASF00W0NIMl1bQ0BASF0oW0NIMl0zKVtDSDJdW0NASF0oW0NIMl00KVtDSDJdMg==

>  <s_epik_cmdline>  (147) 
J2VwaWtfcHl0aG9uJywgJy1waHQnLCAnMi4wJywgJy1waCcsICc3LjAnLCAnLXRuJywgJzgnLCAnLW1hJywgJzIwMCcsICctaW1hZScsICc8aW5maWxlLm1hZT4nLCAnLW9tYWUnLCAnPG91dGZpbGUubWFlPic=

>  <r_lp_tautomer_probability>  (147) 
1

>  <r_epik_Ionization_Penalty>  (147) 
2.80797e-08

>  <r_epik_Ionization_Penalty_Charging>  (147) 
0

>  <r_epik_Ionization_Penalty_Neutral>  (147) 
2.80797e-08

>  <r_epik_State_Penalty>  (147) 
-0

>  <r_epik_Charging_Adjusted_Penalty>  (147) 
0

>  <i_epik_Tot_Q>  (147) 
0

>  <i_epik_Tot_abs_Q>  (147) 
0

>  <s_lp_Force_Field>  (147) 
OPLS3e

>  <r_lp_Energy>  (147) 
7.28174

>  <b_lp_Chiralities_Consistent>  (147) 
1

>  <s_lp_Variant>  (147) 
45:0-1

>  <s_i_glide_gridfile>  (147) 
pfpi4k_grid

>  <i_i_glide_lignum>  (147) 
22

>  <i_i_glide_rotatable_bonds>  (147) 
1

>  <r_i_docking_score>  (147) 
-3.49248

>  <r_i_glide_ligand_efficiency>  (147) 
-0.232832

>  <r_i_glide_ligand_efficiency_sa>  (147) 
-0.574213

>  <r_i_glide_ligand_efficiency_ln>  (147) 
-0.941864

>  <r_i_glide_gscore>  (147) 
-3.49248

>  <r_i_glide_lipo>  (147) 
-0.291919

>  <r_i_glide_hbond>  (147) 
0

>  <r_i_glide_metal>  (147) 
-0

>  <r_i_glide_rewards>  (147) 
-2.01633

>  <r_i_glide_evdw>  (147) 
-20.5319

>  <r_i_glide_ecoul>  (147) 
-2.6992

>  <r_i_glide_erotb>  (147) 
0.394182

>  <r_i_glide_esite>  (147) 
-0.146939

>  <r_i_glide_emodel>  (147) 
-28.1087

>  <r_i_glide_energy>  (147) 
-23.2311

>  <r_i_glide_einternal>  (147) 
0.210132

>  <r_i_glide_intrahb_reward>  (147) 
-0

>  <i_i_glide_confnum>  (147) 
5

>  <i_i_glide_posenum>  (147) 
1

>  <r_i_glide_eff_state_penalty>  (147) 
0

>  <ligand_id>  (147) 
45

>  <original_smiles>  (147) 
c1nnnn1C12CC3CC(CC(C3)C1)C2

>  <smiles>  (147) 
[H]c1nnnn1C12C([H])([H])C3([H])C([H])([H])C([H])(C([H])([H])C([H])(C3([H])[H])C1([H])[H])C2([H])[H]

$$$$
45:0:1
     RDKit          3D

 31 34  0  0  1  0  0  0  0  0999 V2000
    3.4247   -6.2434    1.5363 C   0  0  0  0  0  0  0  0  0  0  0  0
    2.4337   -7.1053    1.7217 N   0  0  0  0  0  0  0  0  0  0  0  0
    1.4273   -6.6079    0.9085 N   0  0  0  0  0  0  0  0  0  0  0  0
    1.8118   -5.5268    0.2932 N   0  0  0  0  0  0  0  0  0  0  0  0
    3.0841   -5.2670    0.6841 N   0  0  0  0  0  0  0  0  0  0  0  0
    3.8343   -4.0949    0.2238 C   0  0  2  0  0  0  0  0  0  0  0  0
    4.1608   -3.1773    1.4340 C   0  0  0  0  0  0  0  0  0  0  0  0
    4.9889   -1.9603    0.9701 C   0  0  1  0  0  0  0  0  0  0  0  0
    6.3076   -2.4516    0.3378 C   0  0  0  0  0  0  0  0  0  0  0  0
    5.9870   -3.3355   -0.8841 C   0  0  2  0  0  0  0  0  0  0  0  0
    5.1840   -2.5274   -1.9228 C   0  0  0  0  0  0  0  0  0  0  0  0
    3.8692   -2.0428   -1.2804 C   0  0  2  0  0  0  0  0  0  0  0  0
    4.1749   -1.1520   -0.0603 C   0  0  0  0  0  0  0  0  0  0  0  0
    3.0429   -3.2585   -0.8255 C   0  0  0  0  0  0  0  0  0  0  0  0
    5.1626   -4.5578   -0.4261 C   0  0  0  0  0  0  0  0  0  0  0  0
    4.3833   -6.3017    2.0291 H   0  0  0  0  0  0  0  0  0  0  0  0
    3.2414   -2.8380    1.9175 H   0  0  0  0  0  0  0  0  0  0  0  0
    4.7221   -3.7238    2.1935 H   0  0  0  0  0  0  0  0  0  0  0  0
    5.2146   -1.3271    1.8295 H   0  0  0  0  0  0  0  0  0  0  0  0
    6.9277   -1.6068    0.0431 H   0  0  0  0  0  0  0  0  0  0  0  0
    6.8835   -3.0201    1.0707 H   0  0  0  0  0  0  0  0  0  0  0  0
    6.9190   -3.6784   -1.3337 H   0  0  0  0  0  0  0  0  0  0  0  0
    5.7694   -1.6796   -2.2762 H   0  0  0  0  0  0  0  0  0  0  0  0
    4.9711   -3.1494   -2.7936 H   0  0  0  0  0  0  0  0  0  0  0  0
    3.2908   -1.4732   -2.0083 H   0  0  0  0  0  0  0  0  0  0  0  0
    3.2386   -0.8129    0.3869 H   0  0  0  0  0  0  0  0  0  0  0  0
    4.7193   -0.2588   -0.3638 H   0  0  0  0  0  0  0  0  0  0  0  0
    2.7868   -3.8546   -1.7032 H   0  0  0  0  0  0  0  0  0  0  0  0
    2.0997   -2.9077   -0.4045 H   0  0  0  0  0  0  0  0  0  0  0  0
    5.7506   -5.1507    0.2768 H   0  0  0  0  0  0  0  0  0  0  0  0
    4.9550   -5.2100   -1.2775 H   0  0  0  0  0  0  0  0  0  0  0  0
  1  5  1  0
  1  2  2  0
  1 16  1  0
  2  3  1  0
  3  4  2  0
  4  5  1  0
  6  5  1  1
  6 14  1  0
  6 15  1  0
  6  7  1  0
  7  8  1  0
  7 17  1  0
  7 18  1  0
  8 13  1  0
  8  9  1  0
  8 19  1  1
  9 10  1  0
  9 20  1  0
  9 21  1  0
 10 11  1  0
 10 15  1  0
 10 22  1  6
 11 12  1  0
 11 23  1  0
 11 24  1  0
 12 13  1  0
 12 14  1  0
 12 25  1  6
 13 26  1  0
 13 27  1  0
 14 28  1  0
 14 29  1  0
 15 30  1  0
 15 31  1  0
M  END
>  <i_m_ct_stereo_status>  (148) 
1

>  <s_m_source_file>  (148) 
/var/tmp/pbs.5076255.sched01/tmp06uo9b_r/40lj_pgbub.sdf

>  <i_m_source_file_index>  (148) 
22

>  <i_lp_mmshare_version>  (148) 
48012

>  <i_f3d_flags>  (148) 
0

>  <s_epik_input>  (148) 
bjFubltjSF1uMUMyM1tDSDJdW0NASF00W0NIMl1bQ0BASF0oW0NIMl0zKVtDSDJdW0NASF0oW0NIMl00KVtDSDJdMg==

>  <s_epik_cmdline>  (148) 
J2VwaWtfcHl0aG9uJywgJy1waHQnLCAnMi4wJywgJy1waCcsICc3LjAnLCAnLXRuJywgJzgnLCAnLW1hJywgJzIwMCcsICctaW1hZScsICc8aW5maWxlLm1hZT4nLCAnLW9tYWUnLCAnPG91dGZpbGUubWFlPic=

>  <r_lp_tautomer_probability>  (148) 
1

>  <r_epik_Ionization_Penalty>  (148) 
2.80797e-08

>  <r_epik_Ionization_Penalty_Charging>  (148) 
0

>  <r_epik_Ionization_Penalty_Neutral>  (148) 
2.80797e-08

>  <r_epik_State_Penalty>  (148) 
-0

>  <r_epik_Charging_Adjusted_Penalty>  (148) 
0

>  <i_epik_Tot_Q>  (148) 
0

>  <i_epik_Tot_abs_Q>  (148) 
0

>  <s_lp_Force_Field>  (148) 
OPLS3e

>  <r_lp_Energy>  (148) 
7.28174

>  <b_lp_Chiralities_Consistent>  (148) 
1

>  <s_lp_Variant>  (148) 
45:0-1

>  <s_i_glide_gridfile>  (148) 
pfpi4k_grid

>  <i_i_glide_lignum>  (148) 
22

>  <i_i_glide_rotatable_bonds>  (148) 
1

>  <r_i_docking_score>  (148) 
-3.45596

>  <r_i_glide_ligand_efficiency>  (148) 
-0.230397

>  <r_i_glide_ligand_efficiency_sa>  (148) 
-0.568209

>  <r_i_glide_ligand_efficiency_ln>  (148) 
-0.932015

>  <r_i_glide_gscore>  (148) 
-3.45596

>  <r_i_glide_lipo>  (148) 
-0.324249

>  <r_i_glide_hbond>  (148) 
0

>  <r_i_glide_metal>  (148) 
-0

>  <r_i_glide_rewards>  (148) 
-2.07633

>  <r_i_glide_evdw>  (148) 
-20.1211

>  <r_i_glide_ecoul>  (148) 
-1.73521

>  <r_i_glide_erotb>  (148) 
0.394182

>  <r_i_glide_esite>  (148) 
-0.183226

>  <r_i_glide_emodel>  (148) 
-26.757

>  <r_i_glide_energy>  (148) 
-21.8563

>  <r_i_glide_einternal>  (148) 
0.158935

>  <r_i_glide_intrahb_reward>  (148) 
-0

>  <i_i_glide_confnum>  (148) 
1

>  <i_i_glide_posenum>  (148) 
16

>  <r_i_glide_eff_state_penalty>  (148) 
0

>  <ligand_id>  (148) 
45

>  <original_smiles>  (148) 
c1nnnn1C12CC3CC(CC(C3)C1)C2

>  <smiles>  (148) 
[H]c1nnnn1C12C([H])([H])C3([H])C([H])([H])C([H])(C([H])([H])C([H])(C3([H])[H])C1([H])[H])C2([H])[H]

$$$$
45:0:2
     RDKit          3D

 31 34  0  0  1  0  0  0  0  0999 V2000
    4.1171   -6.0395    0.9830 C   0  0  0  0  0  0  0  0  0  0  0  0
    3.0976   -6.8224    1.2910 N   0  0  0  0  0  0  0  0  0  0  0  0
    2.0003   -6.0934    0.8725 N   0  0  0  0  0  0  0  0  0  0  0  0
    2.3565   -4.9609    0.3459 N   0  0  0  0  0  0  0  0  0  0  0  0
    3.7119   -4.8875    0.4345 N   0  0  0  0  0  0  0  0  0  0  0  0
    4.4694   -3.7369   -0.0691 C   0  0  2  0  0  0  0  0  0  0  0  0
    5.9063   -3.7461    0.5323 C   0  0  0  0  0  0  0  0  0  0  0  0
    6.7245   -2.5516    0.0192 C   0  0  1  0  0  0  0  0  0  0  0  0
    6.8267   -2.6529   -1.5169 C   0  0  0  0  0  0  0  0  0  0  0  0
    5.4129   -2.5896   -2.1283 C   0  0  2  0  0  0  0  0  0  0  0  0
    4.7254   -1.2675   -1.7210 C   0  0  0  0  0  0  0  0  0  0  0  0
    4.6177   -1.1971   -0.1834 C   0  0  2  0  0  0  0  0  0  0  0  0
    6.0239   -1.2472    0.4466 C   0  0  0  0  0  0  0  0  0  0  0  0
    3.7843   -2.3928    0.3271 C   0  0  0  0  0  0  0  0  0  0  0  0
    4.5814   -3.7860   -1.6157 C   0  0  0  0  0  0  0  0  0  0  0  0
    5.1536   -6.3077    1.1597 H   0  0  0  0  0  0  0  0  0  0  0  0
    5.8621   -3.7247    1.6236 H   0  0  0  0  0  0  0  0  0  0  0  0
    6.4383   -4.6557    0.2495 H   0  0  0  0  0  0  0  0  0  0  0  0
    7.7223   -2.5938    0.4577 H   0  0  0  0  0  0  0  0  0  0  0  0
    7.4447   -1.8601   -1.9103 H   0  0  0  0  0  0  0  0  0  0  0  0
    7.3230   -3.5779   -1.8060 H   0  0  0  0  0  0  0  0  0  0  0  0
    5.4882   -2.6427   -3.2140 H   0  0  0  0  0  0  0  0  0  0  0  0
    5.2857   -0.4121   -2.0978 H   0  0  0  0  0  0  0  0  0  0  0  0
    3.7319   -1.2049   -2.1682 H   0  0  0  0  0  0  0  0  0  0  0  0
    4.1231   -0.2685    0.1034 H   0  0  0  0  0  0  0  0  0  0  0  0
    5.9436   -1.2102    1.5345 H   0  0  0  0  0  0  0  0  0  0  0  0
    6.6112   -0.3803    0.1486 H   0  0  0  0  0  0  0  0  0  0  0  0
    2.7787   -2.3242   -0.0926 H   0  0  0  0  0  0  0  0  0  0  0  0
    3.6682   -2.3326    1.4100 H   0  0  0  0  0  0  0  0  0  0  0  0
    5.0346   -4.7255   -1.9325 H   0  0  0  0  0  0  0  0  0  0  0  0
    3.5890   -3.7662   -2.0688 H   0  0  0  0  0  0  0  0  0  0  0  0
  1  5  1  0
  1  2  2  0
  1 16  1  0
  2  3  1  0
  3  4  2  0
  4  5  1  0
  6  5  1  1
  6 14  1  0
  6 15  1  0
  6  7  1  0
  7  8  1  0
  7 17  1  0
  7 18  1  0
  8 13  1  0
  8  9  1  0
  8 19  1  1
  9 10  1  0
  9 20  1  0
  9 21  1  0
 10 11  1  0
 10 15  1  0
 10 22  1  6
 11 12  1  0
 11 23  1  0
 11 24  1  0
 12 13  1  0
 12 14  1  0
 12 25  1  6
 13 26  1  0
 13 27  1  0
 14 28  1  0
 14 29  1  0
 15 30  1  0
 15 31  1  0
M  END
>  <i_m_ct_stereo_status>  (149) 
1

>  <s_m_source_file>  (149) 
/var/tmp/pbs.5076255.sched01/tmp06uo9b_r/40lj_pgbub.sdf

>  <i_m_source_file_index>  (149) 
22

>  <i_lp_mmshare_version>  (149) 
48012

>  <i_f3d_flags>  (149) 
0

>  <s_epik_input>  (149) 
bjFubltjSF1uMUMyM1tDSDJdW0NASF00W0NIMl1bQ0BASF0oW0NIMl0zKVtDSDJdW0NASF0oW0NIMl00KVtDSDJdMg==

>  <s_epik_cmdline>  (149) 
J2VwaWtfcHl0aG9uJywgJy1waHQnLCAnMi4wJywgJy1waCcsICc3LjAnLCAnLXRuJywgJzgnLCAnLW1hJywgJzIwMCcsICctaW1hZScsICc8aW5maWxlLm1hZT4nLCAnLW9tYWUnLCAnPG91dGZpbGUubWFlPic=

>  <r_lp_tautomer_probability>  (149) 
1

>  <r_epik_Ionization_Penalty>  (149) 
2.80797e-08

>  <r_epik_Ionization_Penalty_Charging>  (149) 
0

>  <r_epik_Ionization_Penalty_Neutral>  (149) 
2.80797e-08

>  <r_epik_State_Penalty>  (149) 
-0

>  <r_epik_Charging_Adjusted_Penalty>  (149) 
0

>  <i_epik_Tot_Q>  (149) 
0

>  <i_epik_Tot_abs_Q>  (149) 
0

>  <s_lp_Force_Field>  (149) 
OPLS3e

>  <r_lp_Energy>  (149) 
7.28174

>  <b_lp_Chiralities_Consistent>  (149) 
1

>  <s_lp_Variant>  (149) 
45:0-1

>  <s_i_glide_gridfile>  (149) 
pfpi4k_grid

>  <i_i_glide_lignum>  (149) 
22

>  <i_i_glide_rotatable_bonds>  (149) 
1

>  <r_i_docking_score>  (149) 
-3.31212

>  <r_i_glide_ligand_efficiency>  (149) 
-0.220808

>  <r_i_glide_ligand_efficiency_sa>  (149) 
-0.544559

>  <r_i_glide_ligand_efficiency_ln>  (149) 
-0.893223

>  <r_i_glide_gscore>  (149) 
-3.31212

>  <r_i_glide_lipo>  (149) 
-0.294238

>  <r_i_glide_hbond>  (149) 
0

>  <r_i_glide_metal>  (149) 
-0

>  <r_i_glide_rewards>  (149) 
-2.12273

>  <r_i_glide_evdw>  (149) 
-22.0821

>  <r_i_glide_ecoul>  (149) 
-0.571942

>  <r_i_glide_erotb>  (149) 
0.394182

>  <r_i_glide_esite>  (149) 
-0.0994368

>  <r_i_glide_emodel>  (149) 
-27.2648

>  <r_i_glide_energy>  (149) 
-22.6541

>  <r_i_glide_einternal>  (149) 
0.164092

>  <r_i_glide_intrahb_reward>  (149) 
-0

>  <i_i_glide_confnum>  (149) 
1

>  <i_i_glide_posenum>  (149) 
7

>  <r_i_glide_eff_state_penalty>  (149) 
0

>  <ligand_id>  (149) 
45

>  <original_smiles>  (149) 
c1nnnn1C12CC3CC(CC(C3)C1)C2

>  <smiles>  (149) 
[H]c1nnnn1C12C([H])([H])C3([H])C([H])([H])C([H])(C([H])([H])C([H])(C3([H])[H])C1([H])[H])C2([H])[H]

$$$$
46:3:0
     RDKit          3D

 85 91  0  0  1  0  0  0  0  0999 V2000
    3.4708    0.1414    3.7721 C   0  0  0  0  0  0  0  0  0  0  0  0
    4.7116   -0.0463    3.1372 O   0  0  0  0  0  0  0  0  0  0  0  0
    5.1397   -1.2724    2.7144 C   0  0  0  0  0  0  0  0  0  0  0  0
    6.1993   -1.4174    2.1062 O   0  0  0  0  0  0  0  0  0  0  0  0
    4.2688   -2.4228    3.0089 C   0  0  0  0  0  0  0  0  0  0  0  0
    2.9738   -2.4453    2.7105 C   0  0  0  0  0  0  0  0  0  0  0  0
    2.4337   -3.8763    2.8632 C   0  0  2  0  0  0  0  0  0  0  0  0
    1.6913   -4.0607    4.0939 C   0  0  1  0  0  0  0  0  0  0  0  0
    0.5552   -3.2204    4.1028 O   0  0  0  0  0  0  0  0  0  0  0  0
    1.3082   -5.5141    4.2055 C   0  0  1  0  0  0  0  0  0  0  0  0
    0.8609   -6.4651    3.0920 C   0  0  1  0  0  0  0  0  0  0  0  0
    1.6105   -6.7835    1.6943 C   0  0  1  0  0  0  0  0  0  0  0  0
    0.5729   -7.3315    0.9108 O   0  0  0  0  0  0  0  0  0  0  0  0
    2.2582   -5.7161    0.7346 C   0  0  0  0  0  0  0  0  0  0  0  0
    3.6231   -4.9699    1.1167 C   0  0  1  0  0  0  0  0  0  0  0  0
    4.0084   -3.8066    0.1657 C   0  0  0  0  0  0  0  0  0  0  0  0
    3.0450   -3.0572   -0.5380 C   0  0  0  0  0  0  0  0  0  0  0  0
    3.4042   -2.0214   -1.4123 C   0  0  0  0  0  0  0  0  0  0  0  0
    4.7601   -1.7058   -1.5759 C   0  0  0  0  0  0  0  0  0  0  0  0
    5.7508   -2.4358   -0.8906 C   0  0  0  0  0  0  0  0  0  0  0  0
    7.0475   -2.0145   -1.1130 O   0  0  0  0  0  0  0  0  0  0  0  0
    8.1108   -2.6930   -0.4668 C   0  0  0  0  0  0  0  0  0  0  0  0
    5.3771   -3.4875   -0.0297 C   0  0  0  0  0  0  0  0  0  0  0  0
    3.7443   -4.7409    2.6954 C   0  0  2  0  0  0  0  0  0  0  0  0
    4.2304   -6.1821    3.1352 C   0  0  0  0  0  0  0  0  0  0  0  0
    5.3181   -6.5679    2.6696 O   0  0  0  0  0  0  0  0  0  0  0  0
    3.6291   -7.0812    4.2311 C   0  0  1  0  0  0  0  0  0  0  0  0
    3.5508   -8.3469    3.6333 O   0  0  0  0  0  0  0  0  0  0  0  0
    4.7525   -7.4337    5.3168 C   0  0  1  0  0  0  0  0  0  0  0  0
    5.7906   -8.5472    4.9930 C   0  0  0  0  0  0  0  0  0  0  0  0
    5.5140   -6.1770    5.7237 C   0  0  0  0  0  0  0  0  0  0  0  0
    6.7309   -6.1442    5.8356 O   0  0  0  0  0  0  0  0  0  0  0  0
    4.7032   -4.9345    5.9152 C   0  0  1  0  0  0  0  0  0  0  0  0
    4.8861   -3.7924    4.8834 C   0  0  0  0  0  0  0  0  0  0  0  0
    5.4220   -2.5692    5.6485 C   0  0  0  0  0  0  0  0  0  0  0  0
    4.5838   -3.7282    3.5228 C   0  0  0  0  0  0  0  0  0  0  0  0
    3.4199   -5.2306    6.7046 N   0  0  1  0  0  0  0  0  0  0  0  0
    2.8721   -4.0518    7.5036 C   0  0  0  0  0  0  0  0  0  0  0  0
    2.3716   -6.2896    6.2954 C   0  0  0  0  0  0  0  0  0  0  0  0
    2.2045   -6.6385    4.8014 C   0  0  1  0  0  0  0  0  0  0  0  0
    0.9232   -7.5207    4.2681 C   0  0  0  0  0  0  0  0  0  0  0  0
   -0.3121   -7.6387    5.2234 C   0  0  0  0  0  0  0  0  0  0  0  0
    0.9490   -8.9920    3.8027 C   0  0  0  0  0  0  0  0  0  0  0  0
    3.4266    1.1389    4.2877 H   0  0  0  0  0  0  0  0  0  0  0  0
    3.3141   -0.5713    4.5572 H   0  0  0  0  0  0  0  0  0  0  0  0
    2.7167   -0.0484    3.0132 H   0  0  0  0  0  0  0  0  0  0  0  0
    2.4845   -1.6428    2.2266 H   0  0  0  0  0  0  0  0  0  0  0  0
    1.6886   -3.9022    2.0752 H   0  0  0  0  0  0  0  0  0  0  0  0
    2.2804   -3.7393    4.9356 H   0  0  0  0  0  0  0  0  0  0  0  0
    0.8397   -2.3208    3.9424 H   0  0  0  0  0  0  0  0  0  0  0  0
    0.4238   -5.3678    4.8305 H   0  0  0  0  0  0  0  0  0  0  0  0
   -0.1676   -6.2324    2.9040 H   0  0  0  0  0  0  0  0  0  0  0  0
    2.3495   -7.5666    1.7727 H   0  0  0  0  0  0  0  0  0  0  0  0
    0.5550   -8.2800    1.0354 H   0  0  0  0  0  0  0  0  0  0  0  0
    2.4664   -6.1978   -0.2162 H   0  0  0  0  0  0  0  0  0  0  0  0
    1.4460   -5.0504    0.4550 H   0  0  0  0  0  0  0  0  0  0  0  0
    4.3713   -5.6900    0.7805 H   0  0  0  0  0  0  0  0  0  0  0  0
    1.9726   -3.2179   -0.4405 H   0  0  0  0  0  0  0  0  0  0  0  0
    2.6420   -1.4650   -1.9257 H   0  0  0  0  0  0  0  0  0  0  0  0
    5.0332   -0.8712   -2.2202 H   0  0  0  0  0  0  0  0  0  0  0  0
    9.0484   -2.2351   -0.7741 H   0  0  0  0  0  0  0  0  0  0  0  0
    8.1431   -3.7424   -0.7578 H   0  0  0  0  0  0  0  0  0  0  0  0
    8.0557   -2.6060    0.6182 H   0  0  0  0  0  0  0  0  0  0  0  0
    6.1196   -4.0518    0.5326 H   0  0  0  0  0  0  0  0  0  0  0  0
    3.2433   -8.9746    4.2927 H   0  0  0  0  0  0  0  0  0  0  0  0
    4.2999   -7.8016    6.2347 H   0  0  0  0  0  0  0  0  0  0  0  0
    6.4927   -8.6678    5.8127 H   0  0  0  0  0  0  0  0  0  0  0  0
    6.3731   -8.3406    4.0952 H   0  0  0  0  0  0  0  0  0  0  0  0
    5.3202   -9.5201    4.8751 H   0  0  0  0  0  0  0  0  0  0  0  0
    5.2433   -4.5120    6.7485 H   0  0  0  0  0  0  0  0  0  0  0  0
    5.1584   -1.5860    5.2756 H   0  0  0  0  0  0  0  0  0  0  0  0
    6.5090   -2.6377    5.6857 H   0  0  0  0  0  0  0  0  0  0  0  0
    5.0957   -2.5278    6.6882 H   0  0  0  0  0  0  0  0  0  0  0  0
    2.6036   -3.2072    6.8939 H   0  0  0  0  0  0  0  0  0  0  0  0
    3.6309   -3.7282    8.2033 H   0  0  0  0  0  0  0  0  0  0  0  0
    2.0110   -4.3552    8.0862 H   0  0  0  0  0  0  0  0  0  0  0  0
    2.5572   -7.1831    6.8681 H   0  0  0  0  0  0  0  0  0  0  0  0
    1.4467   -5.9485    6.7034 H   0  0  0  0  0  0  0  0  0  0  0  0
   -0.1543   -8.4590    5.9242 H   0  0  0  0  0  0  0  0  0  0  0  0
   -1.2240   -7.8832    4.6748 H   0  0  0  0  0  0  0  0  0  0  0  0
   -0.5482   -6.7884    5.8425 H   0  0  0  0  0  0  0  0  0  0  0  0
    1.4179   -9.6362    4.5448 H   0  0  0  0  0  0  0  0  0  0  0  0
    1.4403   -9.1486    2.8576 H   0  0  0  0  0  0  0  0  0  0  0  0
   -0.0524   -9.3970    3.6230 H   0  0  0  0  0  0  0  0  0  0  0  0
    3.8193   -5.7351    7.4749 H   0  0  0  0  0  0  0  0  0  0  0  0
  1  2  1  0
  1 44  1  0
  1 45  1  0
  1 46  1  0
  2  3  1  0
  3  4  2  0
  3  5  1  0
  5 36  1  0
  5  6  2  0
  6  7  1  0
  6 47  1  0
  7 24  1  0
  7  8  1  0
  7 48  1  6
  8  9  1  0
  8 10  1  0
  8 49  1  1
  9 50  1  0
 10 40  1  0
 10 11  1  0
 10 51  1  1
 11 41  1  0
 11 12  1  0
 11 52  1  6
 12 13  1  0
 12 14  1  0
 12 53  1  1
 13 54  1  0
 14 15  1  0
 14 55  1  0
 14 56  1  0
 15 16  1  0
 15 24  1  0
 15 57  1  6
 16 23  1  0
 16 17  2  0
 17 18  1  0
 17 58  1  0
 18 19  2  0
 18 59  1  0
 19 20  1  0
 19 60  1  0
 20 21  1  0
 20 23  2  0
 21 22  1  0
 22 61  1  0
 22 62  1  0
 22 63  1  0
 23 64  1  0
 24 36  1  0
 24 25  1  1
 25 26  2  0
 25 27  1  0
 27 40  1  0
 27 28  1  6
 27 29  1  0
 28 65  1  0
 29 30  1  0
 29 31  1  0
 29 66  1  1
 30 67  1  0
 30 68  1  0
 30 69  1  0
 31 32  2  0
 31 33  1  0
 33 34  1  0
 33 37  1  0
 33 70  1  1
 34 35  1  0
 34 36  2  3
 35 71  1  0
 35 72  1  0
 35 73  1  0
 37 38  1  0
 37 39  1  0
 37 85  1  1
 38 74  1  0
 38 75  1  0
 38 76  1  0
 40 39  1  1
 39 77  1  0
 39 78  1  0
 40 41  1  0
 41 42  1  0
 41 43  1  0
 42 79  1  0
 42 80  1  0
 42 81  1  0
 43 82  1  0
 43 83  1  0
 43 84  1  0
M  CHG  1  37   1
M  END
>  <i_m_ct_stereo_status>  (150) 
1

>  <s_m_source_file>  (150) 
/var/tmp/pbs.5076255.sched01/tmp06uo9b_r/40lj_pgbub.sdf

>  <i_m_source_file_index>  (150) 
26

>  <i_lp_mmshare_version>  (150) 
48012

>  <i_f3d_flags>  (150) 
2

>  <s_epik_input>  (150) 
W0NIM11PQyg9TylDKD1bQ0hdW0NASF0xW0NAXTIzNClcQzQ9QyhbQ0gzXSlcW0NASF01Qyg9TylbQ0BIXShbQ0gzXSlbQ0BdKEMzPU8pKFtPSF0pW0NAXTYoW0NIMl1ONVtDSDNdKVtDQEBIXShbQ0BASF0xW09IXSlbQ0BIXShDNihbQ0gzXSlbQ0gzXSlbQ0BASF0oW09IXSlbQ0gyXVtDQEhdMmM3W2NIXVtjSF1bY0hdYyhbY0hdNylPW0NIM10=

>  <s_epik_cmdline>  (150) 
J2VwaWtfcHl0aG9uJywgJy1waHQnLCAnMi4wJywgJy1waCcsICc3LjAnLCAnLXRuJywgJzgnLCAnLW1hJywgJzIwMCcsICctaW1hZScsICc8aW5maWxlLm1hZT4nLCAnLW9tYWUnLCAnPG91dGZpbGUubWFlPic=

>  <r_lp_tautomer_probability>  (150) 
1

>  <r_epik_Ionization_Penalty>  (150) 
1.99285

>  <r_epik_Ionization_Penalty_Charging>  (150) 
1.99275

>  <r_epik_Ionization_Penalty_Neutral>  (150) 
0.000107623

>  <r_epik_State_Penalty>  (150) 
2.1209

>  <r_epik_Charging_Adjusted_Penalty>  (150) 
4.11365

>  <i_epik_Tot_Q>  (150) 
1

>  <i_epik_Tot_abs_Q>  (150) 
1

>  <s_epik_Chemistry_Notes>  (150) 
This compound has an ester and may undergo hydrolysis at high or low pH.

>  <s_lp_Force_Field>  (150) 
OPLS3e

>  <r_lp_Energy>  (150) 
267.1

>  <b_lp_Chiralities_Consistent>  (150) 
0

>  <s_lp_Variant>  (150) 
46:0-4

>  <s_i_glide_gridfile>  (150) 
pfpi4k_grid

>  <i_i_glide_lignum>  (150) 
26

>  <i_i_glide_rotatable_bonds>  (150) 
7

>  <r_i_docking_score>  (150) 
-2.72886

>  <r_i_glide_ligand_efficiency>  (150) 
-0.0634619

>  <r_i_glide_ligand_efficiency_sa>  (150) 
-0.222332

>  <r_i_glide_ligand_efficiency_ln>  (150) 
-0.573146

>  <r_i_glide_gscore>  (150) 
-2.72886

>  <r_i_glide_lipo>  (150) 
-0.123018

>  <r_i_glide_hbond>  (150) 
-0.313802

>  <r_i_glide_metal>  (150) 
-0

>  <r_i_glide_rewards>  (150) 
-0.140382

>  <r_i_glide_evdw>  (150) 
-27.9801

>  <r_i_glide_ecoul>  (150) 
-5.07581

>  <r_i_glide_erotb>  (150) 
0.00871342

>  <r_i_glide_esite>  (150) 
0

>  <r_i_glide_emodel>  (150) 
-30.3869

>  <r_i_glide_energy>  (150) 
-33.0559

>  <r_i_glide_einternal>  (150) 
12.2819

>  <r_i_glide_intrahb_reward>  (150) 
-0

>  <i_i_glide_confnum>  (150) 
4

>  <i_i_glide_posenum>  (150) 
5

>  <r_i_glide_eff_state_penalty>  (150) 
0

>  <ligand_id>  (150) 
46

>  <original_smiles>  (150) 
COC(=O)C1=CC2C(O)C3C4C(O)CC(c5cccc(OC)c5)C25C(=O)C2(O)C(C)C(=O)C(C(C)=C15)N(C)CC32C4(C)C

>  <smiles>  (150) 
[H]OC1([H])C([H])([H])C([H])(c2c([H])c([H])c([H])c(OC([H])([H])[H])c2[H])C23C(=O)C4(O[H])C([H])(C([H])([H])[H])C(=O)C5([H])C(C([H])([H])[H])=C2C(C(=O)OC([H])([H])[H])=C([H])C3([H])C([H])(O[H])C2([H])C1([H])C(C([H])([H])[H])(C([H])([H])[H])C42C([H])([H])[N+]5([H])C([H])([H])[H]

$$$$
46:3:1
     RDKit          3D

 85 91  0  0  1  0  0  0  0  0999 V2000
    4.7575   -9.2011    8.3612 C   0  0  0  0  0  0  0  0  0  0  0  0
    4.6069   -8.5874    7.0946 O   0  0  0  0  0  0  0  0  0  0  0  0
    4.5157   -9.3432    5.9893 C   0  0  0  0  0  0  0  0  0  0  0  0
    4.4867  -10.5789    5.9911 O   0  0  0  0  0  0  0  0  0  0  0  0
    4.4671   -8.5417    4.7547 C   0  0  0  0  0  0  0  0  0  0  0  0
    4.2682   -8.9876    3.5189 C   0  0  0  0  0  0  0  0  0  0  0  0
    3.8798   -7.8568    2.5696 C   0  0  2  0  0  0  0  0  0  0  0  0
    4.9648   -7.4880    1.6670 C   0  0  1  0  0  0  0  0  0  0  0  0
    5.2325   -8.5928    0.8295 O   0  0  0  0  0  0  0  0  0  0  0  0
    4.5812   -6.2556    0.8943 C   0  0  1  0  0  0  0  0  0  0  0  0
    3.2263   -5.8812    0.3108 C   0  0  1  0  0  0  0  0  0  0  0  0
    1.7882   -5.8902    1.0012 C   0  0  1  0  0  0  0  0  0  0  0  0
    0.8743   -5.8662   -0.0782 O   0  0  0  0  0  0  0  0  0  0  0  0
    1.2445   -6.9757    2.0262 C   0  0  0  0  0  0  0  0  0  0  0  0
    1.8451   -7.0776    3.5130 C   0  0  1  0  0  0  0  0  0  0  0  0
    1.3503   -8.2884    4.3080 C   0  0  0  0  0  0  0  0  0  0  0  0
    1.2297   -9.5518    3.6743 C   0  0  0  0  0  0  0  0  0  0  0  0
    0.8031  -10.6658    4.3945 C   0  0  0  0  0  0  0  0  0  0  0  0
    0.4538  -10.5101    5.7379 C   0  0  0  0  0  0  0  0  0  0  0  0
    0.5444   -9.2766    6.4118 C   0  0  0  0  0  0  0  0  0  0  0  0
    0.1616   -9.2706    7.7409 O   0  0  0  0  0  0  0  0  0  0  0  0
    0.2876   -8.0676    8.4796 C   0  0  0  0  0  0  0  0  0  0  0  0
    1.0008   -8.1554    5.6811 C   0  0  0  0  0  0  0  0  0  0  0  0
    3.4097   -6.7268    3.5575 C   0  0  2  0  0  0  0  0  0  0  0  0
    3.2995   -5.1658    3.5630 C   0  0  0  0  0  0  0  0  0  0  0  0
    2.6875   -4.6566    4.5055 O   0  0  0  0  0  0  0  0  0  0  0  0
    4.0282   -4.1570    2.6583 C   0  0  1  0  0  0  0  0  0  0  0  0
    3.0406   -3.2335    2.2777 O   0  0  0  0  0  0  0  0  0  0  0  0
    4.8996   -3.1588    3.5464 C   0  0  1  0  0  0  0  0  0  0  0  0
    4.2080   -1.9331    4.2315 C   0  0  0  0  0  0  0  0  0  0  0  0
    5.6503   -3.9535    4.6054 C   0  0  0  0  0  0  0  0  0  0  0  0
    5.7510   -3.5652    5.7674 O   0  0  0  0  0  0  0  0  0  0  0  0
    6.3212   -5.2151    4.1052 C   0  0  1  0  0  0  0  0  0  0  0  0
    5.7545   -6.5386    4.7310 C   0  0  0  0  0  0  0  0  0  0  0  0
    6.8918   -7.2090    5.5378 C   0  0  0  0  0  0  0  0  0  0  0  0
    4.4942   -7.1051    4.6212 C   0  0  0  0  0  0  0  0  0  0  0  0
    6.9437   -5.0777    2.7257 N   0  0  1  0  0  0  0  0  0  0  0  0
    8.1061   -5.9991    2.4833 C   0  0  0  0  0  0  0  0  0  0  0  0
    6.2565   -4.5624    1.5052 C   0  0  0  0  0  0  0  0  0  0  0  0
    4.7263   -4.7720    1.3601 C   0  0  1  0  0  0  0  0  0  0  0  0
    3.9433   -4.5269   -0.0559 C   0  0  0  0  0  0  0  0  0  0  0  0
    4.8312   -4.4012   -1.3347 C   0  0  0  0  0  0  0  0  0  0  0  0
    2.9902   -3.3538   -0.4081 C   0  0  0  0  0  0  0  0  0  0  0  0
    4.8675   -8.4398    9.1332 H   0  0  0  0  0  0  0  0  0  0  0  0
    5.6442   -9.8411    8.4007 H   0  0  0  0  0  0  0  0  0  0  0  0
    3.8821   -9.8063    8.6055 H   0  0  0  0  0  0  0  0  0  0  0  0
    4.1171  -10.0204    3.2626 H   0  0  0  0  0  0  0  0  0  0  0  0
    3.1505   -8.3305    1.9302 H   0  0  0  0  0  0  0  0  0  0  0  0
    5.8716   -7.3264    2.2171 H   0  0  0  0  0  0  0  0  0  0  0  0
    5.5108   -9.3261    1.3582 H   0  0  0  0  0  0  0  0  0  0  0  0
    5.2266   -6.4159    0.0324 H   0  0  0  0  0  0  0  0  0  0  0  0
    3.2335   -6.4601   -0.5847 H   0  0  0  0  0  0  0  0  0  0  0  0
    1.6113   -4.9526    1.5010 H   0  0  0  0  0  0  0  0  0  0  0  0
    1.2692   -5.4115   -0.7978 H   0  0  0  0  0  0  0  0  0  0  0  0
    0.1799   -6.7804    2.1592 H   0  0  0  0  0  0  0  0  0  0  0  0
    1.2067   -7.9302    1.5026 H   0  0  0  0  0  0  0  0  0  0  0  0
    1.2423   -6.3248    4.0206 H   0  0  0  0  0  0  0  0  0  0  0  0
    1.4846   -9.7118    2.6410 H   0  0  0  0  0  0  0  0  0  0  0  0
    0.7181  -11.6413    3.9332 H   0  0  0  0  0  0  0  0  0  0  0  0
    0.0484  -11.3661    6.2454 H   0  0  0  0  0  0  0  0  0  0  0  0
   -0.0494   -8.2347    9.5075 H   0  0  0  0  0  0  0  0  0  0  0  0
   -0.3375   -7.2812    8.0600 H   0  0  0  0  0  0  0  0  0  0  0  0
    1.3228   -7.7314    8.5186 H   0  0  0  0  0  0  0  0  0  0  0  0
    1.0766   -7.1874    6.1637 H   0  0  0  0  0  0  0  0  0  0  0  0
    3.4212   -2.5627    1.7328 H   0  0  0  0  0  0  0  0  0  0  0  0
    5.6517   -2.6648    2.9398 H   0  0  0  0  0  0  0  0  0  0  0  0
    4.9272   -1.3307    4.7906 H   0  0  0  0  0  0  0  0  0  0  0  0
    3.4270   -2.2184    4.9350 H   0  0  0  0  0  0  0  0  0  0  0  0
    3.7684   -1.2391    3.5146 H   0  0  0  0  0  0  0  0  0  0  0  0
    7.2410   -5.1385    4.6774 H   0  0  0  0  0  0  0  0  0  0  0  0
    6.8636   -8.2937    5.5495 H   0  0  0  0  0  0  0  0  0  0  0  0
    6.8652   -6.8600    6.5661 H   0  0  0  0  0  0  0  0  0  0  0  0
    7.8814   -6.9900    5.1555 H   0  0  0  0  0  0  0  0  0  0  0  0
    7.8995   -7.0658    2.5271 H   0  0  0  0  0  0  0  0  0  0  0  0
    8.8848   -5.8344    3.2370 H   0  0  0  0  0  0  0  0  0  0  0  0
    8.6158   -5.8168    1.5313 H   0  0  0  0  0  0  0  0  0  0  0  0
    6.5091   -3.5122    1.3680 H   0  0  0  0  0  0  0  0  0  0  0  0
    6.7634   -4.9778    0.6365 H   0  0  0  0  0  0  0  0  0  0  0  0
    5.2575   -3.4102   -1.4529 H   0  0  0  0  0  0  0  0  0  0  0  0
    4.2961   -4.5552   -2.2697 H   0  0  0  0  0  0  0  0  0  0  0  0
    5.6830   -5.0535   -1.3563 H   0  0  0  0  0  0  0  0  0  0  0  0
    3.4458   -2.3881   -0.2028 H   0  0  0  0  0  0  0  0  0  0  0  0
    2.0413   -3.3791    0.1140 H   0  0  0  0  0  0  0  0  0  0  0  0
    2.6759   -3.3429   -1.4519 H   0  0  0  0  0  0  0  0  0  0  0  0
    7.5136   -4.2842    2.8793 H   0  0  0  0  0  0  0  0  0  0  0  0
  1  2  1  0
  1 44  1  0
  1 45  1  0
  1 46  1  0
  2  3  1  0
  3  4  2  0
  3  5  1  0
  5 36  1  0
  5  6  2  0
  6  7  1  0
  6 47  1  0
  7 24  1  0
  7  8  1  0
  7 48  1  6
  8  9  1  0
  8 10  1  0
  8 49  1  1
  9 50  1  0
 10 40  1  0
 10 11  1  0
 10 51  1  6
 11 41  1  0
 11 12  1  0
 11 52  1  6
 12 13  1  0
 12 14  1  0
 12 53  1  1
 13 54  1  0
 14 15  1  0
 14 55  1  0
 14 56  1  0
 15 16  1  0
 15 24  1  0
 15 57  1  1
 16 23  1  0
 16 17  2  0
 17 18  1  0
 17 58  1  0
 18 19  2  0
 18 59  1  0
 19 20  1  0
 19 60  1  0
 20 21  1  0
 20 23  2  0
 21 22  1  0
 22 61  1  0
 22 62  1  0
 22 63  1  0
 23 64  1  0
 24 36  1  0
 24 25  1  6
 25 26  2  0
 25 27  1  0
 27 40  1  0
 27 28  1  6
 27 29  1  0
 28 65  1  0
 29 30  1  0
 29 31  1  0
 29 66  1  6
 30 67  1  0
 30 68  1  0
 30 69  1  0
 31 32  2  0
 31 33  1  0
 33 34  1  0
 33 37  1  0
 33 70  1  1
 34 35  1  0
 34 36  2  3
 35 71  1  0
 35 72  1  0
 35 73  1  0
 37 38  1  0
 37 39  1  0
 37 85  1  1
 38 74  1  0
 38 75  1  0
 38 76  1  0
 40 39  1  6
 39 77  1  0
 39 78  1  0
 40 41  1  0
 41 42  1  0
 41 43  1  0
 42 79  1  0
 42 80  1  0
 42 81  1  0
 43 82  1  0
 43 83  1  0
 43 84  1  0
M  CHG  1  37   1
M  END
>  <i_m_ct_stereo_status>  (151) 
1

>  <s_m_source_file>  (151) 
/var/tmp/pbs.5076255.sched01/tmp06uo9b_r/40lj_pgbub.sdf

>  <i_m_source_file_index>  (151) 
26

>  <i_lp_mmshare_version>  (151) 
48012

>  <i_f3d_flags>  (151) 
2

>  <s_epik_input>  (151) 
W0NIM11PQyg9TylDKD1bQ0hdW0NASF0xW0NAXTIzNClcQzQ9QyhbQ0gzXSlcW0NASF01Qyg9TylbQ0BIXShbQ0gzXSlbQ0BdKEMzPU8pKFtPSF0pW0NAXTYoW0NIMl1ONVtDSDNdKVtDQEBIXShbQ0BASF0xW09IXSlbQ0BIXShDNihbQ0gzXSlbQ0gzXSlbQ0BASF0oW09IXSlbQ0gyXVtDQEhdMmM3W2NIXVtjSF1bY0hdYyhbY0hdNylPW0NIM10=

>  <s_epik_cmdline>  (151) 
J2VwaWtfcHl0aG9uJywgJy1waHQnLCAnMi4wJywgJy1waCcsICc3LjAnLCAnLXRuJywgJzgnLCAnLW1hJywgJzIwMCcsICctaW1hZScsICc8aW5maWxlLm1hZT4nLCAnLW9tYWUnLCAnPG91dGZpbGUubWFlPic=

>  <r_lp_tautomer_probability>  (151) 
1

>  <r_epik_Ionization_Penalty>  (151) 
1.99285

>  <r_epik_Ionization_Penalty_Charging>  (151) 
1.99275

>  <r_epik_Ionization_Penalty_Neutral>  (151) 
0.000107623

>  <r_epik_State_Penalty>  (151) 
2.1209

>  <r_epik_Charging_Adjusted_Penalty>  (151) 
4.11365

>  <i_epik_Tot_Q>  (151) 
1

>  <i_epik_Tot_abs_Q>  (151) 
1

>  <s_epik_Chemistry_Notes>  (151) 
This compound has an ester and may undergo hydrolysis at high or low pH.

>  <s_lp_Force_Field>  (151) 
OPLS3e

>  <r_lp_Energy>  (151) 
267.1

>  <b_lp_Chiralities_Consistent>  (151) 
0

>  <s_lp_Variant>  (151) 
46:0-4

>  <s_i_glide_gridfile>  (151) 
pfpi4k_grid

>  <i_i_glide_lignum>  (151) 
26

>  <i_i_glide_rotatable_bonds>  (151) 
7

>  <r_i_docking_score>  (151) 
-2.24635

>  <r_i_glide_ligand_efficiency>  (151) 
-0.0522408

>  <r_i_glide_ligand_efficiency_sa>  (151) 
-0.18302

>  <r_i_glide_ligand_efficiency_ln>  (151) 
-0.471804

>  <r_i_glide_gscore>  (151) 
-2.24635

>  <r_i_glide_lipo>  (151) 
-0.347187

>  <r_i_glide_hbond>  (151) 
-0.475328

>  <r_i_glide_metal>  (151) 
-0

>  <r_i_glide_rewards>  (151) 
-0.00969107

>  <r_i_glide_evdw>  (151) 
-9.45576

>  <r_i_glide_ecoul>  (151) 
-6.30919

>  <r_i_glide_erotb>  (151) 
0.00871342

>  <r_i_glide_esite>  (151) 
-0.00369522

>  <r_i_glide_emodel>  (151) 
-18.7422

>  <r_i_glide_energy>  (151) 
-15.7649

>  <r_i_glide_einternal>  (151) 
1.74776

>  <r_i_glide_intrahb_reward>  (151) 
-0

>  <i_i_glide_confnum>  (151) 
6

>  <i_i_glide_posenum>  (151) 
8

>  <r_i_glide_eff_state_penalty>  (151) 
0

>  <ligand_id>  (151) 
46

>  <original_smiles>  (151) 
COC(=O)C1=CC2C(O)C3C4C(O)CC(c5cccc(OC)c5)C25C(=O)C2(O)C(C)C(=O)C(C(C)=C15)N(C)CC32C4(C)C

>  <smiles>  (151) 
[H]OC1([H])C([H])([H])C([H])(c2c([H])c([H])c([H])c(OC([H])([H])[H])c2[H])C23C(=O)C4(O[H])C([H])(C([H])([H])[H])C(=O)C5([H])C(C([H])([H])[H])=C2C(C(=O)OC([H])([H])[H])=C([H])C3([H])C([H])(O[H])C2([H])C1([H])C(C([H])([H])[H])(C([H])([H])[H])C42C([H])([H])[N+]5([H])C([H])([H])[H]

$$$$
47:0:0
     RDKit          3D

 56 60  0  0  1  0  0  0  0  0999 V2000
    3.2831   -3.0820   -3.0562 C   0  0  0  0  0  0  0  0  0  0  0  0
    4.5057   -2.8433   -2.1133 C   0  0  0  0  0  0  0  0  0  0  0  0
    5.7471   -3.3005   -2.8986 C   0  0  0  0  0  0  0  0  0  0  0  0
    4.7107   -1.3579   -1.7831 C   0  0  0  0  0  0  0  0  0  0  0  0
    4.2026   -0.6091   -2.6429 O   0  0  0  0  0  0  0  0  0  0  0  0
    5.4200   -1.0532   -0.6434 C   0  0  0  0  0  0  0  0  0  0  0  0
    6.0239   -2.0183    0.2701 C   0  0  0  0  0  0  0  0  0  0  0  0
    7.0479   -1.7223    0.8732 O   0  0  0  0  0  0  0  0  0  0  0  0
    5.4625   -3.4593    0.3544 C   0  0  2  0  0  0  0  0  0  0  0  0
    6.7190   -4.3642    0.1681 C   0  0  0  0  0  0  0  0  0  0  0  0
    4.3660   -3.6762   -0.7836 C   0  0  1  0  0  0  0  0  0  0  0  0
    2.9502   -3.5469   -0.1025 C   0  0  1  0  0  0  0  0  0  0  0  0
    2.2253   -4.7486   -0.3194 O   0  0  0  0  0  0  0  0  0  0  0  0
    3.2111   -3.2469    1.3988 C   0  0  1  0  0  0  0  0  0  0  0  0
    3.2573   -1.8246    1.3853 O   0  0  0  0  0  0  0  0  0  0  0  0
    2.1498   -3.4539    2.5680 C   0  0  1  0  0  0  0  0  0  0  0  0
    1.5519   -4.7418    2.5680 O   0  0  0  0  0  0  0  0  0  0  0  0
    2.7268   -3.2515    4.0298 C   0  0  2  0  0  0  0  0  0  0  0  0
    3.0647   -1.7782    4.4857 C   0  0  0  0  0  0  0  0  0  0  0  0
    4.6092   -1.5870    4.6944 C   0  0  2  0  0  0  0  0  0  0  0  0
    5.2948   -2.1461    3.4564 C   0  0  0  0  0  0  0  0  0  0  0  0
    4.9283   -3.4002    3.1069 C   0  0  0  0  0  0  0  0  0  0  0  0
    4.0363   -4.0592    4.1729 C   0  0  1  0  0  0  0  0  0  0  0  0
    4.6624   -3.9194    5.5860 C   0  0  0  0  0  0  0  0  0  0  0  0
    5.0239   -2.4519    5.8949 C   0  0  0  0  0  0  0  0  0  0  0  0
    4.6227   -3.8681    1.6616 C   0  0  2  0  0  0  0  0  0  0  0  0
    4.5802   -5.4446    1.6742 C   0  0  0  0  0  0  0  0  0  0  0  0
    3.0965   -4.1387   -3.2189 H   0  0  0  0  0  0  0  0  0  0  0  0
    3.4489   -2.6596   -4.0477 H   0  0  0  0  0  0  0  0  0  0  0  0
    2.3649   -2.6272   -2.6799 H   0  0  0  0  0  0  0  0  0  0  0  0
    5.7288   -4.3679   -3.0912 H   0  0  0  0  0  0  0  0  0  0  0  0
    6.6908   -3.0415   -2.4134 H   0  0  0  0  0  0  0  0  0  0  0  0
    5.7498   -2.8144   -3.8671 H   0  0  0  0  0  0  0  0  0  0  0  0
    5.5659   -0.0233   -0.3655 H   0  0  0  0  0  0  0  0  0  0  0  0
    6.4703   -5.3536   -0.2040 H   0  0  0  0  0  0  0  0  0  0  0  0
    7.2695   -4.4926    1.1019 H   0  0  0  0  0  0  0  0  0  0  0  0
    7.4315   -3.9516   -0.5451 H   0  0  0  0  0  0  0  0  0  0  0  0
    4.4712   -4.7094   -1.1059 H   0  0  0  0  0  0  0  0  0  0  0  0
    2.3635   -2.7443   -0.5496 H   0  0  0  0  0  0  0  0  0  0  0  0
    2.3331   -4.9944   -1.2332 H   0  0  0  0  0  0  0  0  0  0  0  0
    2.4875   -1.4921    0.9427 H   0  0  0  0  0  0  0  0  0  0  0  0
    1.3161   -2.7628    2.4301 H   0  0  0  0  0  0  0  0  0  0  0  0
    2.2351   -5.3892    2.6423 H   0  0  0  0  0  0  0  0  0  0  0  0
    1.9847   -3.6268    4.7358 H   0  0  0  0  0  0  0  0  0  0  0  0
    2.6780   -1.0479    3.7742 H   0  0  0  0  0  0  0  0  0  0  0  0
    2.5548   -1.5609    5.4278 H   0  0  0  0  0  0  0  0  0  0  0  0
    4.8792   -0.5423    4.8473 H   0  0  0  0  0  0  0  0  0  0  0  0
    5.6868   -1.4110    2.7804 H   0  0  0  0  0  0  0  0  0  0  0  0
    3.8553   -5.1197    4.0450 H   0  0  0  0  0  0  0  0  0  0  0  0
    3.9874   -4.3096    6.3476 H   0  0  0  0  0  0  0  0  0  0  0  0
    5.5653   -4.5277    5.6382 H   0  0  0  0  0  0  0  0  0  0  0  0
    6.0962   -2.3560    6.0741 H   0  0  0  0  0  0  0  0  0  0  0  0
    4.5229   -2.1162    6.8048 H   0  0  0  0  0  0  0  0  0  0  0  0
    4.5474   -5.8980    0.6842 H   0  0  0  0  0  0  0  0  0  0  0  0
    3.7081   -5.8752    2.1573 H   0  0  0  0  0  0  0  0  0  0  0  0
    5.4596   -5.8532    2.1799 H   0  0  0  0  0  0  0  0  0  0  0  0
  1  2  1  0
  1 28  1  0
  1 29  1  0
  1 30  1  0
  2 11  1  0
  2  3  1  0
  2  4  1  0
  3 31  1  0
  3 32  1  0
  3 33  1  0
  4  5  1  0
  4  6  2  0
  6  7  1  0
  6 34  1  0
  7  8  2  0
  7  9  1  0
  9 26  1  0
  9 10  1  6
  9 11  1  0
 10 35  1  0
 10 36  1  0
 10 37  1  0
 11 12  1  0
 11 38  1  6
 12 13  1  0
 12 14  1  0
 12 39  1  6
 13 40  1  0
 14 26  1  0
 14 15  1  6
 14 16  1  0
 15 41  1  0
 16 17  1  0
 16 18  1  0
 16 42  1  6
 17 43  1  0
 18 23  1  0
 18 19  1  0
 18 44  1  1
 19 20  1  0
 19 45  1  0
 19 46  1  0
 20 25  1  0
 20 21  1  0
 20 47  1  1
 21 22  2  0
 21 48  1  0
 22 23  1  0
 22 26  1  0
 23 24  1  0
 23 49  1  6
 24 25  1  0
 24 50  1  0
 24 51  1  0
 25 52  1  0
 25 53  1  0
 26 27  1  1
 27 54  1  0
 27 55  1  0
 27 56  1  0
M  CHG  1   5  -1
M  END
>  <i_m_ct_stereo_status>  (152) 
1

>  <s_m_source_file>  (152) 
/var/tmp/pbs.5076255.sched01/tmp06uo9b_r/40lj_pgbub.sdf

>  <i_m_source_file_index>  (152) 
27

>  <i_lp_mmshare_version>  (152) 
48012

>  <i_f3d_flags>  (152) 
0

>  <s_epik_input>  (152) 
Tz1DMVtDSDJdQyg9TylDKFtDSDNdKShbQ0gzXSlbQ0BASF0oW0NAQF0xMltDSDNdKVtDQEBIXShbT0hdKVtDQF0zKFtPSF0pW0NAXTIoW0NIM10pQzRbQ0BASF01W0NASF0oW0NAQEhdM1tPSF0pW0NIMl1bQ0BIXShbQ0hdPTQpW0NIMl1bQ0gyXTU=

>  <s_epik_cmdline>  (152) 
J2VwaWtfcHl0aG9uJywgJy1waHQnLCAnMi4wJywgJy1waCcsICc3LjAnLCAnLXRuJywgJzgnLCAnLW1hJywgJzIwMCcsICctaW1hZScsICc8aW5maWxlLm1hZT4nLCAnLW9tYWUnLCAnPG91dGZpbGUubWFlPic=

>  <r_epik_Ionization_Penalty>  (152) 
0.0116614

>  <r_epik_Ionization_Penalty_Charging>  (152) 
0.00631994

>  <r_epik_Ionization_Penalty_Neutral>  (152) 
0.00534145

>  <r_epik_State_Penalty>  (152) 
0.00853844

>  <r_epik_Charging_Adjusted_Penalty>  (152) 
0.0148584

>  <i_epik_Tot_Q>  (152) 
-1

>  <i_epik_Tot_abs_Q>  (152) 
1

>  <s_lp_Force_Field>  (152) 
OPLS3e

>  <r_lp_Energy>  (152) 
108.951

>  <b_lp_Chiralities_Consistent>  (152) 
1

>  <s_lp_Variant>  (152) 
47:0-1

>  <s_i_glide_gridfile>  (152) 
pfpi4k_grid

>  <i_i_glide_lignum>  (152) 
27

>  <i_i_glide_rotatable_bonds>  (152) 
3

>  <r_i_docking_score>  (152) 
-3.39191

>  <r_i_glide_ligand_efficiency>  (152) 
-0.125626

>  <r_i_glide_ligand_efficiency_sa>  (152) 
-0.376879

>  <r_i_glide_ligand_efficiency_ln>  (152) 
-0.789581

>  <r_i_glide_gscore>  (152) 
-3.39191

>  <r_i_glide_lipo>  (152) 
-0.599143

>  <r_i_glide_hbond>  (152) 
0

>  <r_i_glide_metal>  (152) 
-0

>  <r_i_glide_rewards>  (152) 
-0.93084

>  <r_i_glide_evdw>  (152) 
-20.5497

>  <r_i_glide_ecoul>  (152) 
-5.56296

>  <r_i_glide_erotb>  (152) 
0

>  <r_i_glide_esite>  (152) 
0

>  <r_i_glide_emodel>  (152) 
-32.1676

>  <r_i_glide_energy>  (152) 
-26.1127

>  <r_i_glide_einternal>  (152) 
0.852876

>  <r_i_glide_intrahb_reward>  (152) 
-0

>  <i_i_glide_confnum>  (152) 
2

>  <i_i_glide_posenum>  (152) 
1

>  <r_i_glide_eff_state_penalty>  (152) 
0

>  <ligand_id>  (152) 
47

>  <original_smiles>  (152) 
CC1(C)C(=O)CC(=O)C2(C)C1C(O)C1(O)C(O)C3CC4C=C(C3CC4)C21C

>  <smiles>  (152) 
[H]OC1([H])C2([H])C([H])([H])C3([H])C([H])=C(C2([H])C([H])([H])C3([H])[H])C2(C([H])([H])[H])C1(O[H])C([H])(O[H])C1([H])C(C([H])([H])[H])(C([H])([H])[H])C([O-])=C([H])C(=O)C12C([H])([H])[H]

$$$$
47:0:1
     RDKit          3D

 56 60  0  0  1  0  0  0  0  0999 V2000
    4.1856   -1.9861    5.4608 C   0  0  0  0  0  0  0  0  0  0  0  0
    3.6770   -3.0827    4.4728 C   0  0  0  0  0  0  0  0  0  0  0  0
    3.8162   -4.4221    5.2462 C   0  0  0  0  0  0  0  0  0  0  0  0
    2.2004   -2.9231    4.0853 C   0  0  0  0  0  0  0  0  0  0  0  0
    1.5717   -2.2239    4.9078 O   0  0  0  0  0  0  0  0  0  0  0  0
    1.8127   -3.5491    2.9185 C   0  0  0  0  0  0  0  0  0  0  0  0
    2.6659   -4.3127    2.0022 C   0  0  0  0  0  0  0  0  0  0  0  0
    2.1934   -5.2066    1.2997 O   0  0  0  0  0  0  0  0  0  0  0  0
    4.1934   -4.0935    2.0051 C   0  0  2  0  0  0  0  0  0  0  0  0
    4.7990   -5.5228    2.1823 C   0  0  0  0  0  0  0  0  0  0  0  0
    4.5854   -3.0915    3.1835 C   0  0  1  0  0  0  0  0  0  0  0  0
    4.7645   -1.6631    2.5397 C   0  0  1  0  0  0  0  0  0  0  0  0
    6.0744   -1.2087    2.8005 O   0  0  0  0  0  0  0  0  0  0  0  0
    4.5162   -1.8331    1.0281 C   0  0  1  0  0  0  0  0  0  0  0  0
    3.1293   -1.5495    0.9846 O   0  0  0  0  0  0  0  0  0  0  0  0
    5.0276   -0.8161   -0.0635 C   0  0  1  0  0  0  0  0  0  0  0  0
    6.4120   -0.6218    0.0672 O   0  0  0  0  0  0  0  0  0  0  0  0
    4.8141   -1.2855   -1.5671 C   0  0  2  0  0  0  0  0  0  0  0  0
    3.3493   -1.2604   -2.1442 C   0  0  0  0  0  0  0  0  0  0  0  0
    2.7955   -2.7096   -2.3890 C   0  0  2  0  0  0  0  0  0  0  0  0
    3.1144   -3.5284   -1.1486 C   0  0  0  0  0  0  0  0  0  0  0  0
    4.3947   -3.4870   -0.7288 C   0  0  0  0  0  0  0  0  0  0  0  0
    5.2922   -2.7413   -1.7270 C   0  0  1  0  0  0  0  0  0  0  0  0
    5.0703   -3.2740   -3.1630 C   0  0  0  0  0  0  0  0  0  0  0  0
    3.5895   -3.2575   -3.5744 C   0  0  0  0  0  0  0  0  0  0  0  0
    4.8372   -3.3320    0.7479 C   0  0  2  0  0  0  0  0  0  0  0  0
    6.3847   -3.6476    0.8007 C   0  0  0  0  0  0  0  0  0  0  0  0
    5.2615   -2.0455    5.6326 H   0  0  0  0  0  0  0  0  0  0  0  0
    3.6866   -2.0780    6.4293 H   0  0  0  0  0  0  0  0  0  0  0  0
    3.9508   -0.9816    5.1032 H   0  0  0  0  0  0  0  0  0  0  0  0
    4.8548   -4.6677    5.4838 H   0  0  0  0  0  0  0  0  0  0  0  0
    3.3821   -5.2614    4.6978 H   0  0  0  0  0  0  0  0  0  0  0  0
    3.2637   -4.3711    6.1898 H   0  0  0  0  0  0  0  0  0  0  0  0
    0.7988   -3.4221    2.6181 H   0  0  0  0  0  0  0  0  0  0  0  0
    5.7971   -5.5229    2.6111 H   0  0  0  0  0  0  0  0  0  0  0  0
    4.8402   -6.0578    1.2308 H   0  0  0  0  0  0  0  0  0  0  0  0
    4.1951   -6.1401    2.8441 H   0  0  0  0  0  0  0  0  0  0  0  0
    5.5611   -3.4135    3.5389 H   0  0  0  0  0  0  0  0  0  0  0  0
    4.0929   -0.9185    2.9584 H   0  0  0  0  0  0  0  0  0  0  0  0
    6.1845   -0.3381    2.4771 H   0  0  0  0  0  0  0  0  0  0  0  0
    2.8363   -1.5469    0.0866 H   0  0  0  0  0  0  0  0  0  0  0  0
    4.5502    0.1545    0.0831 H   0  0  0  0  0  0  0  0  0  0  0  0
    6.5920   -0.0847    0.8311 H   0  0  0  0  0  0  0  0  0  0  0  0
    5.3891   -0.6291   -2.2209 H   0  0  0  0  0  0  0  0  0  0  0  0
    2.6871   -0.7427   -1.4534 H   0  0  0  0  0  0  0  0  0  0  0  0
    3.2902   -0.6793   -3.0744 H   0  0  0  0  0  0  0  0  0  0  0  0
    1.7238   -2.7276   -2.5922 H   0  0  0  0  0  0  0  0  0  0  0  0
    2.2691   -3.7662   -0.5338 H   0  0  0  0  0  0  0  0  0  0  0  0
    6.3612   -2.8114   -1.5501 H   0  0  0  0  0  0  0  0  0  0  0  0
    5.6364   -2.6797   -3.8641 H   0  0  0  0  0  0  0  0  0  0  0  0
    5.4476   -4.2884   -3.2230 H   0  0  0  0  0  0  0  0  0  0  0  0
    3.2526   -4.2611   -3.8319 H   0  0  0  0  0  0  0  0  0  0  0  0
    3.4293   -2.6412   -4.4611 H   0  0  0  0  0  0  0  0  0  0  0  0
    6.7873   -3.7400    1.8081 H   0  0  0  0  0  0  0  0  0  0  0  0
    7.0356   -2.8916    0.3672 H   0  0  0  0  0  0  0  0  0  0  0  0
    6.6179   -4.5815    0.2777 H   0  0  0  0  0  0  0  0  0  0  0  0
  1  2  1  0
  1 28  1  0
  1 29  1  0
  1 30  1  0
  2 11  1  0
  2  3  1  0
  2  4  1  0
  3 31  1  0
  3 32  1  0
  3 33  1  0
  4  5  1  0
  4  6  2  0
  6  7  1  0
  6 34  1  0
  7  8  2  0
  7  9  1  0
  9 26  1  0
  9 10  1  1
  9 11  1  0
 10 35  1  0
 10 36  1  0
 10 37  1  0
 11 12  1  0
 11 38  1  1
 12 13  1  0
 12 14  1  0
 12 39  1  1
 13 40  1  0
 14 26  1  0
 14 15  1  1
 14 16  1  0
 15 41  1  0
 16 17  1  0
 16 18  1  0
 16 42  1  6
 17 43  1  0
 18 23  1  0
 18 19  1  0
 18 44  1  6
 19 20  1  0
 19 45  1  0
 19 46  1  0
 20 25  1  0
 20 21  1  0
 20 47  1  6
 21 22  2  0
 21 48  1  0
 22 23  1  0
 22 26  1  0
 23 24  1  0
 23 49  1  1
 24 25  1  0
 24 50  1  0
 24 51  1  0
 25 52  1  0
 25 53  1  0
 26 27  1  6
 27 54  1  0
 27 55  1  0
 27 56  1  0
M  CHG  1   5  -1
M  END
>  <i_m_ct_stereo_status>  (153) 
1

>  <s_m_source_file>  (153) 
/var/tmp/pbs.5076255.sched01/tmp06uo9b_r/40lj_pgbub.sdf

>  <i_m_source_file_index>  (153) 
27

>  <i_lp_mmshare_version>  (153) 
48012

>  <i_f3d_flags>  (153) 
0

>  <s_epik_input>  (153) 
Tz1DMVtDSDJdQyg9TylDKFtDSDNdKShbQ0gzXSlbQ0BASF0oW0NAQF0xMltDSDNdKVtDQEBIXShbT0hdKVtDQF0zKFtPSF0pW0NAXTIoW0NIM10pQzRbQ0BASF01W0NASF0oW0NAQEhdM1tPSF0pW0NIMl1bQ0BIXShbQ0hdPTQpW0NIMl1bQ0gyXTU=

>  <s_epik_cmdline>  (153) 
J2VwaWtfcHl0aG9uJywgJy1waHQnLCAnMi4wJywgJy1waCcsICc3LjAnLCAnLXRuJywgJzgnLCAnLW1hJywgJzIwMCcsICctaW1hZScsICc8aW5maWxlLm1hZT4nLCAnLW9tYWUnLCAnPG91dGZpbGUubWFlPic=

>  <r_epik_Ionization_Penalty>  (153) 
0.0116614

>  <r_epik_Ionization_Penalty_Charging>  (153) 
0.00631994

>  <r_epik_Ionization_Penalty_Neutral>  (153) 
0.00534145

>  <r_epik_State_Penalty>  (153) 
0.00853844

>  <r_epik_Charging_Adjusted_Penalty>  (153) 
0.0148584

>  <i_epik_Tot_Q>  (153) 
-1

>  <i_epik_Tot_abs_Q>  (153) 
1

>  <s_lp_Force_Field>  (153) 
OPLS3e

>  <r_lp_Energy>  (153) 
108.951

>  <b_lp_Chiralities_Consistent>  (153) 
1

>  <s_lp_Variant>  (153) 
47:0-1

>  <s_i_glide_gridfile>  (153) 
pfpi4k_grid

>  <i_i_glide_lignum>  (153) 
27

>  <i_i_glide_rotatable_bonds>  (153) 
3

>  <r_i_docking_score>  (153) 
-2.97765

>  <r_i_glide_ligand_efficiency>  (153) 
-0.110283

>  <r_i_glide_ligand_efficiency_sa>  (153) 
-0.33085

>  <r_i_glide_ligand_efficiency_ln>  (153) 
-0.693147

>  <r_i_glide_gscore>  (153) 
-2.97765

>  <r_i_glide_lipo>  (153) 
-0.79284

>  <r_i_glide_hbond>  (153) 
-0.00770574

>  <r_i_glide_metal>  (153) 
-0

>  <r_i_glide_rewards>  (153) 
-0.862755

>  <r_i_glide_evdw>  (153) 
-20.1821

>  <r_i_glide_ecoul>  (153) 
-1.97591

>  <r_i_glide_erotb>  (153) 
0

>  <r_i_glide_esite>  (153) 
-0.00885606

>  <r_i_glide_emodel>  (153) 
-27.3363

>  <r_i_glide_energy>  (153) 
-22.158

>  <r_i_glide_einternal>  (153) 
0.821954

>  <r_i_glide_intrahb_reward>  (153) 
-0

>  <i_i_glide_confnum>  (153) 
1

>  <i_i_glide_posenum>  (153) 
9

>  <r_i_glide_eff_state_penalty>  (153) 
0

>  <ligand_id>  (153) 
47

>  <original_smiles>  (153) 
CC1(C)C(=O)CC(=O)C2(C)C1C(O)C1(O)C(O)C3CC4C=C(C3CC4)C21C

>  <smiles>  (153) 
[H]OC1([H])C2([H])C([H])([H])C3([H])C([H])=C(C2([H])C([H])([H])C3([H])[H])C2(C([H])([H])[H])C1(O[H])C([H])(O[H])C1([H])C(C([H])([H])[H])(C([H])([H])[H])C([O-])=C([H])C(=O)C12C([H])([H])[H]

$$$$
47:0:2
     RDKit          3D

 56 60  0  0  1  0  0  0  0  0999 V2000
    3.0426   -4.6058    6.2469 C   0  0  0  0  0  0  0  0  0  0  0  0
    2.8321   -5.3311    4.8822 C   0  0  0  0  0  0  0  0  0  0  0  0
    2.8909   -6.8499    5.1939 C   0  0  0  0  0  0  0  0  0  0  0  0
    1.4535   -5.0470    4.2530 C   0  0  0  0  0  0  0  0  0  0  0  0
    0.6059   -4.6539    5.0858 O   0  0  0  0  0  0  0  0  0  0  0  0
    1.3219   -5.2535    2.9010 C   0  0  0  0  0  0  0  0  0  0  0  0
    2.3777   -5.6844    1.9818 C   0  0  0  0  0  0  0  0  0  0  0  0
    2.0897   -6.2784    0.9457 O   0  0  0  0  0  0  0  0  0  0  0  0
    3.8691   -5.4717    2.3680 C   0  0  2  0  0  0  0  0  0  0  0  0
    4.5173   -6.8838    2.2033 C   0  0  0  0  0  0  0  0  0  0  0  0
    3.9642   -4.9220    3.8625 C   0  0  1  0  0  0  0  0  0  0  0  0
    4.2073   -3.3647    3.7746 C   0  0  1  0  0  0  0  0  0  0  0  0
    5.4026   -3.0581    4.4650 O   0  0  0  0  0  0  0  0  0  0  0  0
    4.2514   -3.0067    2.2646 C   0  0  1  0  0  0  0  0  0  0  0  0
    2.8796   -2.7256    2.0211 O   0  0  0  0  0  0  0  0  0  0  0  0
    4.8824   -1.6686    1.6678 C   0  0  1  0  0  0  0  0  0  0  0  0
    6.2069   -1.4399    2.1073 O   0  0  0  0  0  0  0  0  0  0  0  0
    4.9629   -1.6380    0.0840 C   0  0  2  0  0  0  0  0  0  0  0  0
    3.6158   -1.4661   -0.7049 C   0  0  0  0  0  0  0  0  0  0  0  0
    3.2522   -2.7447   -1.5369 C   0  0  2  0  0  0  0  0  0  0  0  0
    3.3911   -3.9283   -0.5972 C   0  0  0  0  0  0  0  0  0  0  0  0
    4.5605   -4.0028    0.0762 C   0  0  0  0  0  0  0  0  0  0  0  0
    5.5786   -2.9617   -0.4239 C   0  0  1  0  0  0  0  0  0  0  0  0
    5.6938   -3.0004   -1.9723 C   0  0  0  0  0  0  0  0  0  0  0  0
    4.3081   -2.8920   -2.6421 C   0  0  0  0  0  0  0  0  0  0  0  0
    4.7021   -4.3401    1.5821 C   0  0  2  0  0  0  0  0  0  0  0  0
    6.2221   -4.6538    1.8486 C   0  0  0  0  0  0  0  0  0  0  0  0
    4.0602   -4.7158    6.6174 H   0  0  0  0  0  0  0  0  0  0  0  0
    2.3736   -5.0089    7.0094 H   0  0  0  0  0  0  0  0  0  0  0  0
    2.8136   -3.5412    6.1875 H   0  0  0  0  0  0  0  0  0  0  0  0
    3.8736   -7.1640    5.5471 H   0  0  0  0  0  0  0  0  0  0  0  0
    2.6308   -7.4633    4.3296 H   0  0  0  0  0  0  0  0  0  0  0  0
    2.1664   -7.1107    5.9692 H   0  0  0  0  0  0  0  0  0  0  0  0
    0.3606   -5.0693    2.4636 H   0  0  0  0  0  0  0  0  0  0  0  0
    5.4132   -7.0215    2.8046 H   0  0  0  0  0  0  0  0  0  0  0  0
    4.7845   -7.0818    1.1635 H   0  0  0  0  0  0  0  0  0  0  0  0
    3.8469   -7.6902    2.4980 H   0  0  0  0  0  0  0  0  0  0  0  0
    4.8656   -5.3568    4.2859 H   0  0  0  0  0  0  0  0  0  0  0  0
    3.4126   -2.7979    4.2617 H   0  0  0  0  0  0  0  0  0  0  0  0
    5.2760   -3.2508    5.3810 H   0  0  0  0  0  0  0  0  0  0  0  0
    2.7941   -2.4477    1.1210 H   0  0  0  0  0  0  0  0  0  0  0  0
    4.3128   -0.8049    2.0214 H   0  0  0  0  0  0  0  0  0  0  0  0
    6.4862   -0.5707    1.8601 H   0  0  0  0  0  0  0  0  0  0  0  0
    5.5963   -0.7981   -0.2063 H   0  0  0  0  0  0  0  0  0  0  0  0
    2.8095   -1.1791   -0.0310 H   0  0  0  0  0  0  0  0  0  0  0  0
    3.7097   -0.6425   -1.4144 H   0  0  0  0  0  0  0  0  0  0  0  0
    2.2444   -2.6925   -1.9528 H   0  0  0  0  0  0  0  0  0  0  0  0
    2.4651   -4.3576   -0.2736 H   0  0  0  0  0  0  0  0  0  0  0  0
    6.5932   -3.0822   -0.0584 H   0  0  0  0  0  0  0  0  0  0  0  0
    6.3529   -2.2103   -2.3243 H   0  0  0  0  0  0  0  0  0  0  0  0
    6.1572   -3.9361   -2.2751 H   0  0  0  0  0  0  0  0  0  0  0  0
    4.1001   -3.7838   -3.2361 H   0  0  0  0  0  0  0  0  0  0  0  0
    4.2735   -2.0423   -3.3256 H   0  0  0  0  0  0  0  0  0  0  0  0
    6.4254   -5.0687    2.8336 H   0  0  0  0  0  0  0  0  0  0  0  0
    6.8717   -3.7835    1.8262 H   0  0  0  0  0  0  0  0  0  0  0  0
    6.6141   -5.3652    1.1172 H   0  0  0  0  0  0  0  0  0  0  0  0
  1  2  1  0
  1 28  1  0
  1 29  1  0
  1 30  1  0
  2 11  1  0
  2  3  1  0
  2  4  1  0
  3 31  1  0
  3 32  1  0
  3 33  1  0
  4  5  1  0
  4  6  2  0
  6  7  1  0
  6 34  1  0
  7  8  2  0
  7  9  1  0
  9 26  1  0
  9 10  1  1
  9 11  1  0
 10 35  1  0
 10 36  1  0
 10 37  1  0
 11 12  1  0
 11 38  1  1
 12 13  1  0
 12 14  1  0
 12 39  1  1
 13 40  1  0
 14 26  1  0
 14 15  1  6
 14 16  1  0
 15 41  1  0
 16 17  1  0
 16 18  1  0
 16 42  1  1
 17 43  1  0
 18 23  1  0
 18 19  1  0
 18 44  1  1
 19 20  1  0
 19 45  1  0
 19 46  1  0
 20 25  1  0
 20 21  1  0
 20 47  1  6
 21 22  2  0
 21 48  1  0
 22 23  1  0
 22 26  1  0
 23 24  1  0
 23 49  1  1
 24 25  1  0
 24 50  1  0
 24 51  1  0
 25 52  1  0
 25 53  1  0
 26 27  1  6
 27 54  1  0
 27 55  1  0
 27 56  1  0
M  CHG  1   5  -1
M  END
>  <i_m_ct_stereo_status>  (154) 
1

>  <s_m_source_file>  (154) 
/var/tmp/pbs.5076255.sched01/tmp06uo9b_r/40lj_pgbub.sdf

>  <i_m_source_file_index>  (154) 
27

>  <i_lp_mmshare_version>  (154) 
48012

>  <i_f3d_flags>  (154) 
0

>  <s_epik_input>  (154) 
Tz1DMVtDSDJdQyg9TylDKFtDSDNdKShbQ0gzXSlbQ0BASF0oW0NAQF0xMltDSDNdKVtDQEBIXShbT0hdKVtDQF0zKFtPSF0pW0NAXTIoW0NIM10pQzRbQ0BASF01W0NASF0oW0NAQEhdM1tPSF0pW0NIMl1bQ0BIXShbQ0hdPTQpW0NIMl1bQ0gyXTU=

>  <s_epik_cmdline>  (154) 
J2VwaWtfcHl0aG9uJywgJy1waHQnLCAnMi4wJywgJy1waCcsICc3LjAnLCAnLXRuJywgJzgnLCAnLW1hJywgJzIwMCcsICctaW1hZScsICc8aW5maWxlLm1hZT4nLCAnLW9tYWUnLCAnPG91dGZpbGUubWFlPic=

>  <r_epik_Ionization_Penalty>  (154) 
0.0116614

>  <r_epik_Ionization_Penalty_Charging>  (154) 
0.00631994

>  <r_epik_Ionization_Penalty_Neutral>  (154) 
0.00534145

>  <r_epik_State_Penalty>  (154) 
0.00853844

>  <r_epik_Charging_Adjusted_Penalty>  (154) 
0.0148584

>  <i_epik_Tot_Q>  (154) 
-1

>  <i_epik_Tot_abs_Q>  (154) 
1

>  <s_lp_Force_Field>  (154) 
OPLS3e

>  <r_lp_Energy>  (154) 
108.951

>  <b_lp_Chiralities_Consistent>  (154) 
1

>  <s_lp_Variant>  (154) 
47:0-1

>  <s_i_glide_gridfile>  (154) 
pfpi4k_grid

>  <i_i_glide_lignum>  (154) 
27

>  <i_i_glide_rotatable_bonds>  (154) 
3

>  <r_i_docking_score>  (154) 
-2.35504

>  <r_i_glide_ligand_efficiency>  (154) 
-0.0872238

>  <r_i_glide_ligand_efficiency_sa>  (154) 
-0.261671

>  <r_i_glide_ligand_efficiency_ln>  (154) 
-0.548215

>  <r_i_glide_gscore>  (154) 
-2.35504

>  <r_i_glide_lipo>  (154) 
-0.342903

>  <r_i_glide_hbond>  (154) 
0

>  <r_i_glide_metal>  (154) 
-0

>  <r_i_glide_rewards>  (154) 
-0.862755

>  <r_i_glide_evdw>  (154) 
-22.2513

>  <r_i_glide_ecoul>  (154) 
-0.135693

>  <r_i_glide_erotb>  (154) 
0

>  <r_i_glide_esite>  (154) 
-0.0164666

>  <r_i_glide_emodel>  (154) 
-26.4976

>  <r_i_glide_energy>  (154) 
-22.387

>  <r_i_glide_einternal>  (154) 
0.738577

>  <r_i_glide_intrahb_reward>  (154) 
-0

>  <i_i_glide_confnum>  (154) 
1

>  <i_i_glide_posenum>  (154) 
28

>  <r_i_glide_eff_state_penalty>  (154) 
0

>  <ligand_id>  (154) 
47

>  <original_smiles>  (154) 
CC1(C)C(=O)CC(=O)C2(C)C1C(O)C1(O)C(O)C3CC4C=C(C3CC4)C21C

>  <smiles>  (154) 
[H]OC1([H])C2([H])C([H])([H])C3([H])C([H])=C(C2([H])C([H])([H])C3([H])[H])C2(C([H])([H])[H])C1(O[H])C([H])(O[H])C1([H])C(C([H])([H])[H])(C([H])([H])[H])C([O-])=C([H])C(=O)C12C([H])([H])[H]

$$$$
48:0:0
     RDKit          3D

 42 45  0  0  1  0  0  0  0  0999 V2000
    5.0512   -7.0884    0.8125 C   0  0  0  0  0  0  0  0  0  0  0  0
    6.0313   -7.0865    1.9904 C   0  0  0  0  0  0  0  0  0  0  0  0
    6.3686   -5.6879    2.5729 C   0  0  0  0  0  0  0  0  0  0  0  0
    7.2012   -4.8338    1.6051 C   0  0  0  0  0  0  0  0  0  0  0  0
    6.9358   -3.7244    0.8889 C   0  0  0  0  0  0  0  0  0  0  0  0
    5.6380   -2.8679    0.7840 C   0  0  2  0  0  0  0  0  0  0  0  0
    5.9316   -1.3494    0.5895 C   0  0  0  0  0  0  0  0  0  0  0  0
    4.8464   -2.8392    2.1284 C   0  0  0  0  0  0  0  0  0  0  0  0
    5.4219   -2.5814    3.1853 O   0  0  0  0  0  0  0  0  0  0  0  0
    3.3177   -3.0619    2.1235 C   0  0  0  0  0  0  0  0  0  0  0  0
    2.9202   -4.2200    1.2145 C   0  0  0  0  0  0  0  0  0  0  0  0
    3.6084   -4.1068   -0.1285 C   0  0  0  0  0  0  0  0  0  0  0  0
    4.7729   -3.4643   -0.3429 C   0  0  0  0  0  0  0  0  0  0  0  0
    5.1660   -3.2333   -1.7570 C   0  0  0  0  0  0  0  0  0  0  0  0
    4.3588   -2.8026   -2.5907 O   0  0  0  0  0  0  0  0  0  0  0  0
    6.5719   -3.4277   -2.2611 C   0  0  1  0  0  0  0  0  0  0  0  0
    7.3594   -2.2540   -2.0203 O   0  0  0  0  0  0  0  0  0  0  0  0
    7.8842   -3.4627   -1.4987 C   0  0  1  0  0  0  0  0  0  0  0  0
    8.1528   -3.4697   -0.0055 C   0  0  1  0  0  0  0  0  0  0  0  0
    8.8460   -2.2836    0.3568 O   0  0  0  0  0  0  0  0  0  0  0  0
    8.9938   -4.5730    0.1754 O   0  0  0  0  0  0  0  0  0  0  0  0
    8.6238   -5.2375    1.3672 C   0  0  0  0  0  0  0  0  0  0  0  0
    4.9389   -8.0828    0.4008 H   0  0  0  0  0  0  0  0  0  0  0  0
    5.3994   -6.4348    0.0283 H   0  0  0  0  0  0  0  0  0  0  0  0
    4.0750   -6.7838    1.1420 H   0  0  0  0  0  0  0  0  0  0  0  0
    5.5919   -7.6600    2.8060 H   0  0  0  0  0  0  0  0  0  0  0  0
    6.9586   -7.6047    1.7379 H   0  0  0  0  0  0  0  0  0  0  0  0
    5.4631   -5.2036    2.9292 H   0  0  0  0  0  0  0  0  0  0  0  0
    6.9780   -5.7956    3.4834 H   0  0  0  0  0  0  0  0  0  0  0  0
    5.0143   -0.7657    0.5810 H   0  0  0  0  0  0  0  0  0  0  0  0
    6.4403   -1.0890   -0.3234 H   0  0  0  0  0  0  0  0  0  0  0  0
    6.5515   -0.9501    1.3923 H   0  0  0  0  0  0  0  0  0  0  0  0
    3.0089   -3.3194    3.1420 H   0  0  0  0  0  0  0  0  0  0  0  0
    2.8168   -2.1309    1.8417 H   0  0  0  0  0  0  0  0  0  0  0  0
    3.1644   -5.1018    1.7866 H   0  0  0  0  0  0  0  0  0  0  0  0
    1.8446   -4.2203    1.0486 H   0  0  0  0  0  0  0  0  0  0  0  0
    3.0703   -4.4762   -0.9762 H   0  0  0  0  0  0  0  0  0  0  0  0
    6.6145   -3.7754   -3.2985 H   0  0  0  0  0  0  0  0  0  0  0  0
    8.7230   -3.8233   -2.0875 H   0  0  0  0  0  0  0  0  0  0  0  0
    9.5467   -2.1534   -0.2603 H   0  0  0  0  0  0  0  0  0  0  0  0
    9.2427   -4.8657    2.1811 H   0  0  0  0  0  0  0  0  0  0  0  0
    8.7542   -6.3172    1.2773 H   0  0  0  0  0  0  0  0  0  0  0  0
  1  2  1  0
  1 23  1  0
  1 24  1  0
  1 25  1  0
  2  3  1  0
  2 26  1  0
  2 27  1  0
  3  4  1  0
  3 28  1  0
  3 29  1  0
  4 22  1  0
  4  5  2  0
  5 19  1  0
  5  6  1  0
  6 13  1  0
  6  7  1  6
  6  8  1  0
  7 30  1  0
  7 31  1  0
  7 32  1  0
  8  9  2  0
  8 10  1  0
 10 11  1  0
 10 33  1  0
 10 34  1  0
 11 12  1  0
 11 35  1  0
 11 36  1  0
 12 13  2  0
 12 37  1  0
 13 14  1  0
 14 15  2  0
 14 16  1  0
 16 18  1  0
 16 17  1  0
 16 38  1  6
 17 18  1  0
 18 19  1  0
 18 39  1  6
 19 20  1  1
 19 21  1  0
 20 40  1  0
 21 22  1  0
 22 41  1  0
 22 42  1  0
M  END
>  <i_m_ct_stereo_status>  (155) 
1

>  <s_m_source_file>  (155) 
/var/tmp/pbs.5076255.sched01/tmp06uo9b_r/40lj_pgbub.sdf

>  <i_m_source_file_index>  (155) 
28

>  <i_lp_mmshare_version>  (155) 
48012

>  <i_f3d_flags>  (155) 
0

>  <s_epik_input>  (155) 
W0NIM11bQ0gyXVtDSDJdQz0xW0NIMl1PW0NAXShbT0hdKShDMVtDQF0yM1tDSDNdKVtDQEhdNFtDQEhdKE80KUMoPU8pQzM9W0NIXVtDSDJdW0NIMl1DMj1P

>  <s_epik_cmdline>  (155) 
J2VwaWtfcHl0aG9uJywgJy1waHQnLCAnMi4wJywgJy1waCcsICc3LjAnLCAnLXRuJywgJzgnLCAnLW1hJywgJzIwMCcsICctaW1hZScsICc8aW5maWxlLm1hZT4nLCAnLW9tYWUnLCAnPG91dGZpbGUubWFlPic=

>  <r_lp_tautomer_probability>  (155) 
0.99995

>  <r_epik_Ionization_Penalty>  (155) 
0.0015105

>  <r_epik_Ionization_Penalty_Charging>  (155) 
0

>  <r_epik_Ionization_Penalty_Neutral>  (155) 
0.0015105

>  <r_epik_State_Penalty>  (155) 
0.00101243

>  <r_epik_Charging_Adjusted_Penalty>  (155) 
0.00101243

>  <i_epik_Tot_Q>  (155) 
0

>  <i_epik_Tot_abs_Q>  (155) 
0

>  <s_lp_Force_Field>  (155) 
OPLS3e

>  <r_lp_Energy>  (155) 
25.7105

>  <b_lp_Chiralities_Consistent>  (155) 
1

>  <s_lp_Variant>  (155) 
48:0-1

>  <s_i_glide_gridfile>  (155) 
pfpi4k_grid

>  <i_i_glide_lignum>  (155) 
28

>  <i_i_glide_rotatable_bonds>  (155) 
3

>  <r_i_docking_score>  (155) 
-4.45959

>  <r_i_glide_ligand_efficiency>  (155) 
-0.202709

>  <r_i_glide_ligand_efficiency_sa>  (155) 
-0.567998

>  <r_i_glide_ligand_efficiency_ln>  (155) 
-1.09009

>  <r_i_glide_gscore>  (155) 
-4.45959

>  <r_i_glide_lipo>  (155) 
-0.658053

>  <r_i_glide_hbond>  (155) 
-0.211955

>  <r_i_glide_metal>  (155) 
-0

>  <r_i_glide_rewards>  (155) 
-1.81811

>  <r_i_glide_evdw>  (155) 
-20.7959

>  <r_i_glide_ecoul>  (155) 
-6.20516

>  <r_i_glide_erotb>  (155) 
0.199098

>  <r_i_glide_esite>  (155) 
0

>  <r_i_glide_emodel>  (155) 
-33.2391

>  <r_i_glide_energy>  (155) 
-27.0011

>  <r_i_glide_einternal>  (155) 
1.40298

>  <r_i_glide_intrahb_reward>  (155) 
-0

>  <i_i_glide_confnum>  (155) 
1

>  <i_i_glide_posenum>  (155) 
7

>  <r_i_glide_eff_state_penalty>  (155) 
0

>  <ligand_id>  (155) 
48

>  <original_smiles>  (155) 
CCCC1=C2C3(C)C(=O)CCC=C3C(=O)C3OC3C2(O)OC1

>  <smiles>  (155) 
[H]OC12OC([H])([H])C(C([H])([H])C([H])([H])C([H])([H])[H])=C1C1(C([H])([H])[H])C(=O)C([H])([H])C([H])([H])C([H])=C1C(=O)C1([H])OC12[H]

$$$$
48:0:1
     RDKit          3D

 42 45  0  0  1  0  0  0  0  0999 V2000
    8.7144   -6.2216    3.3208 C   0  0  0  0  0  0  0  0  0  0  0  0
    7.1945   -6.0008    3.4106 C   0  0  0  0  0  0  0  0  0  0  0  0
    6.4474   -5.9224    2.0646 C   0  0  0  0  0  0  0  0  0  0  0  0
    6.8406   -4.7394    1.1701 C   0  0  0  0  0  0  0  0  0  0  0  0
    6.1771   -3.6631    0.7205 C   0  0  0  0  0  0  0  0  0  0  0  0
    4.7404   -3.1595    1.0016 C   0  0  2  0  0  0  0  0  0  0  0  0
    4.6505   -1.6042    1.0946 C   0  0  0  0  0  0  0  0  0  0  0  0
    4.2586   -3.5867    2.4205 C   0  0  0  0  0  0  0  0  0  0  0  0
    4.9396   -3.3555    3.4180 O   0  0  0  0  0  0  0  0  0  0  0  0
    2.8828   -4.2463    2.5669 C   0  0  0  0  0  0  0  0  0  0  0  0
    2.6141   -5.2739    1.4576 C   0  0  0  0  0  0  0  0  0  0  0  0
    2.9168   -4.6867    0.0970 C   0  0  0  0  0  0  0  0  0  0  0  0
    3.8493   -3.7335   -0.1114 C   0  0  0  0  0  0  0  0  0  0  0  0
    3.8893   -3.1459   -1.4783 C   0  0  0  0  0  0  0  0  0  0  0  0
    2.8501   -2.8490   -2.0653 O   0  0  0  0  0  0  0  0  0  0  0  0
    5.1707   -2.8748   -2.2278 C   0  0  1  0  0  0  0  0  0  0  0  0
    5.7151   -1.5948   -1.9117 O   0  0  0  0  0  0  0  0  0  0  0  0
    6.5726   -2.7110   -1.6742 C   0  0  1  0  0  0  0  0  0  0  0  0
    7.0899   -2.9425   -0.2708 C   0  0  1  0  0  0  0  0  0  0  0  0
    7.5680   -1.7446    0.2749 O   0  0  0  0  0  0  0  0  0  0  0  0
    8.1429   -3.8323   -0.4930 O   0  0  0  0  0  0  0  0  0  0  0  0
    8.2325   -4.7186    0.6020 C   0  0  0  0  0  0  0  0  0  0  0  0
    9.1334   -6.4077    4.3140 H   0  0  0  0  0  0  0  0  0  0  0  0
    9.2426   -5.3972    2.8572 H   0  0  0  0  0  0  0  0  0  0  0  0
    8.9309   -7.1252    2.7603 H   0  0  0  0  0  0  0  0  0  0  0  0
    6.7397   -6.8008    3.9810 H   0  0  0  0  0  0  0  0  0  0  0  0
    6.9837   -5.1100    3.9944 H   0  0  0  0  0  0  0  0  0  0  0  0
    6.5998   -6.8175    1.4776 H   0  0  0  0  0  0  0  0  0  0  0  0
    5.3749   -5.9418    2.2700 H   0  0  0  0  0  0  0  0  0  0  0  0
    3.6391   -1.2871    1.3396 H   0  0  0  0  0  0  0  0  0  0  0  0
    4.9114   -1.0684    0.1903 H   0  0  0  0  0  0  0  0  0  0  0  0
    5.3008   -1.2069    1.8740 H   0  0  0  0  0  0  0  0  0  0  0  0
    2.7922   -4.7151    3.5519 H   0  0  0  0  0  0  0  0  0  0  0  0
    2.1232   -3.4631    2.5344 H   0  0  0  0  0  0  0  0  0  0  0  0
    3.2053   -6.1778    1.6030 H   0  0  0  0  0  0  0  0  0  0  0  0
    1.5653   -5.5715    1.4858 H   0  0  0  0  0  0  0  0  0  0  0  0
    2.3099   -5.0474   -0.7166 H   0  0  0  0  0  0  0  0  0  0  0  0
    5.1273   -3.1003   -3.2911 H   0  0  0  0  0  0  0  0  0  0  0  0
    7.3467   -2.8028   -2.4217 H   0  0  0  0  0  0  0  0  0  0  0  0
    7.7992   -1.8979    1.1735 H   0  0  0  0  0  0  0  0  0  0  0  0
    8.9097   -4.2968    1.3226 H   0  0  0  0  0  0  0  0  0  0  0  0
    8.5916   -5.7002    0.2928 H   0  0  0  0  0  0  0  0  0  0  0  0
  1  2  1  0
  1 23  1  0
  1 24  1  0
  1 25  1  0
  2  3  1  0
  2 26  1  0
  2 27  1  0
  3  4  1  0
  3 28  1  0
  3 29  1  0
  4 22  1  0
  4  5  2  0
  5 19  1  0
  5  6  1  0
  6 13  1  0
  6  7  1  1
  6  8  1  0
  7 30  1  0
  7 31  1  0
  7 32  1  0
  8  9  2  0
  8 10  1  0
 10 11  1  0
 10 33  1  0
 10 34  1  0
 11 12  1  0
 11 35  1  0
 11 36  1  0
 12 13  2  0
 12 37  1  0
 13 14  1  0
 14 15  2  0
 14 16  1  0
 16 18  1  0
 16 17  1  0
 16 38  1  6
 17 18  1  0
 18 19  1  0
 18 39  1  6
 19 20  1  1
 19 21  1  0
 20 40  1  0
 21 22  1  0
 22 41  1  0
 22 42  1  0
M  END
>  <i_m_ct_stereo_status>  (156) 
1

>  <s_m_source_file>  (156) 
/var/tmp/pbs.5076255.sched01/tmp06uo9b_r/40lj_pgbub.sdf

>  <i_m_source_file_index>  (156) 
28

>  <i_lp_mmshare_version>  (156) 
48012

>  <i_f3d_flags>  (156) 
0

>  <s_epik_input>  (156) 
W0NIM11bQ0gyXVtDSDJdQz0xW0NIMl1PW0NAXShbT0hdKShDMVtDQF0yM1tDSDNdKVtDQEhdNFtDQEhdKE80KUMoPU8pQzM9W0NIXVtDSDJdW0NIMl1DMj1P

>  <s_epik_cmdline>  (156) 
J2VwaWtfcHl0aG9uJywgJy1waHQnLCAnMi4wJywgJy1waCcsICc3LjAnLCAnLXRuJywgJzgnLCAnLW1hJywgJzIwMCcsICctaW1hZScsICc8aW5maWxlLm1hZT4nLCAnLW9tYWUnLCAnPG91dGZpbGUubWFlPic=

>  <r_lp_tautomer_probability>  (156) 
0.99995

>  <r_epik_Ionization_Penalty>  (156) 
0.0015105

>  <r_epik_Ionization_Penalty_Charging>  (156) 
0

>  <r_epik_Ionization_Penalty_Neutral>  (156) 
0.0015105

>  <r_epik_State_Penalty>  (156) 
0.00101243

>  <r_epik_Charging_Adjusted_Penalty>  (156) 
0.00101243

>  <i_epik_Tot_Q>  (156) 
0

>  <i_epik_Tot_abs_Q>  (156) 
0

>  <s_lp_Force_Field>  (156) 
OPLS3e

>  <r_lp_Energy>  (156) 
25.7105

>  <b_lp_Chiralities_Consistent>  (156) 
1

>  <s_lp_Variant>  (156) 
48:0-1

>  <s_i_glide_gridfile>  (156) 
pfpi4k_grid

>  <i_i_glide_lignum>  (156) 
28

>  <i_i_glide_rotatable_bonds>  (156) 
3

>  <r_i_docking_score>  (156) 
-3.16788

>  <r_i_glide_ligand_efficiency>  (156) 
-0.143994

>  <r_i_glide_ligand_efficiency_sa>  (156) 
-0.403478

>  <r_i_glide_ligand_efficiency_ln>  (156) 
-0.774345

>  <r_i_glide_gscore>  (156) 
-3.16788

>  <r_i_glide_lipo>  (156) 
-0.531748

>  <r_i_glide_hbond>  (156) 
-0.0395219

>  <r_i_glide_metal>  (156) 
-0

>  <r_i_glide_rewards>  (156) 
-1.43778

>  <r_i_glide_evdw>  (156) 
-22.0542

>  <r_i_glide_ecoul>  (156) 
-1.63187

>  <r_i_glide_erotb>  (156) 
0.199098

>  <r_i_glide_esite>  (156) 
-0.0104355

>  <r_i_glide_emodel>  (156) 
-28.1808

>  <r_i_glide_energy>  (156) 
-23.6861

>  <r_i_glide_einternal>  (156) 
0.951967

>  <r_i_glide_intrahb_reward>  (156) 
-0

>  <i_i_glide_confnum>  (156) 
1

>  <i_i_glide_posenum>  (156) 
33

>  <r_i_glide_eff_state_penalty>  (156) 
0

>  <ligand_id>  (156) 
48

>  <original_smiles>  (156) 
CCCC1=C2C3(C)C(=O)CCC=C3C(=O)C3OC3C2(O)OC1

>  <smiles>  (156) 
[H]OC12OC([H])([H])C(C([H])([H])C([H])([H])C([H])([H])[H])=C1C1(C([H])([H])[H])C(=O)C([H])([H])C([H])([H])C([H])=C1C(=O)C1([H])OC12[H]

$$$$
48:0:2
     RDKit          3D

 42 45  0  0  1  0  0  0  0  0999 V2000
    8.3018   -6.2397    1.7251 C   0  0  0  0  0  0  0  0  0  0  0  0
    7.7051   -5.4219    0.5795 C   0  0  0  0  0  0  0  0  0  0  0  0
    7.2646   -4.0166    1.0181 C   0  0  0  0  0  0  0  0  0  0  0  0
    6.6689   -3.2089   -0.1291 C   0  0  0  0  0  0  0  0  0  0  0  0
    5.4533   -2.6632   -0.3328 C   0  0  0  0  0  0  0  0  0  0  0  0
    4.1860   -2.6233    0.5518 C   0  0  2  0  0  0  0  0  0  0  0  0
    3.3940   -1.2942    0.4243 C   0  0  0  0  0  0  0  0  0  0  0  0
    4.5472   -2.6333    2.0615 C   0  0  0  0  0  0  0  0  0  0  0  0
    5.3465   -1.8180    2.5253 O   0  0  0  0  0  0  0  0  0  0  0  0
    3.8554   -3.6347    2.9901 C   0  0  0  0  0  0  0  0  0  0  0  0
    3.7403   -5.0214    2.3452 C   0  0  0  0  0  0  0  0  0  0  0  0
    3.1828   -4.9201    0.9456 C   0  0  0  0  0  0  0  0  0  0  0  0
    3.3519   -3.8479    0.1509 C   0  0  0  0  0  0  0  0  0  0  0  0
    2.5775   -3.8230   -1.1100 C   0  0  0  0  0  0  0  0  0  0  0  0
    1.4161   -4.2172   -1.1245 O   0  0  0  0  0  0  0  0  0  0  0  0
    3.1352   -3.4236   -2.4490 C   0  0  1  0  0  0  0  0  0  0  0  0
    3.1064   -2.0123   -2.6806 O   0  0  0  0  0  0  0  0  0  0  0  0
    4.3964   -2.6298   -2.7180 C   0  0  1  0  0  0  0  0  0  0  0  0
    5.4373   -2.0930   -1.7441 C   0  0  1  0  0  0  0  0  0  0  0  0
    5.3938   -0.6883   -1.7257 O   0  0  0  0  0  0  0  0  0  0  0  0
    6.6426   -2.5154   -2.3134 O   0  0  0  0  0  0  0  0  0  0  0  0
    7.5491   -2.8772   -1.2923 C   0  0  0  0  0  0  0  0  0  0  0  0
    8.6080   -7.2249    1.3731 H   0  0  0  0  0  0  0  0  0  0  0  0
    7.5819   -6.3806    2.5305 H   0  0  0  0  0  0  0  0  0  0  0  0
    9.1855   -5.7540    2.1397 H   0  0  0  0  0  0  0  0  0  0  0  0
    8.4545   -5.3594   -0.2079 H   0  0  0  0  0  0  0  0  0  0  0  0
    6.8483   -5.9514    0.1609 H   0  0  0  0  0  0  0  0  0  0  0  0
    6.5834   -4.1317    1.8523 H   0  0  0  0  0  0  0  0  0  0  0  0
    8.1265   -3.4631    1.3907 H   0  0  0  0  0  0  0  0  0  0  0  0
    2.5162   -1.2863    1.0743 H   0  0  0  0  0  0  0  0  0  0  0  0
    3.0218   -1.0928   -0.5717 H   0  0  0  0  0  0  0  0  0  0  0  0
    3.9898   -0.4200    0.6948 H   0  0  0  0  0  0  0  0  0  0  0  0
    4.3876   -3.6947    3.9395 H   0  0  0  0  0  0  0  0  0  0  0  0
    2.8600   -3.2500    3.2153 H   0  0  0  0  0  0  0  0  0  0  0  0
    4.7070   -5.5218    2.3044 H   0  0  0  0  0  0  0  0  0  0  0  0
    3.0793   -5.6456    2.9495 H   0  0  0  0  0  0  0  0  0  0  0  0
    2.5755   -5.7544    0.6340 H   0  0  0  0  0  0  0  0  0  0  0  0
    2.7793   -4.0120   -3.2912 H   0  0  0  0  0  0  0  0  0  0  0  0
    4.7598   -2.7051   -3.7364 H   0  0  0  0  0  0  0  0  0  0  0  0
    4.4851   -0.4321   -1.7105 H   0  0  0  0  0  0  0  0  0  0  0  0
    8.1844   -2.0283   -1.0332 H   0  0  0  0  0  0  0  0  0  0  0  0
    8.1846   -3.6977   -1.6231 H   0  0  0  0  0  0  0  0  0  0  0  0
  1  2  1  0
  1 23  1  0
  1 24  1  0
  1 25  1  0
  2  3  1  0
  2 26  1  0
  2 27  1  0
  3  4  1  0
  3 28  1  0
  3 29  1  0
  4 22  1  0
  4  5  2  0
  5 19  1  0
  5  6  1  0
  6 13  1  0
  6  7  1  6
  6  8  1  0
  7 30  1  0
  7 31  1  0
  7 32  1  0
  8  9  2  0
  8 10  1  0
 10 11  1  0
 10 33  1  0
 10 34  1  0
 11 12  1  0
 11 35  1  0
 11 36  1  0
 12 13  2  0
 12 37  1  0
 13 14  1  0
 14 15  2  0
 14 16  1  0
 16 18  1  0
 16 17  1  0
 16 38  1  6
 17 18  1  0
 18 19  1  0
 18 39  1  6
 19 20  1  1
 19 21  1  0
 20 40  1  0
 21 22  1  0
 22 41  1  0
 22 42  1  0
M  END
>  <i_m_ct_stereo_status>  (157) 
1

>  <s_m_source_file>  (157) 
/var/tmp/pbs.5076255.sched01/tmp06uo9b_r/40lj_pgbub.sdf

>  <i_m_source_file_index>  (157) 
28

>  <i_lp_mmshare_version>  (157) 
48012

>  <i_f3d_flags>  (157) 
0

>  <s_epik_input>  (157) 
W0NIM11bQ0gyXVtDSDJdQz0xW0NIMl1PW0NAXShbT0hdKShDMVtDQF0yM1tDSDNdKVtDQEhdNFtDQEhdKE80KUMoPU8pQzM9W0NIXVtDSDJdW0NIMl1DMj1P

>  <s_epik_cmdline>  (157) 
J2VwaWtfcHl0aG9uJywgJy1waHQnLCAnMi4wJywgJy1waCcsICc3LjAnLCAnLXRuJywgJzgnLCAnLW1hJywgJzIwMCcsICctaW1hZScsICc8aW5maWxlLm1hZT4nLCAnLW9tYWUnLCAnPG91dGZpbGUubWFlPic=

>  <r_lp_tautomer_probability>  (157) 
0.99995

>  <r_epik_Ionization_Penalty>  (157) 
0.0015105

>  <r_epik_Ionization_Penalty_Charging>  (157) 
0

>  <r_epik_Ionization_Penalty_Neutral>  (157) 
0.0015105

>  <r_epik_State_Penalty>  (157) 
0.00101243

>  <r_epik_Charging_Adjusted_Penalty>  (157) 
0.00101243

>  <i_epik_Tot_Q>  (157) 
0

>  <i_epik_Tot_abs_Q>  (157) 
0

>  <s_lp_Force_Field>  (157) 
OPLS3e

>  <r_lp_Energy>  (157) 
25.7105

>  <b_lp_Chiralities_Consistent>  (157) 
1

>  <s_lp_Variant>  (157) 
48:0-1

>  <s_i_glide_gridfile>  (157) 
pfpi4k_grid

>  <i_i_glide_lignum>  (157) 
28

>  <i_i_glide_rotatable_bonds>  (157) 
3

>  <r_i_docking_score>  (157) 
-3.0669

>  <r_i_glide_ligand_efficiency>  (157) 
-0.139405

>  <r_i_glide_ligand_efficiency_sa>  (157) 
-0.390617

>  <r_i_glide_ligand_efficiency_ln>  (157) 
-0.749663

>  <r_i_glide_gscore>  (157) 
-3.0669

>  <r_i_glide_lipo>  (157) 
-0.419026

>  <r_i_glide_hbond>  (157) 
-0.0632309

>  <r_i_glide_metal>  (157) 
-0

>  <r_i_glide_rewards>  (157) 
-1.36678

>  <r_i_glide_evdw>  (157) 
-18.0495

>  <r_i_glide_ecoul>  (157) 
-3.07862

>  <r_i_glide_erotb>  (157) 
0.199098

>  <r_i_glide_esite>  (157) 
-0.05269

>  <r_i_glide_emodel>  (157) 
-25.5615

>  <r_i_glide_energy>  (157) 
-21.1282

>  <r_i_glide_einternal>  (157) 
1.59172

>  <r_i_glide_intrahb_reward>  (157) 
-0

>  <i_i_glide_confnum>  (157) 
3

>  <i_i_glide_posenum>  (157) 
23

>  <r_i_glide_eff_state_penalty>  (157) 
0

>  <ligand_id>  (157) 
48

>  <original_smiles>  (157) 
CCCC1=C2C3(C)C(=O)CCC=C3C(=O)C3OC3C2(O)OC1

>  <smiles>  (157) 
[H]OC12OC([H])([H])C(C([H])([H])C([H])([H])C([H])([H])[H])=C1C1(C([H])([H])[H])C(=O)C([H])([H])C([H])([H])C([H])=C1C(=O)C1([H])OC12[H]

$$$$
50:0:0
     RDKit          3D

 17 18  0  0  1  0  0  0  0  0999 V2000
    3.5751   -8.3777    1.1028 C   0  0  0  0  0  0  0  0  0  0  0  0
    2.2702   -8.4991    1.7631 N   0  0  0  0  0  0  0  0  0  0  0  0
    2.0560   -9.7127    2.4806 C   0  0  0  0  0  0  0  0  0  0  0  0
    0.9700  -10.0187    3.1456 N   0  0  0  0  0  0  0  0  0  0  0  0
    0.0243   -9.0240    3.0805 C   0  0  0  0  0  0  0  0  0  0  0  0
   -1.2226   -9.0434    3.6793 N   0  0  0  0  0  0  0  0  0  0  0  0
   -1.8132   -7.8794    3.3638 C   0  0  0  0  0  0  0  0  0  0  0  0
   -1.0667   -7.0683    2.6099 N   0  0  0  0  0  0  0  0  0  0  0  0
    0.0941   -7.8223    2.4351 C   0  0  0  0  0  0  0  0  0  0  0  0
    1.3297   -7.5091    1.6871 C   0  0  0  0  0  0  0  0  0  0  0  0
    1.4582   -6.4474    1.0706 O   0  0  0  0  0  0  0  0  0  0  0  0
    3.6952   -7.4378    0.5654 H   0  0  0  0  0  0  0  0  0  0  0  0
    3.7148   -9.1794    0.3781 H   0  0  0  0  0  0  0  0  0  0  0  0
    4.3860   -8.4270    1.8274 H   0  0  0  0  0  0  0  0  0  0  0  0
    2.9014  -10.4019    2.4361 H   0  0  0  0  0  0  0  0  0  0  0  0
   -2.8089   -7.6135    3.6841 H   0  0  0  0  0  0  0  0  0  0  0  0
   -1.6091   -9.7974    4.2561 H   0  0  0  0  0  0  0  0  0  0  0  0
  1 12  1  0
  1 13  1  0
  1 14  1  0
  1  2  1  0
  2  3  1  0
  2 10  1  0
  3  4  2  0
  3 15  1  0
  4  5  1  0
  5  6  1  0
  5  9  2  0
  6  7  1  0
  6 17  1  0
  7  8  2  0
  7 16  1  0
  8  9  1  0
  9 10  1  0
 10 11  2  0
M  END
>  <i_m_ct_stereo_status>  (158) 
1

>  <s_m_source_file>  (158) 
/var/tmp/pbs.5076255.sched01/tmp06uo9b_r/40lj_pgbub.sdf

>  <i_m_source_file_index>  (158) 
30

>  <i_lp_mmshare_version>  (158) 
48012

>  <i_f3d_flags>  (158) 
0

>  <s_epik_input>  (158) 
bjFbY0hdbihbQ0gzXSljKD1PKWMoYzEyKW5bY0hdW25IXTI=

>  <s_epik_cmdline>  (158) 
J2VwaWtfcHl0aG9uJywgJy1waHQnLCAnMi4wJywgJy1waCcsICc3LjAnLCAnLXRuJywgJzgnLCAnLW1hJywgJzIwMCcsICctaW1hZScsICc8aW5maWxlLm1hZT4nLCAnLW9tYWUnLCAnPG91dGZpbGUubWFlPic=

>  <r_lp_tautomer_probability>  (158) 
0.632152

>  <r_epik_Ionization_Penalty>  (158) 
0.00296739

>  <r_epik_Ionization_Penalty_Charging>  (158) 
1.24336e-12

>  <r_epik_Ionization_Penalty_Neutral>  (158) 
0.00296739

>  <r_epik_State_Penalty>  (158) 
0.255181

>  <r_epik_Charging_Adjusted_Penalty>  (158) 
0.255181

>  <i_epik_Tot_Q>  (158) 
0

>  <i_epik_Tot_abs_Q>  (158) 
0

>  <s_lp_Force_Field>  (158) 
OPLS3e

>  <r_lp_Energy>  (158) 
33.8363

>  <b_lp_Chiralities_Consistent>  (158) 
1

>  <s_lp_Variant>  (158) 
50:0-1

>  <s_i_glide_gridfile>  (158) 
pfpi4k_grid

>  <i_i_glide_lignum>  (158) 
30

>  <i_i_glide_rotatable_bonds>  (158) 
0

>  <r_i_docking_score>  (158) 
-4.86612

>  <r_i_glide_ligand_efficiency>  (158) 
-0.442375

>  <r_i_glide_ligand_efficiency_sa>  (158) 
-0.983833

>  <r_i_glide_ligand_efficiency_ln>  (158) 
-1.4321

>  <r_i_glide_gscore>  (158) 
-4.86612

>  <r_i_glide_lipo>  (158) 
0

>  <r_i_glide_hbond>  (158) 
-0.33757

>  <r_i_glide_metal>  (158) 
-0

>  <r_i_glide_rewards>  (158) 
-2.34463

>  <r_i_glide_evdw>  (158) 
-17.1008

>  <r_i_glide_ecoul>  (158) 
-7.37852

>  <r_i_glide_erotb>  (158) 
0

>  <r_i_glide_esite>  (158) 
-0.222106

>  <r_i_glide_emodel>  (158) 
-33.9942

>  <r_i_glide_energy>  (158) 
-24.4794

>  <r_i_glide_einternal>  (158) 
0

>  <r_i_glide_intrahb_reward>  (158) 
-0

>  <i_i_glide_confnum>  (158) 
1

>  <i_i_glide_posenum>  (158) 
5

>  <r_i_glide_eff_state_penalty>  (158) 
0

>  <ligand_id>  (158) 
50

>  <original_smiles>  (158) 
Cn1cnc2[nH]cnc2c1=O

>  <smiles>  (158) 
[H]c1nc2c(nc([H])n2[H])c(=O)n1C([H])([H])[H]

$$$$
50:0:1
     RDKit          3D

 17 18  0  0  1  0  0  0  0  0999 V2000
   -0.5713   -9.4420    3.6541 C   0  0  0  0  0  0  0  0  0  0  0  0
    0.4571   -8.7157    2.9100 N   0  0  0  0  0  0  0  0  0  0  0  0
    1.7694   -9.2773    2.9405 C   0  0  0  0  0  0  0  0  0  0  0  0
    2.8281   -8.7670    2.3597 N   0  0  0  0  0  0  0  0  0  0  0  0
    2.5371   -7.6041    1.6857 C   0  0  0  0  0  0  0  0  0  0  0  0
    3.4310   -6.8119    0.9844 N   0  0  0  0  0  0  0  0  0  0  0  0
    2.7246   -5.7893    0.4777 C   0  0  0  0  0  0  0  0  0  0  0  0
    1.4183   -5.8560    0.7492 N   0  0  0  0  0  0  0  0  0  0  0  0
    1.3300   -6.9829    1.5507 C   0  0  0  0  0  0  0  0  0  0  0  0
    0.1628   -7.5647    2.2383 C   0  0  0  0  0  0  0  0  0  0  0  0
   -0.9460   -7.0265    2.2060 O   0  0  0  0  0  0  0  0  0  0  0  0
   -1.5561   -8.9856    3.5988 H   0  0  0  0  0  0  0  0  0  0  0  0
   -0.3131   -9.5057    4.7099 H   0  0  0  0  0  0  0  0  0  0  0  0
   -0.6665  -10.4479    3.2541 H   0  0  0  0  0  0  0  0  0  0  0  0
    1.8303  -10.2001    3.5217 H   0  0  0  0  0  0  0  0  0  0  0  0
    3.1575   -5.0201   -0.1471 H   0  0  0  0  0  0  0  0  0  0  0  0
    4.4109   -7.0039    0.8355 H   0  0  0  0  0  0  0  0  0  0  0  0
  1 12  1  0
  1 13  1  0
  1 14  1  0
  1  2  1  0
  2  3  1  0
  2 10  1  0
  3  4  2  0
  3 15  1  0
  4  5  1  0
  5  6  1  0
  5  9  2  0
  6  7  1  0
  6 17  1  0
  7  8  2  0
  7 16  1  0
  8  9  1  0
  9 10  1  0
 10 11  2  0
M  END
>  <i_m_ct_stereo_status>  (159) 
1

>  <s_m_source_file>  (159) 
/var/tmp/pbs.5076255.sched01/tmp06uo9b_r/40lj_pgbub.sdf

>  <i_m_source_file_index>  (159) 
30

>  <i_lp_mmshare_version>  (159) 
48012

>  <i_f3d_flags>  (159) 
0

>  <s_epik_input>  (159) 
bjFbY0hdbihbQ0gzXSljKD1PKWMoYzEyKW5bY0hdW25IXTI=

>  <s_epik_cmdline>  (159) 
J2VwaWtfcHl0aG9uJywgJy1waHQnLCAnMi4wJywgJy1waCcsICc3LjAnLCAnLXRuJywgJzgnLCAnLW1hJywgJzIwMCcsICctaW1hZScsICc8aW5maWxlLm1hZT4nLCAnLW9tYWUnLCAnPG91dGZpbGUubWFlPic=

>  <r_lp_tautomer_probability>  (159) 
0.632152

>  <r_epik_Ionization_Penalty>  (159) 
0.00296739

>  <r_epik_Ionization_Penalty_Charging>  (159) 
1.24336e-12

>  <r_epik_Ionization_Penalty_Neutral>  (159) 
0.00296739

>  <r_epik_State_Penalty>  (159) 
0.255181

>  <r_epik_Charging_Adjusted_Penalty>  (159) 
0.255181

>  <i_epik_Tot_Q>  (159) 
0

>  <i_epik_Tot_abs_Q>  (159) 
0

>  <s_lp_Force_Field>  (159) 
OPLS3e

>  <r_lp_Energy>  (159) 
33.8363

>  <b_lp_Chiralities_Consistent>  (159) 
1

>  <s_lp_Variant>  (159) 
50:0-1

>  <s_i_glide_gridfile>  (159) 
pfpi4k_grid

>  <i_i_glide_lignum>  (159) 
30

>  <i_i_glide_rotatable_bonds>  (159) 
0

>  <r_i_docking_score>  (159) 
-4.40277

>  <r_i_glide_ligand_efficiency>  (159) 
-0.400252

>  <r_i_glide_ligand_efficiency_sa>  (159) 
-0.890153

>  <r_i_glide_ligand_efficiency_ln>  (159) 
-1.29574

>  <r_i_glide_gscore>  (159) 
-4.40277

>  <r_i_glide_lipo>  (159) 
0

>  <r_i_glide_hbond>  (159) 
-0.316036

>  <r_i_glide_metal>  (159) 
-0

>  <r_i_glide_rewards>  (159) 
-2.26229

>  <r_i_glide_evdw>  (159) 
-14.4408

>  <r_i_glide_ecoul>  (159) 
-6.90671

>  <r_i_glide_erotb>  (159) 
0

>  <r_i_glide_esite>  (159) 
-0.066404

>  <r_i_glide_emodel>  (159) 
-29.9355

>  <r_i_glide_energy>  (159) 
-21.3476

>  <r_i_glide_einternal>  (159) 
0

>  <r_i_glide_intrahb_reward>  (159) 
-0

>  <i_i_glide_confnum>  (159) 
1

>  <i_i_glide_posenum>  (159) 
31

>  <r_i_glide_eff_state_penalty>  (159) 
0

>  <ligand_id>  (159) 
50

>  <original_smiles>  (159) 
Cn1cnc2[nH]cnc2c1=O

>  <smiles>  (159) 
[H]c1nc2c(nc([H])n2[H])c(=O)n1C([H])([H])[H]

$$$$
50:0:2
     RDKit          3D

 17 18  0  0  1  0  0  0  0  0999 V2000
   -1.9265   -8.7665    3.2867 C   0  0  0  0  0  0  0  0  0  0  0  0
   -0.5182   -8.7721    2.8733 N   0  0  0  0  0  0  0  0  0  0  0  0
    0.2123   -9.9625    3.1713 C   0  0  0  0  0  0  0  0  0  0  0  0
    1.4732  -10.1687    2.8818 N   0  0  0  0  0  0  0  0  0  0  0  0
    2.0484   -9.0876    2.2536 C   0  0  0  0  0  0  0  0  0  0  0  0
    3.3611   -8.9960    1.8233 N   0  0  0  0  0  0  0  0  0  0  0  0
    3.5075   -7.7728    1.2848 C   0  0  0  0  0  0  0  0  0  0  0  0
    2.3924   -7.0420    1.3012 N   0  0  0  0  0  0  0  0  0  0  0  0
    1.4768   -7.8923    1.9183 C   0  0  0  0  0  0  0  0  0  0  0  0
    0.0446   -7.6983    2.2502 C   0  0  0  0  0  0  0  0  0  0  0  0
   -0.5522   -6.6560    1.9882 O   0  0  0  0  0  0  0  0  0  0  0  0
   -2.4447   -7.8413    3.0458 H   0  0  0  0  0  0  0  0  0  0  0  0
   -2.0090   -8.8952    4.3649 H   0  0  0  0  0  0  0  0  0  0  0  0
   -2.4727   -9.5671    2.7916 H   0  0  0  0  0  0  0  0  0  0  0  0
   -0.3831  -10.7172    3.6817 H   0  0  0  0  0  0  0  0  0  0  0  0
    4.4356   -7.4232    0.8457 H   0  0  0  0  0  0  0  0  0  0  0  0
    4.0553   -9.7234    1.9010 H   0  0  0  0  0  0  0  0  0  0  0  0
  1 12  1  0
  1 13  1  0
  1 14  1  0
  1  2  1  0
  2  3  1  0
  2 10  1  0
  3  4  2  0
  3 15  1  0
  4  5  1  0
  5  6  1  0
  5  9  2  0
  6  7  1  0
  6 17  1  0
  7  8  2  0
  7 16  1  0
  8  9  1  0
  9 10  1  0
 10 11  2  0
M  END
>  <i_m_ct_stereo_status>  (160) 
1

>  <s_m_source_file>  (160) 
/var/tmp/pbs.5076255.sched01/tmp06uo9b_r/40lj_pgbub.sdf

>  <i_m_source_file_index>  (160) 
30

>  <i_lp_mmshare_version>  (160) 
48012

>  <i_f3d_flags>  (160) 
0

>  <s_epik_input>  (160) 
bjFbY0hdbihbQ0gzXSljKD1PKWMoYzEyKW5bY0hdW25IXTI=

>  <s_epik_cmdline>  (160) 
J2VwaWtfcHl0aG9uJywgJy1waHQnLCAnMi4wJywgJy1waCcsICc3LjAnLCAnLXRuJywgJzgnLCAnLW1hJywgJzIwMCcsICctaW1hZScsICc8aW5maWxlLm1hZT4nLCAnLW9tYWUnLCAnPG91dGZpbGUubWFlPic=

>  <r_lp_tautomer_probability>  (160) 
0.632152

>  <r_epik_Ionization_Penalty>  (160) 
0.00296739

>  <r_epik_Ionization_Penalty_Charging>  (160) 
1.24336e-12

>  <r_epik_Ionization_Penalty_Neutral>  (160) 
0.00296739

>  <r_epik_State_Penalty>  (160) 
0.255181

>  <r_epik_Charging_Adjusted_Penalty>  (160) 
0.255181

>  <i_epik_Tot_Q>  (160) 
0

>  <i_epik_Tot_abs_Q>  (160) 
0

>  <s_lp_Force_Field>  (160) 
OPLS3e

>  <r_lp_Energy>  (160) 
33.8363

>  <b_lp_Chiralities_Consistent>  (160) 
1

>  <s_lp_Variant>  (160) 
50:0-1

>  <s_i_glide_gridfile>  (160) 
pfpi4k_grid

>  <i_i_glide_lignum>  (160) 
30

>  <i_i_glide_rotatable_bonds>  (160) 
0

>  <r_i_docking_score>  (160) 
-4.20306

>  <r_i_glide_ligand_efficiency>  (160) 
-0.382097

>  <r_i_glide_ligand_efficiency_sa>  (160) 
-0.849775

>  <r_i_glide_ligand_efficiency_ln>  (160) 
-1.23696

>  <r_i_glide_gscore>  (160) 
-4.20306

>  <r_i_glide_lipo>  (160) 
0

>  <r_i_glide_hbond>  (160) 
-0.170417

>  <r_i_glide_metal>  (160) 
-0

>  <r_i_glide_rewards>  (160) 
-2.33715

>  <r_i_glide_evdw>  (160) 
-17.3456

>  <r_i_glide_ecoul>  (160) 
-4.94972

>  <r_i_glide_erotb>  (160) 
0

>  <r_i_glide_esite>  (160) 
-0.0857573

>  <r_i_glide_emodel>  (160) 
-30.5133

>  <r_i_glide_energy>  (160) 
-22.2953

>  <r_i_glide_einternal>  (160) 
0

>  <r_i_glide_intrahb_reward>  (160) 
-0

>  <i_i_glide_confnum>  (160) 
1

>  <i_i_glide_posenum>  (160) 
1

>  <r_i_glide_eff_state_penalty>  (160) 
0

>  <ligand_id>  (160) 
50

>  <original_smiles>  (160) 
Cn1cnc2[nH]cnc2c1=O

>  <smiles>  (160) 
[H]c1nc2c(nc([H])n2[H])c(=O)n1C([H])([H])[H]

$$$$
50:1:0
     RDKit          3D

 17 18  0  0  1  0  0  0  0  0999 V2000
    2.9248   -0.7064   -4.7382 C   0  0  0  0  0  0  0  0  0  0  0  0
    3.6807   -1.2684   -3.6251 N   0  0  0  0  0  0  0  0  0  0  0  0
    4.2123   -0.3402   -2.7061 C   0  0  0  0  0  0  0  0  0  0  0  0
    4.9128   -0.6642   -1.6447 N   0  0  0  0  0  0  0  0  0  0  0  0
    5.1179   -2.0257   -1.4190 C   0  0  0  0  0  0  0  0  0  0  0  0
    5.8357   -2.6219   -0.3882 N   0  0  0  0  0  0  0  0  0  0  0  0
    5.7097   -3.9245   -0.6733 C   0  0  0  0  0  0  0  0  0  0  0  0
    5.0101   -4.1827   -1.7949 N   0  0  0  0  0  0  0  0  0  0  0  0
    4.6230   -2.9498   -2.2816 C   0  0  0  0  0  0  0  0  0  0  0  0
    3.8586   -2.6098   -3.4751 C   0  0  0  0  0  0  0  0  0  0  0  0
    3.4630   -3.4627   -4.2606 O   0  0  0  0  0  0  0  0  0  0  0  0
    2.8461    0.3868   -4.7406 H   0  0  0  0  0  0  0  0  0  0  0  0
    1.9168   -1.1116   -4.7176 H   0  0  0  0  0  0  0  0  0  0  0  0
    3.4147   -1.0079   -5.6597 H   0  0  0  0  0  0  0  0  0  0  0  0
    3.9902    0.7026   -2.9576 H   0  0  0  0  0  0  0  0  0  0  0  0
    6.1569   -4.6845   -0.0501 H   0  0  0  0  0  0  0  0  0  0  0  0
    4.7872   -5.0871   -2.2023 H   0  0  0  0  0  0  0  0  0  0  0  0
  1 12  1  0
  1 13  1  0
  1 14  1  0
  1  2  1  0
  2 10  1  0
  2  3  1  0
  3 15  1  0
  3  4  2  0
  4  5  1  0
  5  6  1  0
  5  9  2  0
  6  7  2  0
  7 16  1  0
  7  8  1  0
  8  9  1  0
  8 17  1  0
  9 10  1  0
 10 11  2  0
M  END
>  <i_m_ct_stereo_status>  (161) 
1

>  <s_m_source_file>  (161) 
/var/tmp/pbs.5076255.sched01/tmp06uo9b_r/40lj_pgbub.sdf

>  <i_m_source_file_index>  (161) 
31

>  <i_lp_mmshare_version>  (161) 
48012

>  <i_f3d_flags>  (161) 
0

>  <s_epik_input>  (161) 
bjFbY0hdbihbQ0gzXSljKD1PKWMoYzEyKW5bY0hdW25IXTI=

>  <s_epik_cmdline>  (161) 
J2VwaWtfcHl0aG9uJywgJy1waHQnLCAnMi4wJywgJy1waCcsICc3LjAnLCAnLXRuJywgJzgnLCAnLW1hJywgJzIwMCcsICctaW1hZScsICc8aW5maWxlLm1hZT4nLCAnLW9tYWUnLCAnPG91dGZpbGUubWFlPic=

>  <r_lp_tautomer_probability>  (161) 
0.353815

>  <r_epik_Ionization_Penalty>  (161) 
0.0004101

>  <r_epik_Ionization_Penalty_Charging>  (161) 
1.3156e-11

>  <r_epik_Ionization_Penalty_Neutral>  (161) 
0.0004101

>  <r_epik_State_Penalty>  (161) 
0.6221

>  <r_epik_Charging_Adjusted_Penalty>  (161) 
0.6221

>  <i_epik_Tot_Q>  (161) 
0

>  <i_epik_Tot_abs_Q>  (161) 
0

>  <s_lp_Force_Field>  (161) 
OPLS3e

>  <r_lp_Energy>  (161) 
31.3703

>  <b_lp_Chiralities_Consistent>  (161) 
1

>  <s_lp_Variant>  (161) 
50:0-2

>  <s_i_glide_gridfile>  (161) 
pfpi4k_grid

>  <i_i_glide_lignum>  (161) 
31

>  <i_i_glide_rotatable_bonds>  (161) 
0

>  <r_i_docking_score>  (161) 
-4.9125

>  <r_i_glide_ligand_efficiency>  (161) 
-0.446591

>  <r_i_glide_ligand_efficiency_sa>  (161) 
-0.99321

>  <r_i_glide_ligand_efficiency_ln>  (161) 
-1.44575

>  <r_i_glide_gscore>  (161) 
-4.9125

>  <r_i_glide_lipo>  (161) 
-0.3583

>  <r_i_glide_hbond>  (161) 
-0.264171

>  <r_i_glide_metal>  (161) 
-0

>  <r_i_glide_rewards>  (161) 
-2.89894

>  <r_i_glide_evdw>  (161) 
-17.5055

>  <r_i_glide_ecoul>  (161) 
-3.03836

>  <r_i_glide_erotb>  (161) 
0

>  <r_i_glide_esite>  (161) 
-0.0600578

>  <r_i_glide_emodel>  (161) 
-27.5478

>  <r_i_glide_energy>  (161) 
-20.5439

>  <r_i_glide_einternal>  (161) 
0

>  <r_i_glide_intrahb_reward>  (161) 
-0

>  <i_i_glide_confnum>  (161) 
2

>  <i_i_glide_posenum>  (161) 
7

>  <r_i_glide_eff_state_penalty>  (161) 
0

>  <ligand_id>  (161) 
50

>  <original_smiles>  (161) 
Cn1cnc2[nH]cnc2c1=O

>  <smiles>  (161) 
[H]c1nc2nc([H])n([H])c2c(=O)n1C([H])([H])[H]

$$$$
50:1:1
     RDKit          3D

 17 18  0  0  1  0  0  0  0  0999 V2000
    6.0967   -5.2172    0.6885 C   0  0  0  0  0  0  0  0  0  0  0  0
    4.6677   -5.5322    0.7624 N   0  0  0  0  0  0  0  0  0  0  0  0
    3.7522   -4.5478    0.2837 C   0  0  0  0  0  0  0  0  0  0  0  0
    2.4513   -4.6869    0.3000 N   0  0  0  0  0  0  0  0  0  0  0  0
    1.9629   -5.8896    0.8290 C   0  0  0  0  0  0  0  0  0  0  0  0
    0.6285   -6.2759    0.9537 N   0  0  0  0  0  0  0  0  0  0  0  0
    0.7372   -7.4931    1.5086 C   0  0  0  0  0  0  0  0  0  0  0  0
    2.0033   -7.8948    1.7305 N   0  0  0  0  0  0  0  0  0  0  0  0
    2.7998   -6.8530    1.2944 C   0  0  0  0  0  0  0  0  0  0  0  0
    4.2540   -6.7244    1.2810 C   0  0  0  0  0  0  0  0  0  0  0  0
    4.9937   -7.6119    1.7057 O   0  0  0  0  0  0  0  0  0  0  0  0
    6.3087   -4.2392    0.2540 H   0  0  0  0  0  0  0  0  0  0  0  0
    6.6082   -5.9638    0.0842 H   0  0  0  0  0  0  0  0  0  0  0  0
    6.5378   -5.2398    1.6837 H   0  0  0  0  0  0  0  0  0  0  0  0
    4.2250   -3.6450   -0.1016 H   0  0  0  0  0  0  0  0  0  0  0  0
   -0.1201   -8.1131    1.7316 H   0  0  0  0  0  0  0  0  0  0  0  0
    2.3144   -8.7774    2.1208 H   0  0  0  0  0  0  0  0  0  0  0  0
  1 12  1  0
  1 13  1  0
  1 14  1  0
  1  2  1  0
  2 10  1  0
  2  3  1  0
  3 15  1  0
  3  4  2  0
  4  5  1  0
  5  6  1  0
  5  9  2  0
  6  7  2  0
  7 16  1  0
  7  8  1  0
  8  9  1  0
  8 17  1  0
  9 10  1  0
 10 11  2  0
M  END
>  <i_m_ct_stereo_status>  (162) 
1

>  <s_m_source_file>  (162) 
/var/tmp/pbs.5076255.sched01/tmp06uo9b_r/40lj_pgbub.sdf

>  <i_m_source_file_index>  (162) 
31

>  <i_lp_mmshare_version>  (162) 
48012

>  <i_f3d_flags>  (162) 
0

>  <s_epik_input>  (162) 
bjFbY0hdbihbQ0gzXSljKD1PKWMoYzEyKW5bY0hdW25IXTI=

>  <s_epik_cmdline>  (162) 
J2VwaWtfcHl0aG9uJywgJy1waHQnLCAnMi4wJywgJy1waCcsICc3LjAnLCAnLXRuJywgJzgnLCAnLW1hJywgJzIwMCcsICctaW1hZScsICc8aW5maWxlLm1hZT4nLCAnLW9tYWUnLCAnPG91dGZpbGUubWFlPic=

>  <r_lp_tautomer_probability>  (162) 
0.353815

>  <r_epik_Ionization_Penalty>  (162) 
0.0004101

>  <r_epik_Ionization_Penalty_Charging>  (162) 
1.3156e-11

>  <r_epik_Ionization_Penalty_Neutral>  (162) 
0.0004101

>  <r_epik_State_Penalty>  (162) 
0.6221

>  <r_epik_Charging_Adjusted_Penalty>  (162) 
0.6221

>  <i_epik_Tot_Q>  (162) 
0

>  <i_epik_Tot_abs_Q>  (162) 
0

>  <s_lp_Force_Field>  (162) 
OPLS3e

>  <r_lp_Energy>  (162) 
31.3703

>  <b_lp_Chiralities_Consistent>  (162) 
1

>  <s_lp_Variant>  (162) 
50:0-2

>  <s_i_glide_gridfile>  (162) 
pfpi4k_grid

>  <i_i_glide_lignum>  (162) 
31

>  <i_i_glide_rotatable_bonds>  (162) 
0

>  <r_i_docking_score>  (162) 
-4.33924

>  <r_i_glide_ligand_efficiency>  (162) 
-0.394477

>  <r_i_glide_ligand_efficiency_sa>  (162) 
-0.877308

>  <r_i_glide_ligand_efficiency_ln>  (162) 
-1.27704

>  <r_i_glide_gscore>  (162) 
-4.33924

>  <r_i_glide_lipo>  (162) 
-0.21712

>  <r_i_glide_hbond>  (162) 
-0.16

>  <r_i_glide_metal>  (162) 
-0

>  <r_i_glide_rewards>  (162) 
-2.34851

>  <r_i_glide_evdw>  (162) 
-12.3346

>  <r_i_glide_ecoul>  (162) 
-5.68217

>  <r_i_glide_erotb>  (162) 
0

>  <r_i_glide_esite>  (162) 
-0.144557

>  <r_i_glide_emodel>  (162) 
-24.2123

>  <r_i_glide_energy>  (162) 
-18.0168

>  <r_i_glide_einternal>  (162) 
0

>  <r_i_glide_intrahb_reward>  (162) 
-0

>  <i_i_glide_confnum>  (162) 
1

>  <i_i_glide_posenum>  (162) 
3

>  <r_i_glide_eff_state_penalty>  (162) 
0

>  <ligand_id>  (162) 
50

>  <original_smiles>  (162) 
Cn1cnc2[nH]cnc2c1=O

>  <smiles>  (162) 
[H]c1nc2nc([H])n([H])c2c(=O)n1C([H])([H])[H]

$$$$
50:1:2
     RDKit          3D

 17 18  0  0  1  0  0  0  0  0999 V2000
   -2.4716    3.6075    6.7299 C   0  0  0  0  0  0  0  0  0  0  0  0
   -1.8188    2.7157    5.7755 N   0  0  0  0  0  0  0  0  0  0  0  0
   -1.6332    1.3595    6.1707 C   0  0  0  0  0  0  0  0  0  0  0  0
   -1.0741    0.4415    5.4252 N   0  0  0  0  0  0  0  0  0  0  0  0
   -0.6292    0.8707    4.1638 C   0  0  0  0  0  0  0  0  0  0  0  0
    0.0163    0.1103    3.1945 N   0  0  0  0  0  0  0  0  0  0  0  0
    0.2043    0.9887    2.2031 C   0  0  0  0  0  0  0  0  0  0  0  0
   -0.2460    2.2283    2.4787 N   0  0  0  0  0  0  0  0  0  0  0  0
   -0.7900    2.1539    3.7444 C   0  0  0  0  0  0  0  0  0  0  0  0
   -1.4213    3.1876    4.5579 C   0  0  0  0  0  0  0  0  0  0  0  0
   -1.5659    4.3456    4.1625 O   0  0  0  0  0  0  0  0  0  0  0  0
   -2.7611    3.1248    7.6670 H   0  0  0  0  0  0  0  0  0  0  0  0
   -3.3770    4.0013    6.2745 H   0  0  0  0  0  0  0  0  0  0  0  0
   -1.8058    4.4340    6.9773 H   0  0  0  0  0  0  0  0  0  0  0  0
   -2.0077    1.1362    7.1713 H   0  0  0  0  0  0  0  0  0  0  0  0
    0.6802    0.7218    1.2680 H   0  0  0  0  0  0  0  0  0  0  0  0
   -0.1861    3.0522    1.8754 H   0  0  0  0  0  0  0  0  0  0  0  0
  1 12  1  0
  1 13  1  0
  1 14  1  0
  1  2  1  0
  2 10  1  0
  2  3  1  0
  3 15  1  0
  3  4  2  0
  4  5  1  0
  5  6  1  0
  5  9  2  0
  6  7  2  0
  7 16  1  0
  7  8  1  0
  8  9  1  0
  8 17  1  0
  9 10  1  0
 10 11  2  0
M  END
>  <i_m_ct_stereo_status>  (163) 
1

>  <s_m_source_file>  (163) 
/var/tmp/pbs.5076255.sched01/tmp06uo9b_r/40lj_pgbub.sdf

>  <i_m_source_file_index>  (163) 
31

>  <i_lp_mmshare_version>  (163) 
48012

>  <i_f3d_flags>  (163) 
0

>  <s_epik_input>  (163) 
bjFbY0hdbihbQ0gzXSljKD1PKWMoYzEyKW5bY0hdW25IXTI=

>  <s_epik_cmdline>  (163) 
J2VwaWtfcHl0aG9uJywgJy1waHQnLCAnMi4wJywgJy1waCcsICc3LjAnLCAnLXRuJywgJzgnLCAnLW1hJywgJzIwMCcsICctaW1hZScsICc8aW5maWxlLm1hZT4nLCAnLW9tYWUnLCAnPG91dGZpbGUubWFlPic=

>  <r_lp_tautomer_probability>  (163) 
0.353815

>  <r_epik_Ionization_Penalty>  (163) 
0.0004101

>  <r_epik_Ionization_Penalty_Charging>  (163) 
1.3156e-11

>  <r_epik_Ionization_Penalty_Neutral>  (163) 
0.0004101

>  <r_epik_State_Penalty>  (163) 
0.6221

>  <r_epik_Charging_Adjusted_Penalty>  (163) 
0.6221

>  <i_epik_Tot_Q>  (163) 
0

>  <i_epik_Tot_abs_Q>  (163) 
0

>  <s_lp_Force_Field>  (163) 
OPLS3e

>  <r_lp_Energy>  (163) 
31.3703

>  <b_lp_Chiralities_Consistent>  (163) 
1

>  <s_lp_Variant>  (163) 
50:0-2

>  <s_i_glide_gridfile>  (163) 
pfpi4k_grid

>  <i_i_glide_lignum>  (163) 
31

>  <i_i_glide_rotatable_bonds>  (163) 
0

>  <r_i_docking_score>  (163) 
-3.98808

>  <r_i_glide_ligand_efficiency>  (163) 
-0.362552

>  <r_i_glide_ligand_efficiency_sa>  (163) 
-0.806309

>  <r_i_glide_ligand_efficiency_ln>  (163) 
-1.17369

>  <r_i_glide_gscore>  (163) 
-3.98808

>  <r_i_glide_lipo>  (163) 
-0.0978204

>  <r_i_glide_hbond>  (163) 
-0.240685

>  <r_i_glide_metal>  (163) 
-0

>  <r_i_glide_rewards>  (163) 
-2.32254

>  <r_i_glide_evdw>  (163) 
-12.893

>  <r_i_glide_ecoul>  (163) 
-3.07105

>  <r_i_glide_erotb>  (163) 
0

>  <r_i_glide_esite>  (163) 
-0.221721

>  <r_i_glide_emodel>  (163) 
-21.6574

>  <r_i_glide_energy>  (163) 
-15.9641

>  <r_i_glide_einternal>  (163) 
0

>  <r_i_glide_intrahb_reward>  (163) 
-0

>  <i_i_glide_confnum>  (163) 
1

>  <i_i_glide_posenum>  (163) 
13

>  <r_i_glide_eff_state_penalty>  (163) 
0

>  <ligand_id>  (163) 
50

>  <original_smiles>  (163) 
Cn1cnc2[nH]cnc2c1=O

>  <smiles>  (163) 
[H]c1nc2nc([H])n([H])c2c(=O)n1C([H])([H])[H]

$$$$
51:0:0
     RDKit          3D

 57 61  0  0  1  0  0  0  0  0999 V2000
    1.8925   -7.7531    3.8687 C   0  0  0  0  0  0  0  0  0  0  0  0
    2.7978   -8.6939    3.0245 C   0  0  2  0  0  0  0  0  0  0  0  0
    1.8582   -9.5049    2.0823 C   0  0  0  0  0  0  0  0  0  0  0  0
    0.7817  -10.3256    2.8298 C   0  0  0  0  0  0  0  0  0  0  0  0
    1.3024  -11.0394    4.0794 C   0  0  0  0  0  0  0  0  0  0  0  0
    0.6141  -11.9116    4.5910 O   0  0  0  0  0  0  0  0  0  0  0  0
    2.4764  -10.6481    4.6076 N   0  0  0  0  0  0  0  0  0  0  0  0
    3.4508   -9.7845    3.9332 C   0  0  2  0  0  0  0  0  0  0  0  0
    4.4648   -9.1926    4.9194 C   0  0  0  0  0  0  0  0  0  0  0  0
    5.6027   -8.4969    4.1534 C   0  0  0  0  0  0  0  0  0  0  0  0
    5.1370   -7.4214    3.1417 C   0  0  2  0  0  0  0  0  0  0  0  0
    5.2253   -5.9523    3.6714 C   0  0  2  0  0  0  0  0  0  0  0  0
    4.6444   -5.6254    5.0600 C   0  0  0  0  0  0  0  0  0  0  0  0
    5.1628   -4.2704    5.5492 C   0  0  0  0  0  0  0  0  0  0  0  0
    4.9909   -3.1688    4.5161 C   0  0  0  0  0  0  0  0  0  0  0  0
    5.0130   -1.8273    4.9467 C   0  0  0  0  0  0  0  0  0  0  0  0
    4.9303   -0.7761    4.0147 C   0  0  0  0  0  0  0  0  0  0  0  0
    4.9693    0.5212    4.4413 O   0  0  0  0  0  0  0  0  0  0  0  0
    4.8229   -1.0645    2.6437 C   0  0  0  0  0  0  0  0  0  0  0  0
    4.7819   -2.4054    2.2072 C   0  0  0  0  0  0  0  0  0  0  0  0
    4.8497   -3.4683    3.1356 C   0  0  0  0  0  0  0  0  0  0  0  0
    4.7779   -4.9119    2.6291 C   0  0  2  0  0  0  0  0  0  0  0  0
    3.3720   -5.2677    2.1284 C   0  0  0  0  0  0  0  0  0  0  0  0
    3.3561   -6.6415    1.4310 C   0  0  0  0  0  0  0  0  0  0  0  0
    3.9235   -7.8690    2.2298 C   0  0  2  0  0  0  0  0  0  0  0  0
    4.5335   -8.7778    1.1149 C   0  0  0  0  0  0  0  0  0  0  0  0
    1.3463   -7.0454    3.2462 H   0  0  0  0  0  0  0  0  0  0  0  0
    2.4578   -7.2044    4.6061 H   0  0  0  0  0  0  0  0  0  0  0  0
    1.1383   -8.2859    4.4458 H   0  0  0  0  0  0  0  0  0  0  0  0
    1.3819   -8.8603    1.3445 H   0  0  0  0  0  0  0  0  0  0  0  0
    2.4346  -10.2381    1.5162 H   0  0  0  0  0  0  0  0  0  0  0  0
   -0.0467   -9.6849    3.1272 H   0  0  0  0  0  0  0  0  0  0  0  0
    0.3450  -11.0675    2.1615 H   0  0  0  0  0  0  0  0  0  0  0  0
    2.7602  -11.1034    5.4634 H   0  0  0  0  0  0  0  0  0  0  0  0
    4.0085  -10.4783    3.3057 H   0  0  0  0  0  0  0  0  0  0  0  0
    3.9861   -8.5087    5.6189 H   0  0  0  0  0  0  0  0  0  0  0  0
    4.8945   -9.9879    5.5314 H   0  0  0  0  0  0  0  0  0  0  0  0
    6.3184   -8.0704    4.8571 H   0  0  0  0  0  0  0  0  0  0  0  0
    6.1609   -9.2651    3.6153 H   0  0  0  0  0  0  0  0  0  0  0  0
    5.9800   -7.3866    2.4521 H   0  0  0  0  0  0  0  0  0  0  0  0
    6.2960   -5.7848    3.7987 H   0  0  0  0  0  0  0  0  0  0  0  0
    3.5627   -5.5409    5.0157 H   0  0  0  0  0  0  0  0  0  0  0  0
    4.8854   -6.3920    5.7957 H   0  0  0  0  0  0  0  0  0  0  0  0
    4.6606   -3.9919    6.4759 H   0  0  0  0  0  0  0  0  0  0  0  0
    6.2272   -4.3507    5.7787 H   0  0  0  0  0  0  0  0  0  0  0  0
    5.1166   -1.6048    5.9990 H   0  0  0  0  0  0  0  0  0  0  0  0
    4.9993    0.6046    5.3819 H   0  0  0  0  0  0  0  0  0  0  0  0
    4.7649   -0.2588    1.9239 H   0  0  0  0  0  0  0  0  0  0  0  0
    4.6933   -2.6122    1.1505 H   0  0  0  0  0  0  0  0  0  0  0  0
    5.4579   -4.9736    1.7796 H   0  0  0  0  0  0  0  0  0  0  0  0
    2.6482   -5.2113    2.9379 H   0  0  0  0  0  0  0  0  0  0  0  0
    3.0468   -4.5233    1.4003 H   0  0  0  0  0  0  0  0  0  0  0  0
    2.3469   -6.8495    1.0807 H   0  0  0  0  0  0  0  0  0  0  0  0
    3.9344   -6.5065    0.5152 H   0  0  0  0  0  0  0  0  0  0  0  0
    5.3510   -8.2832    0.5904 H   0  0  0  0  0  0  0  0  0  0  0  0
    3.8134   -9.0232    0.3359 H   0  0  0  0  0  0  0  0  0  0  0  0
    4.9349   -9.7165    1.4944 H   0  0  0  0  0  0  0  0  0  0  0  0
  2  1  1  1
  1 27  1  0
  1 28  1  0
  1 29  1  0
  2  8  1  0
  2 25  1  0
  2  3  1  0
  3  4  1  0
  3 30  1  0
  3 31  1  0
  4  5  1  0
  4 32  1  0
  4 33  1  0
  5  6  2  0
  5  7  1  0
  7  8  1  0
  7 34  1  0
  8  9  1  0
  8 35  1  6
  9 10  1  0
  9 36  1  0
  9 37  1  0
 10 11  1  0
 10 38  1  0
 10 39  1  0
 11 25  1  0
 11 12  1  0
 11 40  1  6
 12 22  1  0
 12 13  1  0
 12 41  1  1
 13 14  1  0
 13 42  1  0
 13 43  1  0
 14 15  1  0
 14 44  1  0
 14 45  1  0
 15 21  2  0
 15 16  1  0
 16 17  2  0
 16 46  1  0
 17 18  1  0
 17 19  1  0
 18 47  1  0
 19 20  2  0
 19 48  1  0
 20 21  1  0
 20 49  1  0
 21 22  1  0
 22 23  1  0
 22 50  1  6
 23 24  1  0
 23 51  1  0
 23 52  1  0
 24 25  1  0
 24 53  1  0
 24 54  1  0
 25 26  1  6
 26 55  1  0
 26 56  1  0
 26 57  1  0
M  END
>  <i_m_ct_stereo_status>  (164) 
1

>  <s_m_source_file>  (164) 
/var/tmp/pbs.5076255.sched01/tmp06uo9b_r/40lj_pgbub.sdf

>  <i_m_source_file_index>  (164) 
32

>  <i_lp_mmshare_version>  (164) 
48012

>  <i_f3d_flags>  (164) 
0

>  <s_epik_input>  (164) 
W0NIMl0xW0NIMl1DKD1PKVtOSF1bQ0BASF0oW0NAXTEyW0NIM10pW0NIMl1bQ0gyXVtDQEBIXTNbQ0BIXTRbQ0BASF0oW0NIMl1bQ0gyXVtDQF0yM1tDSDNdKWM1YyhbQ0gyXVtDSDJdNClbY0hdYyhbT0hdKVtjSF1bY0hdNQ==

>  <s_epik_cmdline>  (164) 
J2VwaWtfcHl0aG9uJywgJy1waHQnLCAnMi4wJywgJy1waCcsICc3LjAnLCAnLXRuJywgJzgnLCAnLW1hJywgJzIwMCcsICctaW1hZScsICc8aW5maWxlLm1hZT4nLCAnLW9tYWUnLCAnPG91dGZpbGUubWFlPic=

>  <r_lp_tautomer_probability>  (164) 
1

>  <r_epik_Ionization_Penalty>  (164) 
0.000118351

>  <r_epik_Ionization_Penalty_Charging>  (164) 
0

>  <r_epik_Ionization_Penalty_Neutral>  (164) 
0.000118351

>  <r_epik_State_Penalty>  (164) 
-0

>  <r_epik_Charging_Adjusted_Penalty>  (164) 
0

>  <i_epik_Tot_Q>  (164) 
0

>  <i_epik_Tot_abs_Q>  (164) 
0

>  <s_lp_Force_Field>  (164) 
OPLS3e

>  <r_lp_Energy>  (164) 
74.6738

>  <b_lp_Chiralities_Consistent>  (164) 
1

>  <s_lp_Variant>  (164) 
51:0-1

>  <s_i_glide_gridfile>  (164) 
pfpi4k_grid

>  <i_i_glide_lignum>  (164) 
32

>  <i_i_glide_rotatable_bonds>  (164) 
1

>  <r_i_docking_score>  (164) 
-3.01388

>  <r_i_glide_ligand_efficiency>  (164) 
-0.115918

>  <r_i_glide_ligand_efficiency_sa>  (164) 
-0.343408

>  <r_i_glide_ligand_efficiency_ln>  (164) 
-0.7078

>  <r_i_glide_gscore>  (164) 
-3.01388

>  <r_i_glide_lipo>  (164) 
-0.598123

>  <r_i_glide_hbond>  (164) 
0

>  <r_i_glide_metal>  (164) 
-0

>  <r_i_glide_rewards>  (164) 
-1.12813

>  <r_i_glide_evdw>  (164) 
-24.3963

>  <r_i_glide_ecoul>  (164) 
-0.246476

>  <r_i_glide_erotb>  (164) 
0

>  <r_i_glide_esite>  (164) 
-0.0308413

>  <r_i_glide_emodel>  (164) 
-29.8805

>  <r_i_glide_energy>  (164) 
-24.6428

>  <r_i_glide_einternal>  (164) 
0.00710428

>  <r_i_glide_intrahb_reward>  (164) 
-0

>  <i_i_glide_confnum>  (164) 
2

>  <i_i_glide_posenum>  (164) 
38

>  <r_i_glide_eff_state_penalty>  (164) 
0

>  <ligand_id>  (164) 
51

>  <original_smiles>  (164) 
CC12CCC(=O)NC1CCC1C3CCc4cc(O)ccc4C3CCC12C

>  <smiles>  (164) 
[H]Oc1c([H])c([H])c2c(c1[H])C([H])([H])C([H])([H])C1([H])C2([H])C([H])([H])C([H])([H])C2(C([H])([H])[H])C1([H])C([H])([H])C([H])([H])C1([H])N([H])C(=O)C([H])([H])C([H])([H])C12C([H])([H])[H]

$$$$
51:0:1
     RDKit          3D

 57 61  0  0  1  0  0  0  0  0999 V2000
    1.4893   -6.0698    2.2888 C   0  0  0  0  0  0  0  0  0  0  0  0
    2.8609   -6.4013    2.9392 C   0  0  2  0  0  0  0  0  0  0  0  0
    3.5974   -7.3903    1.9799 C   0  0  0  0  0  0  0  0  0  0  0  0
    2.8182   -8.6945    1.6999 C   0  0  0  0  0  0  0  0  0  0  0  0
    2.1234   -9.2838    2.9368 C   0  0  0  0  0  0  0  0  0  0  0  0
    1.6517  -10.4137    2.8843 O   0  0  0  0  0  0  0  0  0  0  0  0
    1.9824   -8.5147    4.0311 N   0  0  0  0  0  0  0  0  0  0  0  0
    2.6534   -7.2304    4.2488 C   0  0  2  0  0  0  0  0  0  0  0  0
    1.9759   -6.4184    5.3607 C   0  0  0  0  0  0  0  0  0  0  0  0
    2.8450   -5.2080    5.7292 C   0  0  0  0  0  0  0  0  0  0  0  0
    3.2120   -4.2949    4.5355 C   0  0  2  0  0  0  0  0  0  0  0  0
    2.3154   -3.0218    4.3910 C   0  0  2  0  0  0  0  0  0  0  0  0
    0.7840   -3.1762    4.4588 C   0  0  0  0  0  0  0  0  0  0  0  0
    0.1196   -1.8151    4.6835 C   0  0  0  0  0  0  0  0  0  0  0  0
    0.6103   -0.7443    3.7228 C   0  0  0  0  0  0  0  0  0  0  0  0
   -0.1822    0.4074    3.5221 C   0  0  0  0  0  0  0  0  0  0  0  0
    0.2623    1.4415    2.6782 C   0  0  0  0  0  0  0  0  0  0  0  0
   -0.5235    2.5424    2.4802 O   0  0  0  0  0  0  0  0  0  0  0  0
    1.5124    1.3340    2.0450 C   0  0  0  0  0  0  0  0  0  0  0  0
    2.3052    0.1850    2.2275 C   0  0  0  0  0  0  0  0  0  0  0  0
    1.8588   -0.8727    3.0536 C   0  0  0  0  0  0  0  0  0  0  0  0
    2.7334   -2.1182    3.2125 C   0  0  2  0  0  0  0  0  0  0  0  0
    2.7764   -2.9567    1.9274 C   0  0  0  0  0  0  0  0  0  0  0  0
    3.8100   -4.0913    2.0239 C   0  0  0  0  0  0  0  0  0  0  0  0
    3.7053   -5.0710    3.2439 C   0  0  2  0  0  0  0  0  0  0  0  0
    5.1935   -5.4566    3.5181 C   0  0  0  0  0  0  0  0  0  0  0  0
    1.6143   -5.5754    1.3281 H   0  0  0  0  0  0  0  0  0  0  0  0
    0.8844   -5.4459    2.9298 H   0  0  0  0  0  0  0  0  0  0  0  0
    0.8788   -6.9511    2.0989 H   0  0  0  0  0  0  0  0  0  0  0  0
    3.8533   -6.9139    1.0333 H   0  0  0  0  0  0  0  0  0  0  0  0
    4.5384   -7.7165    2.4223 H   0  0  0  0  0  0  0  0  0  0  0  0
    2.0467   -8.5178    0.9505 H   0  0  0  0  0  0  0  0  0  0  0  0
    3.4748   -9.4529    1.2707 H   0  0  0  0  0  0  0  0  0  0  0  0
    1.4883   -8.9254    4.8131 H   0  0  0  0  0  0  0  0  0  0  0  0
    3.6272   -7.5249    4.6374 H   0  0  0  0  0  0  0  0  0  0  0  0
    0.9687   -6.1161    5.0754 H   0  0  0  0  0  0  0  0  0  0  0  0
    1.8582   -7.0380    6.2495 H   0  0  0  0  0  0  0  0  0  0  0  0
    2.3587   -4.6253    6.5107 H   0  0  0  0  0  0  0  0  0  0  0  0
    3.7693   -5.5752    6.1838 H   0  0  0  0  0  0  0  0  0  0  0  0
    4.1112   -3.8018    4.8999 H   0  0  0  0  0  0  0  0  0  0  0  0
    2.5456   -2.4337    5.2803 H   0  0  0  0  0  0  0  0  0  0  0  0
    0.4079   -3.5401    3.5103 H   0  0  0  0  0  0  0  0  0  0  0  0
    0.4756   -3.8742    5.2377 H   0  0  0  0  0  0  0  0  0  0  0  0
   -0.9644   -1.9154    4.6062 H   0  0  0  0  0  0  0  0  0  0  0  0
    0.3358   -1.4762    5.6979 H   0  0  0  0  0  0  0  0  0  0  0  0
   -1.1391    0.5005    4.0141 H   0  0  0  0  0  0  0  0  0  0  0  0
   -0.1941    3.1717    1.8238 H   0  0  0  0  0  0  0  0  0  0  0  0
    1.8592    2.1303    1.4077 H   0  0  0  0  0  0  0  0  0  0  0  0
    3.2607    0.1136    1.7276 H   0  0  0  0  0  0  0  0  0  0  0  0
    3.7464   -1.7600    3.4010 H   0  0  0  0  0  0  0  0  0  0  0  0
    1.7914   -3.3362    1.6865 H   0  0  0  0  0  0  0  0  0  0  0  0
    3.0459   -2.3211    1.0842 H   0  0  0  0  0  0  0  0  0  0  0  0
    3.8003   -4.6508    1.0911 H   0  0  0  0  0  0  0  0  0  0  0  0
    4.7832   -3.5920    2.0347 H   0  0  0  0  0  0  0  0  0  0  0  0
    5.7928   -4.5881    3.7945 H   0  0  0  0  0  0  0  0  0  0  0  0
    5.6811   -5.8608    2.6308 H   0  0  0  0  0  0  0  0  0  0  0  0
    5.3089   -6.1779    4.3251 H   0  0  0  0  0  0  0  0  0  0  0  0
  2  1  1  6
  1 27  1  0
  1 28  1  0
  1 29  1  0
  2  8  1  0
  2 25  1  0
  2  3  1  0
  3  4  1  0
  3 30  1  0
  3 31  1  0
  4  5  1  0
  4 32  1  0
  4 33  1  0
  5  6  2  0
  5  7  1  0
  7  8  1  0
  7 34  1  0
  8  9  1  0
  8 35  1  1
  9 10  1  0
  9 36  1  0
  9 37  1  0
 10 11  1  0
 10 38  1  0
 10 39  1  0
 11 25  1  0
 11 12  1  0
 11 40  1  1
 12 22  1  0
 12 13  1  0
 12 41  1  1
 13 14  1  0
 13 42  1  0
 13 43  1  0
 14 15  1  0
 14 44  1  0
 14 45  1  0
 15 21  2  0
 15 16  1  0
 16 17  2  0
 16 46  1  0
 17 18  1  0
 17 19  1  0
 18 47  1  0
 19 20  2  0
 19 48  1  0
 20 21  1  0
 20 49  1  0
 21 22  1  0
 22 23  1  0
 22 50  1  1
 23 24  1  0
 23 51  1  0
 23 52  1  0
 24 25  1  0
 24 53  1  0
 24 54  1  0
 25 26  1  1
 26 55  1  0
 26 56  1  0
 26 57  1  0
M  END
>  <i_m_ct_stereo_status>  (165) 
1

>  <s_m_source_file>  (165) 
/var/tmp/pbs.5076255.sched01/tmp06uo9b_r/40lj_pgbub.sdf

>  <i_m_source_file_index>  (165) 
32

>  <i_lp_mmshare_version>  (165) 
48012

>  <i_f3d_flags>  (165) 
0

>  <s_epik_input>  (165) 
W0NIMl0xW0NIMl1DKD1PKVtOSF1bQ0BASF0oW0NAXTEyW0NIM10pW0NIMl1bQ0gyXVtDQEBIXTNbQ0BIXTRbQ0BASF0oW0NIMl1bQ0gyXVtDQF0yM1tDSDNdKWM1YyhbQ0gyXVtDSDJdNClbY0hdYyhbT0hdKVtjSF1bY0hdNQ==

>  <s_epik_cmdline>  (165) 
J2VwaWtfcHl0aG9uJywgJy1waHQnLCAnMi4wJywgJy1waCcsICc3LjAnLCAnLXRuJywgJzgnLCAnLW1hJywgJzIwMCcsICctaW1hZScsICc8aW5maWxlLm1hZT4nLCAnLW9tYWUnLCAnPG91dGZpbGUubWFlPic=

>  <r_lp_tautomer_probability>  (165) 
1

>  <r_epik_Ionization_Penalty>  (165) 
0.000118351

>  <r_epik_Ionization_Penalty_Charging>  (165) 
0

>  <r_epik_Ionization_Penalty_Neutral>  (165) 
0.000118351

>  <r_epik_State_Penalty>  (165) 
-0

>  <r_epik_Charging_Adjusted_Penalty>  (165) 
0

>  <i_epik_Tot_Q>  (165) 
0

>  <i_epik_Tot_abs_Q>  (165) 
0

>  <s_lp_Force_Field>  (165) 
OPLS3e

>  <r_lp_Energy>  (165) 
74.6738

>  <b_lp_Chiralities_Consistent>  (165) 
1

>  <s_lp_Variant>  (165) 
51:0-1

>  <s_i_glide_gridfile>  (165) 
pfpi4k_grid

>  <i_i_glide_lignum>  (165) 
32

>  <i_i_glide_rotatable_bonds>  (165) 
1

>  <r_i_docking_score>  (165) 
-2.9041

>  <r_i_glide_ligand_efficiency>  (165) 
-0.111696

>  <r_i_glide_ligand_efficiency_sa>  (165) 
-0.330899

>  <r_i_glide_ligand_efficiency_ln>  (165) 
-0.682018

>  <r_i_glide_gscore>  (165) 
-2.9041

>  <r_i_glide_lipo>  (165) 
-0.0587723

>  <r_i_glide_hbond>  (165) 
-0.16

>  <r_i_glide_metal>  (165) 
-0

>  <r_i_glide_rewards>  (165) 
-1.01216

>  <r_i_glide_evdw>  (165) 
-22.4091

>  <r_i_glide_ecoul>  (165) 
-3.63564

>  <r_i_glide_erotb>  (165) 
0

>  <r_i_glide_esite>  (165) 
-0.00736218

>  <r_i_glide_emodel>  (165) 
-31.0324

>  <r_i_glide_energy>  (165) 
-26.0447

>  <r_i_glide_einternal>  (165) 
0.0550781

>  <r_i_glide_intrahb_reward>  (165) 
-0

>  <i_i_glide_confnum>  (165) 
1

>  <i_i_glide_posenum>  (165) 
20

>  <r_i_glide_eff_state_penalty>  (165) 
0

>  <ligand_id>  (165) 
51

>  <original_smiles>  (165) 
CC12CCC(=O)NC1CCC1C3CCc4cc(O)ccc4C3CCC12C

>  <smiles>  (165) 
[H]Oc1c([H])c([H])c2c(c1[H])C([H])([H])C([H])([H])C1([H])C2([H])C([H])([H])C([H])([H])C2(C([H])([H])[H])C1([H])C([H])([H])C([H])([H])C1([H])N([H])C(=O)C([H])([H])C([H])([H])C12C([H])([H])[H]

$$$$
51:0:2
     RDKit          3D

 57 61  0  0  1  0  0  0  0  0999 V2000
    0.3110   -7.8372    3.8784 C   0  0  0  0  0  0  0  0  0  0  0  0
    1.7733   -8.1622    4.2957 C   0  0  2  0  0  0  0  0  0  0  0  0
    2.3555   -9.1302    3.2162 C   0  0  0  0  0  0  0  0  0  0  0  0
    1.5482  -10.4378    3.0477 C   0  0  0  0  0  0  0  0  0  0  0  0
    1.0642  -11.0457    4.3698 C   0  0  0  0  0  0  0  0  0  0  0  0
    0.6172  -12.1892    4.3824 O   0  0  0  0  0  0  0  0  0  0  0  0
    1.0933  -10.2914    5.4802 N   0  0  0  0  0  0  0  0  0  0  0  0
    1.7871   -9.0109    5.6071 C   0  0  2  0  0  0  0  0  0  0  0  0
    1.2904   -8.2260    6.8264 C   0  0  0  0  0  0  0  0  0  0  0  0
    2.1927   -7.0067    7.0679 C   0  0  0  0  0  0  0  0  0  0  0  0
    2.3586   -6.0720    5.8450 C   0  0  2  0  0  0  0  0  0  0  0  0
    1.4373   -4.8081    5.8666 C   0  0  2  0  0  0  0  0  0  0  0  0
   -0.0632   -4.9837    6.1692 C   0  0  0  0  0  0  0  0  0  0  0  0
   -0.6914   -3.6329    6.5259 C   0  0  0  0  0  0  0  0  0  0  0  0
   -0.3703   -2.5469    5.5123 C   0  0  0  0  0  0  0  0  0  0  0  0
   -1.1955   -1.4047    5.4493 C   0  0  0  0  0  0  0  0  0  0  0  0
   -0.8975   -0.3507    4.5664 C   0  0  0  0  0  0  0  0  0  0  0  0
   -1.7125    0.7422    4.5252 O   0  0  0  0  0  0  0  0  0  0  0  0
    0.2330   -0.4340    3.7351 C   0  0  0  0  0  0  0  0  0  0  0  0
    1.0495   -1.5810    3.7777 C   0  0  0  0  0  0  0  0  0  0  0  0
    0.7516   -2.6517    4.6493 C   0  0  0  0  0  0  0  0  0  0  0  0
    1.6485   -3.8924    4.6472 C   0  0  2  0  0  0  0  0  0  0  0  0
    1.4843   -4.7145    3.3629 C   0  0  0  0  0  0  0  0  0  0  0  0
    2.5345   -5.8356    3.2725 C   0  0  0  0  0  0  0  0  0  0  0  0
    2.6436   -6.8279    4.4822 C   0  0  2  0  0  0  0  0  0  0  0  0
    4.1601   -7.2046    4.5051 C   0  0  0  0  0  0  0  0  0  0  0  0
    0.2682   -7.3322    2.9146 H   0  0  0  0  0  0  0  0  0  0  0  0
   -0.1930   -7.2325    4.6171 H   0  0  0  0  0  0  0  0  0  0  0  0
   -0.3146   -8.7239    3.7792 H   0  0  0  0  0  0  0  0  0  0  0  0
    2.4518   -8.6411    2.2466 H   0  0  0  0  0  0  0  0  0  0  0  0
    3.3595   -9.4529    3.4953 H   0  0  0  0  0  0  0  0  0  0  0  0
    0.6722  -10.2585    2.4224 H   0  0  0  0  0  0  0  0  0  0  0  0
    2.1486  -11.1775    2.5160 H   0  0  0  0  0  0  0  0  0  0  0  0
    0.7885  -10.7518    6.3298 H   0  0  0  0  0  0  0  0  0  0  0  0
    2.8110   -9.3024    5.8338 H   0  0  0  0  0  0  0  0  0  0  0  0
    0.2495   -7.9279    6.7111 H   0  0  0  0  0  0  0  0  0  0  0  0
    1.3199   -8.8608    7.7132 H   0  0  0  0  0  0  0  0  0  0  0  0
    1.8358   -6.4415    7.9280 H   0  0  0  0  0  0  0  0  0  0  0  0
    3.1784   -7.3715    7.3628 H   0  0  0  0  0  0  0  0  0  0  0  0
    3.3032   -5.5776    6.0666 H   0  0  0  0  0  0  0  0  0  0  0  0
    1.8060   -4.2349    6.7184 H   0  0  0  0  0  0  0  0  0  0  0  0
   -0.5898   -5.3532    5.2954 H   0  0  0  0  0  0  0  0  0  0  0  0
   -0.2343   -5.6911    6.9793 H   0  0  0  0  0  0  0  0  0  0  0  0
   -1.7722   -3.7478    6.6209 H   0  0  0  0  0  0  0  0  0  0  0  0
   -0.3172   -3.3063    7.4991 H   0  0  0  0  0  0  0  0  0  0  0  0
   -2.0680   -1.3278    6.0769 H   0  0  0  0  0  0  0  0  0  0  0  0
   -1.5246    1.3230    3.8029 H   0  0  0  0  0  0  0  0  0  0  0  0
    0.4718    0.3725    3.0571 H   0  0  0  0  0  0  0  0  0  0  0  0
    1.9083   -1.6345    3.1281 H   0  0  0  0  0  0  0  0  0  0  0  0
    2.6736   -3.5268    4.6746 H   0  0  0  0  0  0  0  0  0  0  0  0
    0.4741   -5.1032    3.2848 H   0  0  0  0  0  0  0  0  0  0  0  0
    1.6163   -4.0642    2.4968 H   0  0  0  0  0  0  0  0  0  0  0  0
    2.3891   -6.3836    2.3437 H   0  0  0  0  0  0  0  0  0  0  0  0
    3.4915   -5.3238    3.1346 H   0  0  0  0  0  0  0  0  0  0  0  0
    4.7904   -6.3347    4.6958 H   0  0  0  0  0  0  0  0  0  0  0  0
    4.5011   -7.5921    3.5448 H   0  0  0  0  0  0  0  0  0  0  0  0
    4.4087   -7.9373    5.2716 H   0  0  0  0  0  0  0  0  0  0  0  0
  2  1  1  6
  1 27  1  0
  1 28  1  0
  1 29  1  0
  2  8  1  0
  2 25  1  0
  2  3  1  0
  3  4  1  0
  3 30  1  0
  3 31  1  0
  4  5  1  0
  4 32  1  0
  4 33  1  0
  5  6  2  0
  5  7  1  0
  7  8  1  0
  7 34  1  0
  8  9  1  0
  8 35  1  1
  9 10  1  0
  9 36  1  0
  9 37  1  0
 10 11  1  0
 10 38  1  0
 10 39  1  0
 11 25  1  0
 11 12  1  0
 11 40  1  1
 12 22  1  0
 12 13  1  0
 12 41  1  1
 13 14  1  0
 13 42  1  0
 13 43  1  0
 14 15  1  0
 14 44  1  0
 14 45  1  0
 15 21  2  0
 15 16  1  0
 16 17  2  0
 16 46  1  0
 17 18  1  0
 17 19  1  0
 18 47  1  0
 19 20  2  0
 19 48  1  0
 20 21  1  0
 20 49  1  0
 21 22  1  0
 22 23  1  0
 22 50  1  1
 23 24  1  0
 23 51  1  0
 23 52  1  0
 24 25  1  0
 24 53  1  0
 24 54  1  0
 25 26  1  1
 26 55  1  0
 26 56  1  0
 26 57  1  0
M  END
>  <i_m_ct_stereo_status>  (166) 
1

>  <s_m_source_file>  (166) 
/var/tmp/pbs.5076255.sched01/tmp06uo9b_r/40lj_pgbub.sdf

>  <i_m_source_file_index>  (166) 
32

>  <i_lp_mmshare_version>  (166) 
48012

>  <i_f3d_flags>  (166) 
0

>  <s_epik_input>  (166) 
W0NIMl0xW0NIMl1DKD1PKVtOSF1bQ0BASF0oW0NAXTEyW0NIM10pW0NIMl1bQ0gyXVtDQEBIXTNbQ0BIXTRbQ0BASF0oW0NIMl1bQ0gyXVtDQF0yM1tDSDNdKWM1YyhbQ0gyXVtDSDJdNClbY0hdYyhbT0hdKVtjSF1bY0hdNQ==

>  <s_epik_cmdline>  (166) 
J2VwaWtfcHl0aG9uJywgJy1waHQnLCAnMi4wJywgJy1waCcsICc3LjAnLCAnLXRuJywgJzgnLCAnLW1hJywgJzIwMCcsICctaW1hZScsICc8aW5maWxlLm1hZT4nLCAnLW9tYWUnLCAnPG91dGZpbGUubWFlPic=

>  <r_lp_tautomer_probability>  (166) 
1

>  <r_epik_Ionization_Penalty>  (166) 
0.000118351

>  <r_epik_Ionization_Penalty_Charging>  (166) 
0

>  <r_epik_Ionization_Penalty_Neutral>  (166) 
0.000118351

>  <r_epik_State_Penalty>  (166) 
-0

>  <r_epik_Charging_Adjusted_Penalty>  (166) 
0

>  <i_epik_Tot_Q>  (166) 
0

>  <i_epik_Tot_abs_Q>  (166) 
0

>  <s_lp_Force_Field>  (166) 
OPLS3e

>  <r_lp_Energy>  (166) 
74.6738

>  <b_lp_Chiralities_Consistent>  (166) 
1

>  <s_lp_Variant>  (166) 
51:0-1

>  <s_i_glide_gridfile>  (166) 
pfpi4k_grid

>  <i_i_glide_lignum>  (166) 
32

>  <i_i_glide_rotatable_bonds>  (166) 
1

>  <r_i_docking_score>  (166) 
-2.72683

>  <r_i_glide_ligand_efficiency>  (166) 
-0.104878

>  <r_i_glide_ligand_efficiency_sa>  (166) 
-0.310701

>  <r_i_glide_ligand_efficiency_ln>  (166) 
-0.640387

>  <r_i_glide_gscore>  (166) 
-2.72683

>  <r_i_glide_lipo>  (166) 
-0.142951

>  <r_i_glide_hbond>  (166) 
-0.107522

>  <r_i_glide_metal>  (166) 
-0

>  <r_i_glide_rewards>  (166) 
-1.08344

>  <r_i_glide_evdw>  (166) 
-24.7159

>  <r_i_glide_ecoul>  (166) 
-0.543321

>  <r_i_glide_erotb>  (166) 
0

>  <r_i_glide_esite>  (166) 
-0.0756281

>  <r_i_glide_emodel>  (166) 
-29.9071

>  <r_i_glide_energy>  (166) 
-25.2592

>  <r_i_glide_einternal>  (166) 
0.114258

>  <r_i_glide_intrahb_reward>  (166) 
-0

>  <i_i_glide_confnum>  (166) 
2

>  <i_i_glide_posenum>  (166) 
4

>  <r_i_glide_eff_state_penalty>  (166) 
0

>  <ligand_id>  (166) 
51

>  <original_smiles>  (166) 
CC12CCC(=O)NC1CCC1C3CCc4cc(O)ccc4C3CCC12C

>  <smiles>  (166) 
[H]Oc1c([H])c([H])c2c(c1[H])C([H])([H])C([H])([H])C1([H])C2([H])C([H])([H])C([H])([H])C2(C([H])([H])[H])C1([H])C([H])([H])C([H])([H])C1([H])N([H])C(=O)C([H])([H])C([H])([H])C12C([H])([H])[H]

$$$$
52:0:0
     RDKit          3D

 43 48  0  0  1  0  0  0  0  0999 V2000
    3.3132   -2.5471   -2.8261 C   0  0  0  0  0  0  0  0  0  0  0  0
    3.6400   -3.4288   -1.6785 N   0  0  1  0  0  0  0  0  0  0  0  0
    5.0267   -3.9474   -1.6584 C   0  0  0  0  0  0  0  0  0  0  0  0
    5.5678   -3.6884   -0.2423 C   0  0  0  0  0  0  0  0  0  0  0  0
    4.3020   -3.5836    0.6521 C   0  0  2  0  0  0  0  0  0  0  0  0
    4.4029   -2.5583    1.7676 C   0  0  0  0  0  0  0  0  0  0  0  0
    4.2000   -1.2631    1.3107 C   0  0  0  0  0  0  0  0  0  0  0  0
    4.3192   -0.2053    2.2202 C   0  0  0  0  0  0  0  0  0  0  0  0
    4.6031   -0.5109    3.5721 C   0  0  0  0  0  0  0  0  0  0  0  0
    4.6367   -1.8536    4.0230 C   0  0  0  0  0  0  0  0  0  0  0  0
    4.7528   -2.1051    5.3568 O   0  0  0  0  0  0  0  0  0  0  0  0
    4.4920   -2.9377    3.1287 C   0  0  0  0  0  0  0  0  0  0  0  0
    4.2299   -4.2320    3.5482 O   0  0  0  0  0  0  0  0  0  0  0  0
    3.2839   -4.8245    2.6529 C   0  0  2  0  0  0  0  0  0  0  0  0
    2.7349   -6.2623    2.8137 C   0  0  2  0  0  0  0  0  0  0  0  0
    3.5086   -6.9734    1.8447 O   0  0  0  0  0  0  0  0  0  0  0  0
    3.2929   -6.1730    0.6762 C   0  0  1  0  0  0  0  0  0  0  0  0
    1.7400   -6.1749    0.6011 C   0  0  0  0  0  0  0  0  0  0  0  0
    1.4115   -6.2658    2.0747 C   0  0  0  0  0  0  0  0  0  0  0  0
    0.2783   -6.3077    2.5593 O   0  0  0  0  0  0  0  0  0  0  0  0
    3.9736   -4.9468    1.3055 C   0  0  1  0  0  0  0  0  0  0  0  0
    3.7122   -1.3755   -0.1211 C   0  0  0  0  0  0  0  0  0  0  0  0
    3.3567   -2.8864   -0.3248 C   0  0  1  0  0  0  0  0  0  0  0  0
    3.9829   -1.6862   -2.8860 H   0  0  0  0  0  0  0  0  0  0  0  0
    2.2870   -2.1848   -2.7526 H   0  0  0  0  0  0  0  0  0  0  0  0
    3.4057   -3.1041   -3.7600 H   0  0  0  0  0  0  0  0  0  0  0  0
    5.0046   -5.0164   -1.8666 H   0  0  0  0  0  0  0  0  0  0  0  0
    5.6615   -3.4915   -2.4202 H   0  0  0  0  0  0  0  0  0  0  0  0
    6.2988   -4.4378    0.0733 H   0  0  0  0  0  0  0  0  0  0  0  0
    6.0992   -2.7329   -0.2577 H   0  0  0  0  0  0  0  0  0  0  0  0
    4.1632    0.8172    1.9030 H   0  0  0  0  0  0  0  0  0  0  0  0
    4.6984    0.2860    4.2863 H   0  0  0  0  0  0  0  0  0  0  0  0
    4.7125   -3.0286    5.5539 H   0  0  0  0  0  0  0  0  0  0  0  0
    2.4375   -4.1316    2.5823 H   0  0  0  0  0  0  0  0  0  0  0  0
    2.7125   -6.6634    3.8269 H   0  0  0  0  0  0  0  0  0  0  0  0
    3.7963   -6.5672   -0.2067 H   0  0  0  0  0  0  0  0  0  0  0  0
    1.3417   -5.2739    0.1346 H   0  0  0  0  0  0  0  0  0  0  0  0
    1.3347   -7.0527    0.1036 H   0  0  0  0  0  0  0  0  0  0  0  0
    4.9677   -5.3216    1.5629 H   0  0  0  0  0  0  0  0  0  0  0  0
    2.8475   -0.7330   -0.2648 H   0  0  0  0  0  0  0  0  0  0  0  0
    4.5069   -1.0174   -0.7809 H   0  0  0  0  0  0  0  0  0  0  0  0
    2.3183   -3.0605   -0.0446 H   0  0  0  0  0  0  0  0  0  0  0  0
    3.0651   -4.2560   -1.7992 H   0  0  0  0  0  0  0  0  0  0  0  0
  1  2  1  0
  1 24  1  0
  1 25  1  0
  1 26  1  0
  2 23  1  0
  2  3  1  0
  2 43  1  6
  3  4  1  0
  3 27  1  0
  3 28  1  0
  5  4  1  6
  4 29  1  0
  4 30  1  0
  5 21  1  0
  5 23  1  0
  5  6  1  0
  6 12  1  0
  6  7  2  0
  7  8  1  0
  7 22  1  0
  8  9  2  0
  8 31  1  0
  9 10  1  0
  9 32  1  0
 10 11  1  0
 10 12  2  0
 11 33  1  0
 12 13  1  0
 13 14  1  0
 14 21  1  0
 14 15  1  0
 14 34  1  6
 15 19  1  0
 15 16  1  0
 15 35  1  1
 16 17  1  0
 17 18  1  0
 17 21  1  0
 17 36  1  6
 18 19  1  0
 18 37  1  0
 18 38  1  0
 19 20  2  0
 21 39  1  1
 22 23  1  0
 22 40  1  0
 22 41  1  0
 23 42  1  1
M  CHG  1   2   1
M  END
>  <i_m_ct_stereo_status>  (167) 
1

>  <s_m_source_file>  (167) 
/var/tmp/pbs.5076255.sched01/tmp06uo9b_r/40lj_pgbub.sdf

>  <i_m_source_file_index>  (167) 
33

>  <i_lp_mmshare_version>  (167) 
48012

>  <i_f3d_flags>  (167) 
0

>  <s_epik_input>  (167) 
W0NIMl0xW0NIMl1OKFtDSDNdKVtDQEBIXTJbQ0gyXWMoYzNbQ0BdMTI0KVtjSF1bY0hdYyhbT0hdKWMzT1tDQEBIXTVbQ0BASF02T1tDQEhdKFtDQEBIXTQ1KVtDSDJdQzY9Tw==

>  <s_epik_cmdline>  (167) 
J2VwaWtfcHl0aG9uJywgJy1waHQnLCAnMi4wJywgJy1waCcsICc3LjAnLCAnLXRuJywgJzgnLCAnLW1hJywgJzIwMCcsICctaW1hZScsICc8aW5maWxlLm1hZT4nLCAnLW9tYWUnLCAnPG91dGZpbGUubWFlPic=

>  <r_lp_tautomer_probability>  (167) 
1

>  <r_epik_Ionization_Penalty>  (167) 
0.0185284

>  <r_epik_Ionization_Penalty_Charging>  (167) 
0.0133147

>  <r_epik_Ionization_Penalty_Neutral>  (167) 
0.00521369

>  <r_epik_State_Penalty>  (167) 
0.0103556

>  <r_epik_Charging_Adjusted_Penalty>  (167) 
0.0236704

>  <i_epik_Tot_Q>  (167) 
1

>  <i_epik_Tot_abs_Q>  (167) 
1

>  <s_lp_Force_Field>  (167) 
OPLS3e

>  <r_lp_Energy>  (167) 
75.0221

>  <b_lp_Chiralities_Consistent>  (167) 
1

>  <s_lp_Variant>  (167) 
52:0-1

>  <s_i_glide_gridfile>  (167) 
pfpi4k_grid

>  <i_i_glide_lignum>  (167) 
33

>  <i_i_glide_rotatable_bonds>  (167) 
1

>  <r_i_docking_score>  (167) 
-3.63987

>  <r_i_glide_ligand_efficiency>  (167) 
-0.158255

>  <r_i_glide_ligand_efficiency_sa>  (167) 
-0.450057

>  <r_i_glide_ligand_efficiency_ln>  (167) 
-0.880154

>  <r_i_glide_gscore>  (167) 
-3.63987

>  <r_i_glide_lipo>  (167) 
-0.308632

>  <r_i_glide_hbond>  (167) 
-0.125628

>  <r_i_glide_metal>  (167) 
-0

>  <r_i_glide_rewards>  (167) 
-1.26576

>  <r_i_glide_evdw>  (167) 
-17.8051

>  <r_i_glide_ecoul>  (167) 
-6.67945

>  <r_i_glide_erotb>  (167) 
0

>  <r_i_glide_esite>  (167) 
-0.0476829

>  <r_i_glide_emodel>  (167) 
-30.6613

>  <r_i_glide_energy>  (167) 
-24.4845

>  <r_i_glide_einternal>  (167) 
5.56479e-06

>  <r_i_glide_intrahb_reward>  (167) 
-0

>  <i_i_glide_confnum>  (167) 
1

>  <i_i_glide_posenum>  (167) 
1

>  <r_i_glide_eff_state_penalty>  (167) 
0

>  <ligand_id>  (167) 
52

>  <original_smiles>  (167) 
CN1CCC23c4c(ccc(O)c4OC4C5OC(CC5=O)C42)CC13

>  <smiles>  (167) 
[H]Oc1c([H])c([H])c2c3c1OC1([H])C4([H])OC([H])(C([H])([H])C4=O)C1([H])C31C([H])([H])C([H])([H])[N+]([H])(C([H])([H])[H])C1([H])C2([H])[H]

$$$$
52:0:1
     RDKit          3D

 43 48  0  0  1  0  0  0  0  0999 V2000
    2.5048   -2.8511   -3.2110 C   0  0  0  0  0  0  0  0  0  0  0  0
    3.5331   -2.5007   -2.1941 N   0  0  1  0  0  0  0  0  0  0  0  0
    3.4059   -1.1500   -1.6053 C   0  0  0  0  0  0  0  0  0  0  0  0
    3.4791   -1.3215   -0.0772 C   0  0  0  0  0  0  0  0  0  0  0  0
    4.2398   -2.6518    0.1204 C   0  0  2  0  0  0  0  0  0  0  0  0
    3.7540   -3.4971    1.2897 C   0  0  0  0  0  0  0  0  0  0  0  0
    2.6082   -4.2170    0.9939 C   0  0  0  0  0  0  0  0  0  0  0  0
    2.0306   -5.0085    2.0108 C   0  0  0  0  0  0  0  0  0  0  0  0
    2.6623   -5.0362    3.2760 C   0  0  0  0  0  0  0  0  0  0  0  0
    3.9179   -4.4036    3.4798 C   0  0  0  0  0  0  0  0  0  0  0  0
    4.5895   -4.6154    4.6452 O   0  0  0  0  0  0  0  0  0  0  0  0
    4.5263   -3.6327    2.4626 C   0  0  0  0  0  0  0  0  0  0  0  0
    5.8544   -3.2412    2.4921 O   0  0  0  0  0  0  0  0  0  0  0  0
    6.4246   -3.3994    1.1906 C   0  0  2  0  0  0  0  0  0  0  0  0
    7.8936   -3.0770    0.8740 C   0  0  2  0  0  0  0  0  0  0  0  0
    7.8031   -1.7796    0.2811 O   0  0  0  0  0  0  0  0  0  0  0  0
    6.8008   -2.0288   -0.7170 C   0  0  1  0  0  0  0  0  0  0  0  0
    7.4571   -3.1855   -1.5076 C   0  0  0  0  0  0  0  0  0  0  0  0
    8.2220   -3.8346   -0.3711 C   0  0  0  0  0  0  0  0  0  0  0  0
    9.0073   -4.7562   -0.4410 O   0  0  0  0  0  0  0  0  0  0  0  0
    5.7402   -2.3711    0.3286 C   0  0  1  0  0  0  0  0  0  0  0  0
    2.3862   -4.0591   -0.5021 C   0  0  0  0  0  0  0  0  0  0  0  0
    3.7080   -3.4475   -1.0608 C   0  0  1  0  0  0  0  0  0  0  0  0
    1.4936   -2.7839   -2.8260 H   0  0  0  0  0  0  0  0  0  0  0  0
    2.6625   -3.8546   -3.5826 H   0  0  0  0  0  0  0  0  0  0  0  0
    2.5670   -2.1834   -4.0587 H   0  0  0  0  0  0  0  0  0  0  0  0
    4.2040   -0.5177   -1.9687 H   0  0  0  0  0  0  0  0  0  0  0  0
    2.5206   -0.6624   -1.9594 H   0  0  0  0  0  0  0  0  0  0  0  0
    3.8936   -0.4350    0.4145 H   0  0  0  0  0  0  0  0  0  0  0  0
    2.4937   -1.4399    0.3684 H   0  0  0  0  0  0  0  0  0  0  0  0
    1.1266   -5.5765    1.8356 H   0  0  0  0  0  0  0  0  0  0  0  0
    2.2214   -5.6238    4.0701 H   0  0  0  0  0  0  0  0  0  0  0  0
    4.1692   -5.2417    5.2194 H   0  0  0  0  0  0  0  0  0  0  0  0
    6.1936   -4.4096    0.8410 H   0  0  0  0  0  0  0  0  0  0  0  0
    8.6364   -3.3411    1.6297 H   0  0  0  0  0  0  0  0  0  0  0  0
    6.5363   -1.1603   -1.3119 H   0  0  0  0  0  0  0  0  0  0  0  0
    6.7177   -3.8427   -1.9721 H   0  0  0  0  0  0  0  0  0  0  0  0
    8.1599   -2.8324   -2.2660 H   0  0  0  0  0  0  0  0  0  0  0  0
    5.7243   -1.4745    0.9586 H   0  0  0  0  0  0  0  0  0  0  0  0
    2.1624   -5.0326   -0.9212 H   0  0  0  0  0  0  0  0  0  0  0  0
    1.5247   -3.4187   -0.6737 H   0  0  0  0  0  0  0  0  0  0  0  0
    4.3959   -4.2389   -1.3330 H   0  0  0  0  0  0  0  0  0  0  0  0
    4.4061   -2.4788   -2.6863 H   0  0  0  0  0  0  0  0  0  0  0  0
  1  2  1  0
  1 24  1  0
  1 25  1  0
  1 26  1  0
  2 23  1  0
  2  3  1  0
  2 43  1  6
  3  4  1  0
  3 27  1  0
  3 28  1  0
  5  4  1  1
  4 29  1  0
  4 30  1  0
  5 21  1  0
  5 23  1  0
  5  6  1  0
  6 12  1  0
  6  7  2  0
  7  8  1  0
  7 22  1  0
  8  9  2  0
  8 31  1  0
  9 10  1  0
  9 32  1  0
 10 11  1  0
 10 12  2  0
 11 33  1  0
 12 13  1  0
 13 14  1  0
 14 21  1  0
 14 15  1  0
 14 34  1  6
 15 19  1  0
 15 16  1  0
 15 35  1  1
 16 17  1  0
 17 18  1  0
 17 21  1  0
 17 36  1  6
 18 19  1  0
 18 37  1  0
 18 38  1  0
 19 20  2  0
 21 39  1  1
 22 23  1  0
 22 40  1  0
 22 41  1  0
 23 42  1  6
M  CHG  1   2   1
M  END
>  <i_m_ct_stereo_status>  (168) 
1

>  <s_m_source_file>  (168) 
/var/tmp/pbs.5076255.sched01/tmp06uo9b_r/40lj_pgbub.sdf

>  <i_m_source_file_index>  (168) 
33

>  <i_lp_mmshare_version>  (168) 
48012

>  <i_f3d_flags>  (168) 
0

>  <s_epik_input>  (168) 
W0NIMl0xW0NIMl1OKFtDSDNdKVtDQEBIXTJbQ0gyXWMoYzNbQ0BdMTI0KVtjSF1bY0hdYyhbT0hdKWMzT1tDQEBIXTVbQ0BASF02T1tDQEhdKFtDQEBIXTQ1KVtDSDJdQzY9Tw==

>  <s_epik_cmdline>  (168) 
J2VwaWtfcHl0aG9uJywgJy1waHQnLCAnMi4wJywgJy1waCcsICc3LjAnLCAnLXRuJywgJzgnLCAnLW1hJywgJzIwMCcsICctaW1hZScsICc8aW5maWxlLm1hZT4nLCAnLW9tYWUnLCAnPG91dGZpbGUubWFlPic=

>  <r_lp_tautomer_probability>  (168) 
1

>  <r_epik_Ionization_Penalty>  (168) 
0.0185284

>  <r_epik_Ionization_Penalty_Charging>  (168) 
0.0133147

>  <r_epik_Ionization_Penalty_Neutral>  (168) 
0.00521369

>  <r_epik_State_Penalty>  (168) 
0.0103556

>  <r_epik_Charging_Adjusted_Penalty>  (168) 
0.0236704

>  <i_epik_Tot_Q>  (168) 
1

>  <i_epik_Tot_abs_Q>  (168) 
1

>  <s_lp_Force_Field>  (168) 
OPLS3e

>  <r_lp_Energy>  (168) 
75.0221

>  <b_lp_Chiralities_Consistent>  (168) 
1

>  <s_lp_Variant>  (168) 
52:0-1

>  <s_i_glide_gridfile>  (168) 
pfpi4k_grid

>  <i_i_glide_lignum>  (168) 
33

>  <i_i_glide_rotatable_bonds>  (168) 
1

>  <r_i_docking_score>  (168) 
-3.40102

>  <r_i_glide_ligand_efficiency>  (168) 
-0.14787

>  <r_i_glide_ligand_efficiency_sa>  (168) 
-0.420524

>  <r_i_glide_ligand_efficiency_ln>  (168) 
-0.822398

>  <r_i_glide_gscore>  (168) 
-3.40102

>  <r_i_glide_lipo>  (168) 
-0.42274

>  <r_i_glide_hbond>  (168) 
-0.109195

>  <r_i_glide_metal>  (168) 
-0

>  <r_i_glide_rewards>  (168) 
-1.4141

>  <r_i_glide_evdw>  (168) 
-14.0455

>  <r_i_glide_ecoul>  (168) 
-4.85204

>  <r_i_glide_erotb>  (168) 
0

>  <r_i_glide_esite>  (168) 
-0.0249013

>  <r_i_glide_emodel>  (168) 
-24.4744

>  <r_i_glide_energy>  (168) 
-18.8976

>  <r_i_glide_einternal>  (168) 
0.0499801

>  <r_i_glide_intrahb_reward>  (168) 
-0

>  <i_i_glide_confnum>  (168) 
2

>  <i_i_glide_posenum>  (168) 
20

>  <r_i_glide_eff_state_penalty>  (168) 
0

>  <ligand_id>  (168) 
52

>  <original_smiles>  (168) 
CN1CCC23c4c(ccc(O)c4OC4C5OC(CC5=O)C42)CC13

>  <smiles>  (168) 
[H]Oc1c([H])c([H])c2c3c1OC1([H])C4([H])OC([H])(C([H])([H])C4=O)C1([H])C31C([H])([H])C([H])([H])[N+]([H])(C([H])([H])[H])C1([H])C2([H])[H]

$$$$
52:0:2
     RDKit          3D

 43 48  0  0  1  0  0  0  0  0999 V2000
    2.5120   -2.8469   -3.2163 C   0  0  0  0  0  0  0  0  0  0  0  0
    3.5365   -2.4966   -2.2000 N   0  0  1  0  0  0  0  0  0  0  0  0
    3.4063   -1.1488   -1.6091 C   0  0  0  0  0  0  0  0  0  0  0  0
    3.4762   -1.3214   -0.0767 C   0  0  0  0  0  0  0  0  0  0  0  0
    4.2381   -2.6508    0.1159 C   0  0  2  0  0  0  0  0  0  0  0  0
    3.7530   -3.4962    1.2871 C   0  0  0  0  0  0  0  0  0  0  0  0
    2.6105   -4.2251    0.9874 C   0  0  0  0  0  0  0  0  0  0  0  0
    2.0254   -5.0092    2.0005 C   0  0  0  0  0  0  0  0  0  0  0  0
    2.6601   -5.0420    3.2646 C   0  0  0  0  0  0  0  0  0  0  0  0
    3.9112   -4.4158    3.4689 C   0  0  0  0  0  0  0  0  0  0  0  0
    4.5752   -4.6233    4.6430 O   0  0  0  0  0  0  0  0  0  0  0  0
    4.5215   -3.6468    2.4529 C   0  0  0  0  0  0  0  0  0  0  0  0
    5.8489   -3.2611    2.4932 O   0  0  0  0  0  0  0  0  0  0  0  0
    6.4254   -3.4072    1.1952 C   0  0  2  0  0  0  0  0  0  0  0  0
    7.9036   -3.0859    0.8705 C   0  0  2  0  0  0  0  0  0  0  0  0
    7.8069   -1.7837    0.2787 O   0  0  0  0  0  0  0  0  0  0  0  0
    6.8038   -2.0312   -0.7172 C   0  0  1  0  0  0  0  0  0  0  0  0
    7.4594   -3.1883   -1.5112 C   0  0  0  0  0  0  0  0  0  0  0  0
    8.2252   -3.8371   -0.3775 C   0  0  0  0  0  0  0  0  0  0  0  0
    9.0123   -4.7726   -0.4559 O   0  0  0  0  0  0  0  0  0  0  0  0
    5.7425   -2.3755    0.3309 C   0  0  1  0  0  0  0  0  0  0  0  0
    2.3815   -4.0678   -0.5055 C   0  0  0  0  0  0  0  0  0  0  0  0
    3.7043   -3.4484   -1.0730 C   0  0  1  0  0  0  0  0  0  0  0  0
    1.4911   -2.7787   -2.8290 H   0  0  0  0  0  0  0  0  0  0  0  0
    2.6705   -3.8604   -3.5915 H   0  0  0  0  0  0  0  0  0  0  0  0
    2.5758   -2.1695   -4.0731 H   0  0  0  0  0  0  0  0  0  0  0  0
    4.2149   -0.5121   -1.9657 H   0  0  0  0  0  0  0  0  0  0  0  0
    2.5061   -0.6586   -1.9569 H   0  0  0  0  0  0  0  0  0  0  0  0
    3.8921   -0.4421    0.4190 H   0  0  0  0  0  0  0  0  0  0  0  0
    2.4861   -1.4406    0.3604 H   0  0  0  0  0  0  0  0  0  0  0  0
    1.1291   -5.5785    1.8244 H   0  0  0  0  0  0  0  0  0  0  0  0
    2.2288   -5.6290    4.0585 H   0  0  0  0  0  0  0  0  0  0  0  0
    5.4329   -4.2279    4.6552 H   0  0  0  0  0  0  0  0  0  0  0  0
    6.1952   -4.4163    0.8374 H   0  0  0  0  0  0  0  0  0  0  0  0
    8.6534   -3.3303    1.6323 H   0  0  0  0  0  0  0  0  0  0  0  0
    6.5417   -1.1592   -1.3120 H   0  0  0  0  0  0  0  0  0  0  0  0
    6.7250   -3.8531   -1.9742 H   0  0  0  0  0  0  0  0  0  0  0  0
    8.1553   -2.8344   -2.2656 H   0  0  0  0  0  0  0  0  0  0  0  0
    5.7218   -1.4813    0.9593 H   0  0  0  0  0  0  0  0  0  0  0  0
    2.1619   -5.0365   -0.9421 H   0  0  0  0  0  0  0  0  0  0  0  0
    1.5222   -3.4219   -0.6814 H   0  0  0  0  0  0  0  0  0  0  0  0
    4.4033   -4.2408   -1.3424 H   0  0  0  0  0  0  0  0  0  0  0  0
    4.4139   -2.4769   -2.6896 H   0  0  0  0  0  0  0  0  0  0  0  0
  1  2  1  0
  1 24  1  0
  1 25  1  0
  1 26  1  0
  2 23  1  0
  2  3  1  0
  2 43  1  6
  3  4  1  0
  3 27  1  0
  3 28  1  0
  5  4  1  1
  4 29  1  0
  4 30  1  0
  5 21  1  0
  5 23  1  0
  5  6  1  0
  6 12  1  0
  6  7  2  0
  7  8  1  0
  7 22  1  0
  8  9  2  0
  8 31  1  0
  9 10  1  0
  9 32  1  0
 10 11  1  0
 10 12  2  0
 11 33  1  0
 12 13  1  0
 13 14  1  0
 14 21  1  0
 14 15  1  0
 14 34  1  6
 15 19  1  0
 15 16  1  0
 15 35  1  1
 16 17  1  0
 17 18  1  0
 17 21  1  0
 17 36  1  6
 18 19  1  0
 18 37  1  0
 18 38  1  0
 19 20  2  0
 21 39  1  1
 22 23  1  0
 22 40  1  0
 22 41  1  0
 23 42  1  6
M  CHG  1   2   1
M  END
>  <i_m_ct_stereo_status>  (169) 
1

>  <s_m_source_file>  (169) 
/var/tmp/pbs.5076255.sched01/tmp06uo9b_r/40lj_pgbub.sdf

>  <i_m_source_file_index>  (169) 
33

>  <i_lp_mmshare_version>  (169) 
48012

>  <i_f3d_flags>  (169) 
0

>  <s_epik_input>  (169) 
W0NIMl0xW0NIMl1OKFtDSDNdKVtDQEBIXTJbQ0gyXWMoYzNbQ0BdMTI0KVtjSF1bY0hdYyhbT0hdKWMzT1tDQEBIXTVbQ0BASF02T1tDQEhdKFtDQEBIXTQ1KVtDSDJdQzY9Tw==

>  <s_epik_cmdline>  (169) 
J2VwaWtfcHl0aG9uJywgJy1waHQnLCAnMi4wJywgJy1waCcsICc3LjAnLCAnLXRuJywgJzgnLCAnLW1hJywgJzIwMCcsICctaW1hZScsICc8aW5maWxlLm1hZT4nLCAnLW9tYWUnLCAnPG91dGZpbGUubWFlPic=

>  <r_lp_tautomer_probability>  (169) 
1

>  <r_epik_Ionization_Penalty>  (169) 
0.0185284

>  <r_epik_Ionization_Penalty_Charging>  (169) 
0.0133147

>  <r_epik_Ionization_Penalty_Neutral>  (169) 
0.00521369

>  <r_epik_State_Penalty>  (169) 
0.0103556

>  <r_epik_Charging_Adjusted_Penalty>  (169) 
0.0236704

>  <i_epik_Tot_Q>  (169) 
1

>  <i_epik_Tot_abs_Q>  (169) 
1

>  <s_lp_Force_Field>  (169) 
OPLS3e

>  <r_lp_Energy>  (169) 
75.0221

>  <b_lp_Chiralities_Consistent>  (169) 
1

>  <s_lp_Variant>  (169) 
52:0-1

>  <s_i_glide_gridfile>  (169) 
pfpi4k_grid

>  <i_i_glide_lignum>  (169) 
33

>  <i_i_glide_rotatable_bonds>  (169) 
1

>  <r_i_docking_score>  (169) 
-3.34337

>  <r_i_glide_ligand_efficiency>  (169) 
-0.145364

>  <r_i_glide_ligand_efficiency_sa>  (169) 
-0.413396

>  <r_i_glide_ligand_efficiency_ln>  (169) 
-0.808457

>  <r_i_glide_gscore>  (169) 
-3.34337

>  <r_i_glide_lipo>  (169) 
-0.4243

>  <r_i_glide_hbond>  (169) 
-0.108603

>  <r_i_glide_metal>  (169) 
-0

>  <r_i_glide_rewards>  (169) 
-1.41101

>  <r_i_glide_evdw>  (169) 
-13.619

>  <r_i_glide_ecoul>  (169) 
-4.62601

>  <r_i_glide_erotb>  (169) 
0

>  <r_i_glide_esite>  (169) 
-0.0246058

>  <r_i_glide_emodel>  (169) 
-23.4964

>  <r_i_glide_energy>  (169) 
-18.245

>  <r_i_glide_einternal>  (169) 
0.0030221

>  <r_i_glide_intrahb_reward>  (169) 
-0

>  <i_i_glide_confnum>  (169) 
2

>  <i_i_glide_posenum>  (169) 
24

>  <r_i_glide_eff_state_penalty>  (169) 
0

>  <ligand_id>  (169) 
52

>  <original_smiles>  (169) 
CN1CCC23c4c(ccc(O)c4OC4C5OC(CC5=O)C42)CC13

>  <smiles>  (169) 
[H]Oc1c([H])c([H])c2c3c1OC1([H])C4([H])OC([H])(C([H])([H])C4=O)C1([H])C31C([H])([H])C([H])([H])[N+]([H])(C([H])([H])[H])C1([H])C2([H])[H]

$$$$
52:1:0
     RDKit          3D

 42 47  0  0  1  0  0  0  0  0999 V2000
    2.5680   -5.1506    2.2834 C   0  0  0  0  0  0  0  0  0  0  0  0
    2.8744   -5.1323    0.8600 N   0  0  0  0  0  0  0  0  0  0  0  0
    4.2545   -5.5497    0.6024 C   0  0  0  0  0  0  0  0  0  0  0  0
    4.7626   -4.6283   -0.5089 C   0  0  0  0  0  0  0  0  0  0  0  0
    4.0111   -3.3228   -0.2607 C   0  0  2  0  0  0  0  0  0  0  0  0
    3.6422   -2.6262   -1.5700 C   0  0  0  0  0  0  0  0  0  0  0  0
    2.5533   -3.2466   -2.1899 C   0  0  0  0  0  0  0  0  0  0  0  0
    2.0800   -2.6785   -3.3647 C   0  0  0  0  0  0  0  0  0  0  0  0
    2.7098   -1.5294   -3.8855 C   0  0  0  0  0  0  0  0  0  0  0  0
    3.7483   -0.8920   -3.1671 C   0  0  0  0  0  0  0  0  0  0  0  0
    4.1949    0.3192   -3.5973 O   0  0  0  0  0  0  0  0  0  0  0  0
    4.2433   -1.4021   -1.9571 C   0  0  0  0  0  0  0  0  0  0  0  0
    5.0590   -0.6709   -1.0965 O   0  0  0  0  0  0  0  0  0  0  0  0
    4.6264   -0.9031    0.2459 C   0  0  2  0  0  0  0  0  0  0  0  0
    5.3107   -0.2779    1.4623 C   0  0  2  0  0  0  0  0  0  0  0  0
    6.1396   -1.3346    1.9385 O   0  0  0  0  0  0  0  0  0  0  0  0
    5.1735   -2.3853    2.0583 C   0  0  1  0  0  0  0  0  0  0  0  0
    4.1135   -1.7414    2.9871 C   0  0  0  0  0  0  0  0  0  0  0  0
    4.2712   -0.3141    2.5637 C   0  0  0  0  0  0  0  0  0  0  0  0
    3.6910    0.6414    3.0915 O   0  0  0  0  0  0  0  0  0  0  0  0
    4.8918   -2.3601    0.5436 C   0  0  1  0  0  0  0  0  0  0  0  0
    1.8451   -4.0492   -1.1160 C   0  0  0  0  0  0  0  0  0  0  0  0
    2.6471   -3.8277    0.2245 C   0  0  1  0  0  0  0  0  0  0  0  0
    2.7118   -6.1467    2.7085 H   0  0  0  0  0  0  0  0  0  0  0  0
    1.5232   -4.8843    2.4361 H   0  0  0  0  0  0  0  0  0  0  0  0
    3.1822   -4.4444    2.8447 H   0  0  0  0  0  0  0  0  0  0  0  0
    4.8611   -5.3837    1.4890 H   0  0  0  0  0  0  0  0  0  0  0  0
    4.3431   -6.6156    0.3676 H   0  0  0  0  0  0  0  0  0  0  0  0
    5.8562   -4.5581   -0.5429 H   0  0  0  0  0  0  0  0  0  0  0  0
    4.4728   -5.0203   -1.4767 H   0  0  0  0  0  0  0  0  0  0  0  0
    1.1188   -3.0319   -3.7798 H   0  0  0  0  0  0  0  0  0  0  0  0
    2.2460   -1.0276   -4.7146 H   0  0  0  0  0  0  0  0  0  0  0  0
    3.4855    0.8969   -3.8725 H   0  0  0  0  0  0  0  0  0  0  0  0
    3.5552   -0.6823    0.2846 H   0  0  0  0  0  0  0  0  0  0  0  0
    5.8075    0.6543    1.2368 H   0  0  0  0  0  0  0  0  0  0  0  0
    5.6108   -3.3072    2.4396 H   0  0  0  0  0  0  0  0  0  0  0  0
    3.0887   -2.0842    2.8268 H   0  0  0  0  0  0  0  0  0  0  0  0
    4.3817   -1.8018    4.0405 H   0  0  0  0  0  0  0  0  0  0  0  0
    5.8849   -2.5203    0.1104 H   0  0  0  0  0  0  0  0  0  0  0  0
    0.8048   -3.7258   -1.1531 H   0  0  0  0  0  0  0  0  0  0  0  0
    1.7185   -5.1067   -1.3257 H   0  0  0  0  0  0  0  0  0  0  0  0
    2.1691   -3.0971    0.9004 H   0  0  0  0  0  0  0  0  0  0  0  0
  1  2  1  0
  1 24  1  0
  1 25  1  0
  1 26  1  0
  2 23  1  0
  2  3  1  0
  3  4  1  0
  3 27  1  0
  3 28  1  0
  5  4  1  6
  4 29  1  0
  4 30  1  0
  5 21  1  0
  5 23  1  0
  5  6  1  0
  6 12  1  0
  6  7  2  0
  7  8  1  0
  7 22  1  0
  8  9  2  0
  8 31  1  0
  9 10  1  0
  9 32  1  0
 10 11  1  0
 10 12  2  0
 11 33  1  0
 12 13  1  0
 13 14  1  0
 14 21  1  0
 14 15  1  0
 14 34  1  6
 15 19  1  0
 15 16  1  0
 15 35  1  6
 16 17  1  0
 17 18  1  0
 17 21  1  0
 17 36  1  1
 18 19  1  0
 18 37  1  0
 18 38  1  0
 19 20  2  0
 21 39  1  6
 22 23  1  0
 22 40  1  0
 22 41  1  0
 23 42  1  1
M  END
>  <i_m_ct_stereo_status>  (170) 
1

>  <s_m_source_file>  (170) 
/var/tmp/pbs.5076255.sched01/tmp06uo9b_r/40lj_pgbub.sdf

>  <i_m_source_file_index>  (170) 
34

>  <i_lp_mmshare_version>  (170) 
48012

>  <i_f3d_flags>  (170) 
0

>  <s_epik_input>  (170) 
W0NIMl0xW0NIMl1OKFtDSDNdKVtDQEBIXTJbQ0gyXWMoYzNbQ0BdMTI0KVtjSF1bY0hdYyhbT0hdKWMzT1tDQEBIXTVbQ0BASF02T1tDQEhdKFtDQEBIXTQ1KVtDSDJdQzY9Tw==

>  <s_epik_cmdline>  (170) 
J2VwaWtfcHl0aG9uJywgJy1waHQnLCAnMi4wJywgJy1waCcsICc3LjAnLCAnLXRuJywgJzgnLCAnLW1hJywgJzIwMCcsICctaW1hZScsICc8aW5maWxlLm1hZT4nLCAnLW9tYWUnLCAnPG91dGZpbGUubWFlPic=

>  <r_lp_tautomer_probability>  (170) 
1

>  <r_epik_Ionization_Penalty>  (170) 
2.2558

>  <r_epik_Ionization_Penalty_Charging>  (170) 
0

>  <r_epik_Ionization_Penalty_Neutral>  (170) 
2.2558

>  <r_epik_State_Penalty>  (170) 
2.40284

>  <r_epik_Charging_Adjusted_Penalty>  (170) 
2.40284

>  <i_epik_Tot_Q>  (170) 
0

>  <i_epik_Tot_abs_Q>  (170) 
0

>  <s_lp_Force_Field>  (170) 
OPLS3e

>  <r_lp_Energy>  (170) 
68.1104

>  <b_lp_Chiralities_Consistent>  (170) 
1

>  <s_lp_Variant>  (170) 
52:0-2

>  <s_i_glide_gridfile>  (170) 
pfpi4k_grid

>  <i_i_glide_lignum>  (170) 
34

>  <i_i_glide_rotatable_bonds>  (170) 
1

>  <r_i_docking_score>  (170) 
-3.38535

>  <r_i_glide_ligand_efficiency>  (170) 
-0.147189

>  <r_i_glide_ligand_efficiency_sa>  (170) 
-0.418587

>  <r_i_glide_ligand_efficiency_ln>  (170) 
-0.818609

>  <r_i_glide_gscore>  (170) 
-3.38535

>  <r_i_glide_lipo>  (170) 
-0.821571

>  <r_i_glide_hbond>  (170) 
0

>  <r_i_glide_metal>  (170) 
-0

>  <r_i_glide_rewards>  (170) 
-1.3598

>  <r_i_glide_evdw>  (170) 
-17.4808

>  <r_i_glide_ecoul>  (170) 
-2.19964

>  <r_i_glide_erotb>  (170) 
0

>  <r_i_glide_esite>  (170) 
0

>  <r_i_glide_emodel>  (170) 
-21.4281

>  <r_i_glide_energy>  (170) 
-19.6804

>  <r_i_glide_einternal>  (170) 
1.71391

>  <r_i_glide_intrahb_reward>  (170) 
-0

>  <i_i_glide_confnum>  (170) 
2

>  <i_i_glide_posenum>  (170) 
32

>  <r_i_glide_eff_state_penalty>  (170) 
0

>  <ligand_id>  (170) 
52

>  <original_smiles>  (170) 
CN1CCC23c4c(ccc(O)c4OC4C5OC(CC5=O)C42)CC13

>  <smiles>  (170) 
[H]Oc1c([H])c([H])c2c3c1OC1([H])C4([H])OC([H])(C([H])([H])C4=O)C1([H])C31C([H])([H])C([H])([H])N(C([H])([H])[H])C1([H])C2([H])[H]

$$$$
52:1:1
     RDKit          3D

 42 47  0  0  1  0  0  0  0  0999 V2000
    1.8673   -4.9700    2.3514 C   0  0  0  0  0  0  0  0  0  0  0  0
    2.3564   -5.0124    0.9756 N   0  0  0  0  0  0  0  0  0  0  0  0
    3.7738   -5.4065    0.9367 C   0  0  0  0  0  0  0  0  0  0  0  0
    4.4051   -4.5668   -0.1653 C   0  0  0  0  0  0  0  0  0  0  0  0
    3.6318   -3.2568   -0.1000 C   0  0  2  0  0  0  0  0  0  0  0  0
    3.4129   -2.6126   -1.4692 C   0  0  0  0  0  0  0  0  0  0  0  0
    2.3539   -3.1778   -2.1649 C   0  0  0  0  0  0  0  0  0  0  0  0
    2.0201   -2.6717   -3.4309 C   0  0  0  0  0  0  0  0  0  0  0  0
    2.7616   -1.5744   -3.9218 C   0  0  0  0  0  0  0  0  0  0  0  0
    3.7236   -0.9399   -3.1157 C   0  0  0  0  0  0  0  0  0  0  0  0
    4.2043    0.2363   -3.5718 O   0  0  0  0  0  0  0  0  0  0  0  0
    4.0511   -1.4163   -1.8335 C   0  0  0  0  0  0  0  0  0  0  0  0
    4.7366   -0.6527   -0.9032 O   0  0  0  0  0  0  0  0  0  0  0  0
    4.0872   -0.7945    0.3573 C   0  0  2  0  0  0  0  0  0  0  0  0
    4.5770   -0.0513    1.6056 C   0  0  2  0  0  0  0  0  0  0  0  0
    5.3573   -1.0490    2.2807 O   0  0  0  0  0  0  0  0  0  0  0  0
    4.4006   -2.1192    2.3284 C   0  0  1  0  0  0  0  0  0  0  0  0
    3.2070   -1.4293    3.0494 C   0  0  0  0  0  0  0  0  0  0  0  0
    3.4064   -0.0089    2.5736 C   0  0  0  0  0  0  0  0  0  0  0  0
    2.7771    0.9703    2.9262 O   0  0  0  0  0  0  0  0  0  0  0  0
    4.3481   -2.2132    0.7908 C   0  0  1  0  0  0  0  0  0  0  0  0
    1.6119   -4.0277   -1.1656 C   0  0  0  0  0  0  0  0  0  0  0  0
    2.2272   -3.7438    0.2428 C   0  0  1  0  0  0  0  0  0  0  0  0
    1.9857   -5.9386    2.8394 H   0  0  0  0  0  0  0  0  0  0  0  0
    0.8096   -4.7393    2.3970 H   0  0  0  0  0  0  0  0  0  0  0  0
    2.3885   -4.2133    2.9343 H   0  0  0  0  0  0  0  0  0  0  0  0
    4.2446   -5.1627    1.8912 H   0  0  0  0  0  0  0  0  0  0  0  0
    3.9094   -6.4809    0.7770 H   0  0  0  0  0  0  0  0  0  0  0  0
    5.4783   -4.4513   -0.0674 H   0  0  0  0  0  0  0  0  0  0  0  0
    4.2072   -5.0273   -1.1250 H   0  0  0  0  0  0  0  0  0  0  0  0
    1.1727   -3.0441   -3.9700 H   0  0  0  0  0  0  0  0  0  0  0  0
    2.4980   -1.0805   -4.8396 H   0  0  0  0  0  0  0  0  0  0  0  0
    4.5779    0.7433   -2.8558 H   0  0  0  0  0  0  0  0  0  0  0  0
    3.0178   -0.5901    0.2364 H   0  0  0  0  0  0  0  0  0  0  0  0
    5.0317    0.8965    1.3306 H   0  0  0  0  0  0  0  0  0  0  0  0
    4.7911   -3.0112    2.8229 H   0  0  0  0  0  0  0  0  0  0  0  0
    2.2281   -1.8274    2.7708 H   0  0  0  0  0  0  0  0  0  0  0  0
    3.3212   -1.4501    4.1280 H   0  0  0  0  0  0  0  0  0  0  0  0
    5.3907   -2.3636    0.5180 H   0  0  0  0  0  0  0  0  0  0  0  0
    0.5573   -3.8490   -1.2385 H   0  0  0  0  0  0  0  0  0  0  0  0
    1.7306   -5.0488   -1.3947 H   0  0  0  0  0  0  0  0  0  0  0  0
    1.7573   -2.9383    0.8160 H   0  0  0  0  0  0  0  0  0  0  0  0
  1  2  1  0
  1 24  1  0
  1 25  1  0
  1 26  1  0
  2 23  1  0
  2  3  1  0
  3  4  1  0
  3 27  1  0
  3 28  1  0
  5  4  1  6
  4 29  1  0
  4 30  1  0
  5 21  1  0
  5 23  1  0
  5  6  1  0
  6 12  1  0
  6  7  2  0
  7  8  1  0
  7 22  1  0
  8  9  2  0
  8 31  1  0
  9 10  1  0
  9 32  1  0
 10 11  1  0
 10 12  2  0
 11 33  1  0
 12 13  1  0
 13 14  1  0
 14 21  1  0
 14 15  1  0
 14 34  1  6
 15 19  1  0
 15 16  1  0
 15 35  1  6
 16 17  1  0
 17 18  1  0
 17 21  1  0
 17 36  1  1
 18 19  1  0
 18 37  1  0
 18 38  1  0
 19 20  2  0
 21 39  1  6
 22 23  1  0
 22 40  1  0
 22 41  1  0
 23 42  1  1
M  END
>  <i_m_ct_stereo_status>  (171) 
1

>  <s_m_source_file>  (171) 
/var/tmp/pbs.5076255.sched01/tmp06uo9b_r/40lj_pgbub.sdf

>  <i_m_source_file_index>  (171) 
34

>  <i_lp_mmshare_version>  (171) 
48012

>  <i_f3d_flags>  (171) 
0

>  <s_epik_input>  (171) 
W0NIMl0xW0NIMl1OKFtDSDNdKVtDQEBIXTJbQ0gyXWMoYzNbQ0BdMTI0KVtjSF1bY0hdYyhbT0hdKWMzT1tDQEBIXTVbQ0BASF02T1tDQEhdKFtDQEBIXTQ1KVtDSDJdQzY9Tw==

>  <s_epik_cmdline>  (171) 
J2VwaWtfcHl0aG9uJywgJy1waHQnLCAnMi4wJywgJy1waCcsICc3LjAnLCAnLXRuJywgJzgnLCAnLW1hJywgJzIwMCcsICctaW1hZScsICc8aW5maWxlLm1hZT4nLCAnLW9tYWUnLCAnPG91dGZpbGUubWFlPic=

>  <r_lp_tautomer_probability>  (171) 
1

>  <r_epik_Ionization_Penalty>  (171) 
2.2558

>  <r_epik_Ionization_Penalty_Charging>  (171) 
0

>  <r_epik_Ionization_Penalty_Neutral>  (171) 
2.2558

>  <r_epik_State_Penalty>  (171) 
2.40284

>  <r_epik_Charging_Adjusted_Penalty>  (171) 
2.40284

>  <i_epik_Tot_Q>  (171) 
0

>  <i_epik_Tot_abs_Q>  (171) 
0

>  <s_lp_Force_Field>  (171) 
OPLS3e

>  <r_lp_Energy>  (171) 
68.1104

>  <b_lp_Chiralities_Consistent>  (171) 
1

>  <s_lp_Variant>  (171) 
52:0-2

>  <s_i_glide_gridfile>  (171) 
pfpi4k_grid

>  <i_i_glide_lignum>  (171) 
34

>  <i_i_glide_rotatable_bonds>  (171) 
1

>  <r_i_docking_score>  (171) 
-3.06865

>  <r_i_glide_ligand_efficiency>  (171) 
-0.133419

>  <r_i_glide_ligand_efficiency_sa>  (171) 
-0.379427

>  <r_i_glide_ligand_efficiency_ln>  (171) 
-0.742027

>  <r_i_glide_gscore>  (171) 
-3.06865

>  <r_i_glide_lipo>  (171) 
-0.632424

>  <r_i_glide_hbond>  (171) 
0

>  <r_i_glide_metal>  (171) 
-0

>  <r_i_glide_rewards>  (171) 
-1.29525

>  <r_i_glide_evdw>  (171) 
-15.1174

>  <r_i_glide_ecoul>  (171) 
-2.56733

>  <r_i_glide_erotb>  (171) 
0

>  <r_i_glide_esite>  (171) 
0

>  <r_i_glide_emodel>  (171) 
-20.5981

>  <r_i_glide_energy>  (171) 
-17.6847

>  <r_i_glide_einternal>  (171) 
0.281614

>  <r_i_glide_intrahb_reward>  (171) 
-0

>  <i_i_glide_confnum>  (171) 
2

>  <i_i_glide_posenum>  (171) 
27

>  <r_i_glide_eff_state_penalty>  (171) 
0

>  <ligand_id>  (171) 
52

>  <original_smiles>  (171) 
CN1CCC23c4c(ccc(O)c4OC4C5OC(CC5=O)C42)CC13

>  <smiles>  (171) 
[H]Oc1c([H])c([H])c2c3c1OC1([H])C4([H])OC([H])(C([H])([H])C4=O)C1([H])C31C([H])([H])C([H])([H])N(C([H])([H])[H])C1([H])C2([H])[H]

$$$$
52:1:2
     RDKit          3D

 42 47  0  0  1  0  0  0  0  0999 V2000
    2.0261   -4.9649    3.2453 C   0  0  0  0  0  0  0  0  0  0  0  0
    2.9128   -5.0036    2.0886 N   0  0  0  0  0  0  0  0  0  0  0  0
    4.3266   -4.9591    2.4646 C   0  0  0  0  0  0  0  0  0  0  0  0
    5.0010   -4.0782    1.4107 C   0  0  0  0  0  0  0  0  0  0  0  0
    3.9227   -3.0316    1.0658 C   0  0  2  0  0  0  0  0  0  0  0  0
    3.8916   -2.5874   -0.3965 C   0  0  0  0  0  0  0  0  0  0  0  0
    3.2341   -3.4997   -1.2105 C   0  0  0  0  0  0  0  0  0  0  0  0
    3.1564   -3.2519   -2.5932 C   0  0  0  0  0  0  0  0  0  0  0  0
    3.7242   -2.0668   -3.0893 C   0  0  0  0  0  0  0  0  0  0  0  0
    4.2379   -1.0895   -2.2078 C   0  0  0  0  0  0  0  0  0  0  0  0
    4.6116    0.1078   -2.7191 O   0  0  0  0  0  0  0  0  0  0  0  0
    4.2921   -1.2958   -0.8038 C   0  0  0  0  0  0  0  0  0  0  0  0
    4.4940   -0.2780    0.1092 O   0  0  0  0  0  0  0  0  0  0  0  0
    3.6135   -0.4882    1.2196 C   0  0  2  0  0  0  0  0  0  0  0  0
    3.5246    0.4676    2.4258 C   0  0  2  0  0  0  0  0  0  0  0  0
    4.3044   -0.2216    3.4068 O   0  0  0  0  0  0  0  0  0  0  0  0
    3.6793   -1.5109    3.3784 C   0  0  1  0  0  0  0  0  0  0  0  0
    2.2018   -1.1273    3.6718 C   0  0  0  0  0  0  0  0  0  0  0  0
    2.1590    0.2425    3.0344 C   0  0  0  0  0  0  0  0  0  0  0  0
    1.2265    1.0352    3.0648 O   0  0  0  0  0  0  0  0  0  0  0  0
    4.0867   -1.7489    1.9159 C   0  0  1  0  0  0  0  0  0  0  0  0
    2.5733   -4.5056   -0.2916 C   0  0  0  0  0  0  0  0  0  0  0  0
    2.6747   -3.9123    1.1448 C   0  0  1  0  0  0  0  0  0  0  0  0
    2.2190   -5.8079    3.9099 H   0  0  0  0  0  0  0  0  0  0  0  0
    0.9887   -5.0388    2.9221 H   0  0  0  0  0  0  0  0  0  0  0  0
    2.1390   -4.0428    3.8155 H   0  0  0  0  0  0  0  0  0  0  0  0
    4.4450   -4.5119    3.4509 H   0  0  0  0  0  0  0  0  0  0  0  0
    4.7503   -5.9657    2.5172 H   0  0  0  0  0  0  0  0  0  0  0  0
    5.9463   -3.6652    1.7576 H   0  0  0  0  0  0  0  0  0  0  0  0
    5.2250   -4.7041    0.5486 H   0  0  0  0  0  0  0  0  0  0  0  0
    2.6509   -3.9345   -3.2618 H   0  0  0  0  0  0  0  0  0  0  0  0
    3.6798   -1.8586   -4.1470 H   0  0  0  0  0  0  0  0  0  0  0  0
    4.8175    0.7422   -2.0385 H   0  0  0  0  0  0  0  0  0  0  0  0
    2.6069   -0.6310    0.8153 H   0  0  0  0  0  0  0  0  0  0  0  0
    3.7694    1.5121    2.2396 H   0  0  0  0  0  0  0  0  0  0  0  0
    4.1210   -2.2014    4.0963 H   0  0  0  0  0  0  0  0  0  0  0  0
    1.4756   -1.8035    3.2193 H   0  0  0  0  0  0  0  0  0  0  0  0
    2.0124   -1.0334    4.7405 H   0  0  0  0  0  0  0  0  0  0  0  0
    5.1710   -1.6352    1.9364 H   0  0  0  0  0  0  0  0  0  0  0  0
    1.5436   -4.6970   -0.5841 H   0  0  0  0  0  0  0  0  0  0  0  0
    3.1103   -5.4546   -0.3535 H   0  0  0  0  0  0  0  0  0  0  0  0
    1.8088   -3.2995    1.3847 H   0  0  0  0  0  0  0  0  0  0  0  0
  1  2  1  0
  1 24  1  0
  1 25  1  0
  1 26  1  0
  2 23  1  0
  2  3  1  0
  3  4  1  0
  3 27  1  0
  3 28  1  0
  5  4  1  6
  4 29  1  0
  4 30  1  0
  5 21  1  0
  5 23  1  0
  5  6  1  0
  6 12  1  0
  6  7  2  0
  7  8  1  0
  7 22  1  0
  8  9  2  0
  8 31  1  0
  9 10  1  0
  9 32  1  0
 10 11  1  0
 10 12  2  0
 11 33  1  0
 12 13  1  0
 13 14  1  0
 14 21  1  0
 14 15  1  0
 14 34  1  6
 15 19  1  0
 15 16  1  0
 15 35  1  6
 16 17  1  0
 17 18  1  0
 17 21  1  0
 17 36  1  1
 18 19  1  0
 18 37  1  0
 18 38  1  0
 19 20  2  0
 21 39  1  1
 22 23  1  0
 22 40  1  0
 22 41  1  0
 23 42  1  1
M  END
>  <i_m_ct_stereo_status>  (172) 
1

>  <s_m_source_file>  (172) 
/var/tmp/pbs.5076255.sched01/tmp06uo9b_r/40lj_pgbub.sdf

>  <i_m_source_file_index>  (172) 
34

>  <i_lp_mmshare_version>  (172) 
48012

>  <i_f3d_flags>  (172) 
0

>  <s_epik_input>  (172) 
W0NIMl0xW0NIMl1OKFtDSDNdKVtDQEBIXTJbQ0gyXWMoYzNbQ0BdMTI0KVtjSF1bY0hdYyhbT0hdKWMzT1tDQEBIXTVbQ0BASF02T1tDQEhdKFtDQEBIXTQ1KVtDSDJdQzY9Tw==

>  <s_epik_cmdline>  (172) 
J2VwaWtfcHl0aG9uJywgJy1waHQnLCAnMi4wJywgJy1waCcsICc3LjAnLCAnLXRuJywgJzgnLCAnLW1hJywgJzIwMCcsICctaW1hZScsICc8aW5maWxlLm1hZT4nLCAnLW9tYWUnLCAnPG91dGZpbGUubWFlPic=

>  <r_lp_tautomer_probability>  (172) 
1

>  <r_epik_Ionization_Penalty>  (172) 
2.2558

>  <r_epik_Ionization_Penalty_Charging>  (172) 
0

>  <r_epik_Ionization_Penalty_Neutral>  (172) 
2.2558

>  <r_epik_State_Penalty>  (172) 
2.40284

>  <r_epik_Charging_Adjusted_Penalty>  (172) 
2.40284

>  <i_epik_Tot_Q>  (172) 
0

>  <i_epik_Tot_abs_Q>  (172) 
0

>  <s_lp_Force_Field>  (172) 
OPLS3e

>  <r_lp_Energy>  (172) 
68.1104

>  <b_lp_Chiralities_Consistent>  (172) 
1

>  <s_lp_Variant>  (172) 
52:0-2

>  <s_i_glide_gridfile>  (172) 
pfpi4k_grid

>  <i_i_glide_lignum>  (172) 
34

>  <i_i_glide_rotatable_bonds>  (172) 
1

>  <r_i_docking_score>  (172) 
-2.9511

>  <r_i_glide_ligand_efficiency>  (172) 
-0.128309

>  <r_i_glide_ligand_efficiency_sa>  (172) 
-0.364893

>  <r_i_glide_ligand_efficiency_ln>  (172) 
-0.713603

>  <r_i_glide_gscore>  (172) 
-2.9511

>  <r_i_glide_lipo>  (172) 
-0.219073

>  <r_i_glide_hbond>  (172) 
0

>  <r_i_glide_metal>  (172) 
-0

>  <r_i_glide_rewards>  (172) 
-1.27263

>  <r_i_glide_evdw>  (172) 
-16.4461

>  <r_i_glide_ecoul>  (172) 
-4.1918

>  <r_i_glide_erotb>  (172) 
0

>  <r_i_glide_esite>  (172) 
-0.00832382

>  <r_i_glide_emodel>  (172) 
-23.8969

>  <r_i_glide_energy>  (172) 
-20.6379

>  <r_i_glide_einternal>  (172) 
0.0244243

>  <r_i_glide_intrahb_reward>  (172) 
-0

>  <i_i_glide_confnum>  (172) 
2

>  <i_i_glide_posenum>  (172) 
1

>  <r_i_glide_eff_state_penalty>  (172) 
0

>  <ligand_id>  (172) 
52

>  <original_smiles>  (172) 
CN1CCC23c4c(ccc(O)c4OC4C5OC(CC5=O)C42)CC13

>  <smiles>  (172) 
[H]Oc1c([H])c([H])c2c3c1OC1([H])C4([H])OC([H])(C([H])([H])C4=O)C1([H])C31C([H])([H])C([H])([H])N(C([H])([H])[H])C1([H])C2([H])[H]

$$$$
53:0:0
     RDKit          3D

 37 40  0  0  1  0  0  0  0  0999 V2000
    4.0949   -1.1843   -2.0906 C   0  0  0  0  0  0  0  0  0  0  0  0
    4.2687   -2.3745   -1.2906 N   0  0  0  0  0  0  0  0  0  0  0  0
    3.3158   -3.2591   -0.8407 C   0  0  0  0  0  0  0  0  0  0  0  0
    3.9973   -4.1881   -0.1095 C   0  0  0  0  0  0  0  0  0  0  0  0
    3.4638   -5.2889    0.6064 N   0  0  0  0  0  0  0  0  0  0  0  0
    2.2496   -5.8485    0.4996 C   0  0  0  0  0  0  0  0  0  0  0  0
    1.3702   -5.4599   -0.2647 O   0  0  0  0  0  0  0  0  0  0  0  0
    2.0668   -7.0074    1.4125 C   0  0  0  0  0  0  0  0  0  0  0  0
    3.0388   -7.9210    1.8859 C   0  0  0  0  0  0  0  0  0  0  0  0
    2.5529   -8.8625    2.6537 N   0  0  0  0  0  0  0  0  0  0  0  0
    1.2142   -8.5994    2.6864 N   0  0  0  0  0  0  0  0  0  0  0  0
    0.2845   -9.3163    3.3703 C   0  0  0  0  0  0  0  0  0  0  0  0
   -1.0189   -8.8982    3.2932 C   0  0  0  0  0  0  0  0  0  0  0  0
   -1.3238   -7.7638    2.5128 C   0  0  0  0  0  0  0  0  0  0  0  0
   -0.4197   -7.0392    1.8532 N   0  0  0  0  0  0  0  0  0  0  0  0
    0.8671   -7.4547    1.9229 C   0  0  0  0  0  0  0  0  0  0  0  0
    5.3829   -3.8219   -0.1582 C   0  0  0  0  0  0  0  0  0  0  0  0
    6.5645   -4.4624    0.4769 C   0  0  0  0  0  0  0  0  0  0  0  0
    6.3361   -5.7152    0.9522 N   0  0  0  0  0  0  0  0  0  0  0  0
    7.3324   -6.3990    1.5510 C   0  0  0  0  0  0  0  0  0  0  0  0
    8.6129   -5.8589    1.7472 C   0  0  0  0  0  0  0  0  0  0  0  0
    8.8622   -4.5643    1.2778 C   0  0  0  0  0  0  0  0  0  0  0  0
    7.8462   -3.8483    0.6192 C   0  0  0  0  0  0  0  0  0  0  0  0
    8.2544   -2.2581    0.0743 Cl  0  0  0  0  0  0  0  0  0  0  0  0
    5.5096   -2.7173   -0.8862 N   0  0  0  0  0  0  0  0  0  0  0  0
    3.0659   -1.1250   -2.4500 H   0  0  0  0  0  0  0  0  0  0  0  0
    4.7733   -1.2153   -2.9436 H   0  0  0  0  0  0  0  0  0  0  0  0
    4.3160   -0.3004   -1.4904 H   0  0  0  0  0  0  0  0  0  0  0  0
    2.2624   -3.1448   -1.0604 H   0  0  0  0  0  0  0  0  0  0  0  0
    4.1302   -5.7670    1.1946 H   0  0  0  0  0  0  0  0  0  0  0  0
    4.0963   -7.9087    1.6716 H   0  0  0  0  0  0  0  0  0  0  0  0
    0.6250  -10.1668    3.9541 H   0  0  0  0  0  0  0  0  0  0  0  0
   -1.7844   -9.4451    3.8344 H   0  0  0  0  0  0  0  0  0  0  0  0
   -2.3593   -7.4394    2.4651 H   0  0  0  0  0  0  0  0  0  0  0  0
    7.1035   -7.4005    1.8864 H   0  0  0  0  0  0  0  0  0  0  0  0
    9.3880   -6.4298    2.2412 H   0  0  0  0  0  0  0  0  0  0  0  0
    9.8226   -4.0995    1.4295 H   0  0  0  0  0  0  0  0  0  0  0  0
  1  2  1  0
  1 26  1  0
  1 27  1  0
  1 28  1  0
  2 25  1  0
  2  3  1  0
  3  4  2  0
  3 29  1  0
  4  5  1  0
  4 17  1  0
  5  6  1  0
  5 30  1  0
  6  7  2  0
  6  8  1  0
  8 16  2  0
  8  9  1  0
  9 10  2  0
  9 31  1  0
 10 11  1  0
 11 16  1  0
 11 12  1  0
 12 13  2  0
 12 32  1  0
 13 14  1  0
 13 33  1  0
 14 15  2  0
 14 34  1  0
 15 16  1  0
 17 18  1  0
 17 25  2  0
 18 23  1  0
 18 19  2  0
 19 20  1  0
 20 21  2  0
 20 35  1  0
 21 22  1  0
 21 36  1  0
 22 23  2  0
 22 37  1  0
 23 24  1  0
M  END
>  <i_m_ct_stereo_status>  (173) 
1

>  <s_m_source_file>  (173) 
/var/tmp/pbs.5076255.sched01/tmp06uo9b_r/40lj_pgbub.sdf

>  <i_m_source_file_index>  (173) 
35

>  <i_lp_mmshare_version>  (173) 
48012

>  <i_f3d_flags>  (173) 
0

>  <s_epik_input>  (173) 
Q2xjMVtjSF1bY0hdW2NIXW5jMS1jKG4yKWMoW2NIXW4yW0NIM10pW05IXUMoPU8pYyhbY0hdbjMpYyhuMzQpbltjSF1bY0hdW2NIXTQ=

>  <s_epik_cmdline>  (173) 
J2VwaWtfcHl0aG9uJywgJy1waHQnLCAnMi4wJywgJy1waCcsICc3LjAnLCAnLXRuJywgJzgnLCAnLW1hJywgJzIwMCcsICctaW1hZScsICc8aW5maWxlLm1hZT4nLCAnLW9tYWUnLCAnPG91dGZpbGUubWFlPic=

>  <r_lp_tautomer_probability>  (173) 
1

>  <r_epik_Ionization_Penalty>  (173) 
8.81409e-05

>  <r_epik_Ionization_Penalty_Charging>  (173) 
0

>  <r_epik_Ionization_Penalty_Neutral>  (173) 
8.81409e-05

>  <r_epik_State_Penalty>  (173) 
-0

>  <r_epik_Charging_Adjusted_Penalty>  (173) 
0

>  <i_epik_Tot_Q>  (173) 
0

>  <i_epik_Tot_abs_Q>  (173) 
0

>  <s_lp_Force_Field>  (173) 
OPLS3e

>  <r_lp_Energy>  (173) 
35.5086

>  <b_lp_Chiralities_Consistent>  (173) 
1

>  <s_lp_Variant>  (173) 
53:0-1

>  <s_i_glide_gridfile>  (173) 
pfpi4k_grid

>  <i_i_glide_lignum>  (173) 
35

>  <i_i_glide_rotatable_bonds>  (173) 
4

>  <r_i_docking_score>  (173) 
-4.45714

>  <r_i_glide_ligand_efficiency>  (173) 
-0.178286

>  <r_i_glide_ligand_efficiency_sa>  (173) 
-0.52131

>  <r_i_glide_ligand_efficiency_ln>  (173) 
-1.05648

>  <r_i_glide_gscore>  (173) 
-4.45714

>  <r_i_glide_lipo>  (173) 
-0.444568

>  <r_i_glide_hbond>  (173) 
-0.347129

>  <r_i_glide_metal>  (173) 
-0

>  <r_i_glide_rewards>  (173) 
-1.49705

>  <r_i_glide_evdw>  (173) 
-34.1464

>  <r_i_glide_ecoul>  (173) 
-6.22754

>  <r_i_glide_erotb>  (173) 
0.610491

>  <r_i_glide_esite>  (173) 
-0.137429

>  <r_i_glide_emodel>  (173) 
-57.3659

>  <r_i_glide_energy>  (173) 
-40.374

>  <r_i_glide_einternal>  (173) 
0.535847

>  <r_i_glide_intrahb_reward>  (173) 
-0.5

>  <i_i_glide_confnum>  (173) 
2

>  <i_i_glide_posenum>  (173) 
4

>  <r_i_glide_eff_state_penalty>  (173) 
0

>  <ligand_id>  (173) 
53

>  <original_smiles>  (173) 
Cn1cc(NC(=O)c2cnn3cccnc23)c(-c2ncccc2Cl)n1

>  <smiles>  (173) 
[H]c1nc(-c2nn(C([H])([H])[H])c([H])c2N([H])C(=O)c2c([H])nn3c([H])c([H])c([H])nc23)c(Cl)c([H])c1[H]

$$$$
53:0:1
     RDKit          3D

 37 40  0  0  1  0  0  0  0  0999 V2000
    4.5976   -8.6054    0.9733 C   0  0  0  0  0  0  0  0  0  0  0  0
    4.4854   -7.1925    1.2499 N   0  0  0  0  0  0  0  0  0  0  0  0
    3.4610   -6.5017    1.8565 C   0  0  0  0  0  0  0  0  0  0  0  0
    3.8591   -5.1899    1.8525 C   0  0  0  0  0  0  0  0  0  0  0  0
    3.1656   -4.0591    2.3664 N   0  0  0  0  0  0  0  0  0  0  0  0
    1.9624   -4.0278    2.9631 C   0  0  0  0  0  0  0  0  0  0  0  0
    1.2855   -5.0289    3.1989 O   0  0  0  0  0  0  0  0  0  0  0  0
    1.4799   -2.6854    3.3859 C   0  0  0  0  0  0  0  0  0  0  0  0
    0.5003   -2.4041    4.3568 C   0  0  0  0  0  0  0  0  0  0  0  0
    0.2259   -1.1264    4.4827 N   0  0  0  0  0  0  0  0  0  0  0  0
    1.0506   -0.5284    3.5698 N   0  0  0  0  0  0  0  0  0  0  0  0
    1.1404    0.8086    3.3336 C   0  0  0  0  0  0  0  0  0  0  0  0
    2.0288    1.2297    2.3741 C   0  0  0  0  0  0  0  0  0  0  0  0
    2.7878    0.2564    1.6806 C   0  0  0  0  0  0  0  0  0  0  0  0
    2.7130   -1.0507    1.9141 N   0  0  0  0  0  0  0  0  0  0  0  0
    1.8387   -1.4652    2.8566 C   0  0  0  0  0  0  0  0  0  0  0  0
    5.1423   -5.1452    1.2223 C   0  0  0  0  0  0  0  0  0  0  0  0
    6.0210   -3.9793    0.9464 C   0  0  0  0  0  0  0  0  0  0  0  0
    5.4013   -2.7801    1.0810 N   0  0  0  0  0  0  0  0  0  0  0  0
    6.0769   -1.6363    0.8603 C   0  0  0  0  0  0  0  0  0  0  0  0
    7.4271   -1.6211    0.4780 C   0  0  0  0  0  0  0  0  0  0  0  0
    8.0918   -2.8500    0.3371 C   0  0  0  0  0  0  0  0  0  0  0  0
    7.4031   -4.0498    0.5912 C   0  0  0  0  0  0  0  0  0  0  0  0
    8.3343   -5.5017    0.5001 Cl  0  0  0  0  0  0  0  0  0  0  0  0
    5.4932   -6.3767    0.8762 N   0  0  0  0  0  0  0  0  0  0  0  0
    3.7816   -9.1547    1.4465 H   0  0  0  0  0  0  0  0  0  0  0  0
    5.5492   -8.9828    1.3520 H   0  0  0  0  0  0  0  0  0  0  0  0
    4.5547   -8.7599   -0.1040 H   0  0  0  0  0  0  0  0  0  0  0  0
    2.5690   -6.9928    2.2257 H   0  0  0  0  0  0  0  0  0  0  0  0
    3.6297   -3.1687    2.2042 H   0  0  0  0  0  0  0  0  0  0  0  0
   -0.0241   -3.1270    4.9574 H   0  0  0  0  0  0  0  0  0  0  0  0
    0.5115    1.4692    3.9194 H   0  0  0  0  0  0  0  0  0  0  0  0
    2.1276    2.2901    2.1525 H   0  0  0  0  0  0  0  0  0  0  0  0
    3.4888    0.5777    0.9145 H   0  0  0  0  0  0  0  0  0  0  0  0
    5.5344   -0.7105    0.9815 H   0  0  0  0  0  0  0  0  0  0  0  0
    7.9523   -0.6896    0.3461 H   0  0  0  0  0  0  0  0  0  0  0  0
    9.1355   -2.8826    0.0632 H   0  0  0  0  0  0  0  0  0  0  0  0
  1  2  1  0
  1 26  1  0
  1 27  1  0
  1 28  1  0
  2 25  1  0
  2  3  1  0
  3  4  2  0
  3 29  1  0
  4  5  1  0
  4 17  1  0
  5  6  1  0
  5 30  1  0
  6  7  2  0
  6  8  1  0
  8 16  2  0
  8  9  1  0
  9 10  2  0
  9 31  1  0
 10 11  1  0
 11 16  1  0
 11 12  1  0
 12 13  2  0
 12 32  1  0
 13 14  1  0
 13 33  1  0
 14 15  2  0
 14 34  1  0
 15 16  1  0
 17 18  1  0
 17 25  2  0
 18 23  1  0
 18 19  2  0
 19 20  1  0
 20 21  2  0
 20 35  1  0
 21 22  1  0
 21 36  1  0
 22 23  2  0
 22 37  1  0
 23 24  1  0
M  END
>  <i_m_ct_stereo_status>  (174) 
1

>  <s_m_source_file>  (174) 
/var/tmp/pbs.5076255.sched01/tmp06uo9b_r/40lj_pgbub.sdf

>  <i_m_source_file_index>  (174) 
35

>  <i_lp_mmshare_version>  (174) 
48012

>  <i_f3d_flags>  (174) 
0

>  <s_epik_input>  (174) 
Q2xjMVtjSF1bY0hdW2NIXW5jMS1jKG4yKWMoW2NIXW4yW0NIM10pW05IXUMoPU8pYyhbY0hdbjMpYyhuMzQpbltjSF1bY0hdW2NIXTQ=

>  <s_epik_cmdline>  (174) 
J2VwaWtfcHl0aG9uJywgJy1waHQnLCAnMi4wJywgJy1waCcsICc3LjAnLCAnLXRuJywgJzgnLCAnLW1hJywgJzIwMCcsICctaW1hZScsICc8aW5maWxlLm1hZT4nLCAnLW9tYWUnLCAnPG91dGZpbGUubWFlPic=

>  <r_lp_tautomer_probability>  (174) 
1

>  <r_epik_Ionization_Penalty>  (174) 
8.81409e-05

>  <r_epik_Ionization_Penalty_Charging>  (174) 
0

>  <r_epik_Ionization_Penalty_Neutral>  (174) 
8.81409e-05

>  <r_epik_State_Penalty>  (174) 
-0

>  <r_epik_Charging_Adjusted_Penalty>  (174) 
0

>  <i_epik_Tot_Q>  (174) 
0

>  <i_epik_Tot_abs_Q>  (174) 
0

>  <s_lp_Force_Field>  (174) 
OPLS3e

>  <r_lp_Energy>  (174) 
35.5086

>  <b_lp_Chiralities_Consistent>  (174) 
1

>  <s_lp_Variant>  (174) 
53:0-1

>  <s_i_glide_gridfile>  (174) 
pfpi4k_grid

>  <i_i_glide_lignum>  (174) 
35

>  <i_i_glide_rotatable_bonds>  (174) 
4

>  <r_i_docking_score>  (174) 
-3.39521

>  <r_i_glide_ligand_efficiency>  (174) 
-0.135808

>  <r_i_glide_ligand_efficiency_sa>  (174) 
-0.397106

>  <r_i_glide_ligand_efficiency_ln>  (174) 
-0.804766

>  <r_i_glide_gscore>  (174) 
-3.39521

>  <r_i_glide_lipo>  (174) 
-0.845247

>  <r_i_glide_hbond>  (174) 
0

>  <r_i_glide_metal>  (174) 
-0

>  <r_i_glide_rewards>  (174) 
-1.62337

>  <r_i_glide_evdw>  (174) 
-27.8362

>  <r_i_glide_ecoul>  (174) 
-0.781607

>  <r_i_glide_erotb>  (174) 
0.610491

>  <r_i_glide_esite>  (174) 
-0.0280239

>  <r_i_glide_emodel>  (174) 
-42.805

>  <r_i_glide_energy>  (174) 
-28.6179

>  <r_i_glide_einternal>  (174) 
0.108086

>  <r_i_glide_intrahb_reward>  (174) 
-0.5

>  <i_i_glide_confnum>  (174) 
1

>  <i_i_glide_posenum>  (174) 
9

>  <r_i_glide_eff_state_penalty>  (174) 
0

>  <ligand_id>  (174) 
53

>  <original_smiles>  (174) 
Cn1cc(NC(=O)c2cnn3cccnc23)c(-c2ncccc2Cl)n1

>  <smiles>  (174) 
[H]c1nc(-c2nn(C([H])([H])[H])c([H])c2N([H])C(=O)c2c([H])nn3c([H])c([H])c([H])nc23)c(Cl)c([H])c1[H]

$$$$
53:0:2
     RDKit          3D

 37 40  0  0  1  0  0  0  0  0999 V2000
    0.7816  -10.8688    2.9819 C   0  0  0  0  0  0  0  0  0  0  0  0
    1.0327   -9.4473    3.0423 N   0  0  0  0  0  0  0  0  0  0  0  0
    0.5338   -8.5153    3.9248 C   0  0  0  0  0  0  0  0  0  0  0  0
    1.0730   -7.3170    3.5347 C   0  0  0  0  0  0  0  0  0  0  0  0
    0.8738   -6.0263    4.1059 N   0  0  0  0  0  0  0  0  0  0  0  0
    0.2580   -5.7265    5.2625 C   0  0  0  0  0  0  0  0  0  0  0  0
   -0.1827   -6.5755    6.0338 O   0  0  0  0  0  0  0  0  0  0  0  0
    0.1057   -4.2813    5.5859 C   0  0  0  0  0  0  0  0  0  0  0  0
   -0.5731   -3.7232    6.6881 C   0  0  0  0  0  0  0  0  0  0  0  0
   -0.5822   -2.4100    6.6978 N   0  0  0  0  0  0  0  0  0  0  0  0
    0.1124   -2.0756    5.5660 N   0  0  0  0  0  0  0  0  0  0  0  0
    0.3726   -0.8115    5.1378 C   0  0  0  0  0  0  0  0  0  0  0  0
    1.0853   -0.6681    3.9723 C   0  0  0  0  0  0  0  0  0  0  0  0
    1.4997   -1.8323    3.2818 C   0  0  0  0  0  0  0  0  0  0  0  0
    1.2522   -3.0717    3.6973 N   0  0  0  0  0  0  0  0  0  0  0  0
    0.5595   -3.2119    4.8479 C   0  0  0  0  0  0  0  0  0  0  0  0
    1.8894   -7.5901    2.3966 C   0  0  0  0  0  0  0  0  0  0  0  0
    2.6897   -6.6519    1.5810 C   0  0  0  0  0  0  0  0  0  0  0  0
    2.1811   -5.3973    1.5152 N   0  0  0  0  0  0  0  0  0  0  0  0
    2.8369   -4.4487    0.8145 C   0  0  0  0  0  0  0  0  0  0  0  0
    4.0336   -4.6990    0.1261 C   0  0  0  0  0  0  0  0  0  0  0  0
    4.5809   -5.9912    0.2000 C   0  0  0  0  0  0  0  0  0  0  0  0
    3.9167   -6.9861    0.9419 C   0  0  0  0  0  0  0  0  0  0  0  0
    4.6538   -8.5448    1.0316 Cl  0  0  0  0  0  0  0  0  0  0  0  0
    1.8498   -8.8881    2.1232 N   0  0  0  0  0  0  0  0  0  0  0  0
    0.2143  -11.1860    3.8577 H   0  0  0  0  0  0  0  0  0  0  0  0
    1.7273  -11.4122    2.9539 H   0  0  0  0  0  0  0  0  0  0  0  0
    0.2110  -11.0986    2.0808 H   0  0  0  0  0  0  0  0  0  0  0  0
   -0.1471   -8.7810    4.7224 H   0  0  0  0  0  0  0  0  0  0  0  0
    1.2612   -5.2500    3.5772 H   0  0  0  0  0  0  0  0  0  0  0  0
   -1.0769   -4.2681    7.4694 H   0  0  0  0  0  0  0  0  0  0  0  0
    0.0165    0.0134    5.7446 H   0  0  0  0  0  0  0  0  0  0  0  0
    1.3239    0.3229    3.5985 H   0  0  0  0  0  0  0  0  0  0  0  0
    2.0591   -1.7276    2.3571 H   0  0  0  0  0  0  0  0  0  0  0  0
    2.3820   -3.4698    0.7880 H   0  0  0  0  0  0  0  0  0  0  0  0
    4.5076   -3.9239   -0.4575 H   0  0  0  0  0  0  0  0  0  0  0  0
    5.4978   -6.2295   -0.3176 H   0  0  0  0  0  0  0  0  0  0  0  0
  1  2  1  0
  1 26  1  0
  1 27  1  0
  1 28  1  0
  2 25  1  0
  2  3  1  0
  3  4  2  0
  3 29  1  0
  4  5  1  0
  4 17  1  0
  5  6  1  0
  5 30  1  0
  6  7  2  0
  6  8  1  0
  8 16  2  0
  8  9  1  0
  9 10  2  0
  9 31  1  0
 10 11  1  0
 11 16  1  0
 11 12  1  0
 12 13  2  0
 12 32  1  0
 13 14  1  0
 13 33  1  0
 14 15  2  0
 14 34  1  0
 15 16  1  0
 17 18  1  0
 17 25  2  0
 18 23  1  0
 18 19  2  0
 19 20  1  0
 20 21  2  0
 20 35  1  0
 21 22  1  0
 21 36  1  0
 22 23  2  0
 22 37  1  0
 23 24  1  0
M  END
>  <i_m_ct_stereo_status>  (175) 
1

>  <s_m_source_file>  (175) 
/var/tmp/pbs.5076255.sched01/tmp06uo9b_r/40lj_pgbub.sdf

>  <i_m_source_file_index>  (175) 
35

>  <i_lp_mmshare_version>  (175) 
48012

>  <i_f3d_flags>  (175) 
0

>  <s_epik_input>  (175) 
Q2xjMVtjSF1bY0hdW2NIXW5jMS1jKG4yKWMoW2NIXW4yW0NIM10pW05IXUMoPU8pYyhbY0hdbjMpYyhuMzQpbltjSF1bY0hdW2NIXTQ=

>  <s_epik_cmdline>  (175) 
J2VwaWtfcHl0aG9uJywgJy1waHQnLCAnMi4wJywgJy1waCcsICc3LjAnLCAnLXRuJywgJzgnLCAnLW1hJywgJzIwMCcsICctaW1hZScsICc8aW5maWxlLm1hZT4nLCAnLW9tYWUnLCAnPG91dGZpbGUubWFlPic=

>  <r_lp_tautomer_probability>  (175) 
1

>  <r_epik_Ionization_Penalty>  (175) 
8.81409e-05

>  <r_epik_Ionization_Penalty_Charging>  (175) 
0

>  <r_epik_Ionization_Penalty_Neutral>  (175) 
8.81409e-05

>  <r_epik_State_Penalty>  (175) 
-0

>  <r_epik_Charging_Adjusted_Penalty>  (175) 
0

>  <i_epik_Tot_Q>  (175) 
0

>  <i_epik_Tot_abs_Q>  (175) 
0

>  <s_lp_Force_Field>  (175) 
OPLS3e

>  <r_lp_Energy>  (175) 
35.5086

>  <b_lp_Chiralities_Consistent>  (175) 
1

>  <s_lp_Variant>  (175) 
53:0-1

>  <s_i_glide_gridfile>  (175) 
pfpi4k_grid

>  <i_i_glide_lignum>  (175) 
35

>  <i_i_glide_rotatable_bonds>  (175) 
4

>  <r_i_docking_score>  (175) 
-3.07643

>  <r_i_glide_ligand_efficiency>  (175) 
-0.123057

>  <r_i_glide_ligand_efficiency_sa>  (175) 
-0.359822

>  <r_i_glide_ligand_efficiency_ln>  (175) 
-0.729207

>  <r_i_glide_gscore>  (175) 
-3.07643

>  <r_i_glide_lipo>  (175) 
-0.303552

>  <r_i_glide_hbond>  (175) 
0

>  <r_i_glide_metal>  (175) 
-0

>  <r_i_glide_rewards>  (175) 
-1.51557

>  <r_i_glide_evdw>  (175) 
-27.2512

>  <r_i_glide_ecoul>  (175) 
-3.10215

>  <r_i_glide_erotb>  (175) 
0.610491

>  <r_i_glide_esite>  (175) 
-0.0399178

>  <r_i_glide_emodel>  (175) 
-43.5131

>  <r_i_glide_energy>  (175) 
-30.3534

>  <r_i_glide_einternal>  (175) 
0.627088

>  <r_i_glide_intrahb_reward>  (175) 
-0.5

>  <i_i_glide_confnum>  (175) 
1

>  <i_i_glide_posenum>  (175) 
17

>  <r_i_glide_eff_state_penalty>  (175) 
0

>  <ligand_id>  (175) 
53

>  <original_smiles>  (175) 
Cn1cc(NC(=O)c2cnn3cccnc23)c(-c2ncccc2Cl)n1

>  <smiles>  (175) 
[H]c1nc(-c2nn(C([H])([H])[H])c([H])c2N([H])C(=O)c2c([H])nn3c([H])c([H])c([H])nc23)c(Cl)c([H])c1[H]

$$$$
54:0:0
     RDKit          3D

 25 28  0  0  1  0  0  0  0  0999 V2000
    5.9560   -4.1769   -0.3146 C   0  0  0  0  0  0  0  0  0  0  0  0
    6.8528   -4.6500    0.5136 N   0  0  0  0  0  0  0  0  0  0  0  0
    8.1092   -3.5538    0.4793 S   0  0  0  0  0  0  0  0  0  0  0  0
    7.4384   -2.4346   -0.5665 N   0  0  0  0  0  0  0  0  0  0  0  0
    6.2661   -2.9127   -0.9250 C   0  0  0  0  0  0  0  0  0  0  0  0
    5.4399   -2.1029   -1.9061 C   0  0  2  0  0  0  0  0  0  0  0  0
    4.1755   -1.4056   -1.3784 C   0  0  1  0  0  0  0  0  0  0  0  0
    3.6583   -0.6909   -2.6597 C   0  0  0  0  0  0  0  0  0  0  0  0
    3.7762   -1.8392   -3.6624 C   0  0  2  0  0  0  0  0  0  0  0  0
    2.7518   -2.9635   -3.5599 C   0  0  0  0  0  0  0  0  0  0  0  0
    3.5101   -3.4220   -2.4159 N   0  0  2  0  0  0  0  0  0  0  0  0
    3.2611   -2.6456   -1.1841 C   0  0  0  0  0  0  0  0  0  0  0  0
    4.7222   -2.8577   -3.0126 C   0  0  2  0  0  0  0  0  0  0  0  0
    5.0674   -4.7698   -0.4662 H   0  0  0  0  0  0  0  0  0  0  0  0
    6.0674   -1.3195   -2.3235 H   0  0  0  0  0  0  0  0  0  0  0  0
    4.3116   -0.7535   -0.5029 H   0  0  0  0  0  0  0  0  0  0  0  0
    2.6276   -0.3445   -2.5653 H   0  0  0  0  0  0  0  0  0  0  0  0
    4.2796    0.1642   -2.9369 H   0  0  0  0  0  0  0  0  0  0  0  0
    4.0159   -1.5710   -4.6886 H   0  0  0  0  0  0  0  0  0  0  0  0
    1.7436   -2.6186   -3.3338 H   0  0  0  0  0  0  0  0  0  0  0  0
    2.7723   -3.6458   -4.4024 H   0  0  0  0  0  0  0  0  0  0  0  0
    3.5141   -3.1583   -0.2660 H   0  0  0  0  0  0  0  0  0  0  0  0
    2.2139   -2.3929   -1.0659 H   0  0  0  0  0  0  0  0  0  0  0  0
    5.2778   -3.4733   -3.7148 H   0  0  0  0  0  0  0  0  0  0  0  0
    3.4822   -4.4364   -2.3343 H   0  0  0  0  0  0  0  0  0  0  0  0
  1  5  1  0
  1  2  2  0
  1 14  1  0
  2  3  1  0
  3  4  1  0
  4  5  2  0
  5  6  1  0
  6 13  1  0
  6  7  1  0
  6 15  1  6
  7 12  1  0
  7  8  1  0
  7 16  1  1
  8  9  1  0
  8 17  1  0
  8 18  1  0
  9 13  1  0
  9 10  1  0
  9 19  1  6
 10 11  1  0
 10 20  1  0
 10 21  1  0
 11 12  1  0
 11 13  1  0
 11 25  1  1
 12 22  1  0
 12 23  1  0
 13 24  1  6
M  CHG  1  11   1
M  END
>  <i_m_ct_stereo_status>  (176) 
1

>  <s_m_source_file>  (176) 
/var/tmp/pbs.5076255.sched01/tmp06uo9b_r/40lj_pgbub.sdf

>  <i_m_source_file_index>  (176) 
36

>  <i_lp_mmshare_version>  (176) 
48012

>  <i_f3d_flags>  (176) 
0

>  <s_epik_input>  (176) 
bjFzbltjSF1jMVtDQEhdKFtDQEBIXTIzKVtDQEBIXTRbQ0BIXShbQ0gyXTIpW0NIMl1ONFtDSDJdMw==

>  <s_epik_cmdline>  (176) 
J2VwaWtfcHl0aG9uJywgJy1waHQnLCAnMi4wJywgJy1waCcsICc3LjAnLCAnLXRuJywgJzgnLCAnLW1hJywgJzIwMCcsICctaW1hZScsICc8aW5maWxlLm1hZT4nLCAnLW9tYWUnLCAnPG91dGZpbGUubWFlPic=

>  <r_lp_tautomer_probability>  (176) 
1

>  <r_epik_Ionization_Penalty>  (176) 
0.000324384

>  <r_epik_Ionization_Penalty_Charging>  (176) 
0.000324384

>  <r_epik_Ionization_Penalty_Neutral>  (176) 
2.21281e-13

>  <r_epik_State_Penalty>  (176) 
0.00019603

>  <r_epik_Charging_Adjusted_Penalty>  (176) 
0.000520414

>  <i_epik_Tot_Q>  (176) 
1

>  <i_epik_Tot_abs_Q>  (176) 
1

>  <s_lp_Force_Field>  (176) 
OPLS3e

>  <r_lp_Energy>  (176) 
44.918

>  <b_lp_Chiralities_Consistent>  (176) 
1

>  <s_lp_Variant>  (176) 
54:0-1

>  <s_i_glide_gridfile>  (176) 
pfpi4k_grid

>  <i_i_glide_lignum>  (176) 
36

>  <i_i_glide_rotatable_bonds>  (176) 
1

>  <r_i_docking_score>  (176) 
-4.86752

>  <r_i_glide_ligand_efficiency>  (176) 
-0.374424

>  <r_i_glide_ligand_efficiency_sa>  (176) 
-0.880397

>  <r_i_glide_ligand_efficiency_ln>  (176) 
-1.36538

>  <r_i_glide_gscore>  (176) 
-4.86752

>  <r_i_glide_lipo>  (176) 
-0.847722

>  <r_i_glide_hbond>  (176) 
-0.109947

>  <r_i_glide_metal>  (176) 
-0

>  <r_i_glide_rewards>  (176) 
-2.08447

>  <r_i_glide_evdw>  (176) 
-21.98

>  <r_i_glide_ecoul>  (176) 
-7.49779

>  <r_i_glide_erotb>  (176) 
0.428535

>  <r_i_glide_esite>  (176) 
-0.0302447

>  <r_i_glide_emodel>  (176) 
-37.6259

>  <r_i_glide_energy>  (176) 
-29.4778

>  <r_i_glide_einternal>  (176) 
2.52147

>  <r_i_glide_intrahb_reward>  (176) 
-0

>  <i_i_glide_confnum>  (176) 
1

>  <i_i_glide_posenum>  (176) 
8

>  <r_i_glide_eff_state_penalty>  (176) 
0

>  <ligand_id>  (176) 
54

>  <original_smiles>  (176) 
c1nsnc1C1C2CC3CN(C2)C31

>  <smiles>  (176) 
[H]c1nsnc1C1([H])C2([H])C([H])([H])C3([H])C([H])([H])[N+]([H])(C2([H])[H])C13[H]

$$$$
54:0:1
     RDKit          3D

 25 28  0  0  1  0  0  0  0  0999 V2000
    2.7707   -2.6803    1.2744 C   0  0  0  0  0  0  0  0  0  0  0  0
    2.6953   -2.6275    2.5830 N   0  0  0  0  0  0  0  0  0  0  0  0
    4.1064   -3.3230    3.1386 S   0  0  0  0  0  0  0  0  0  0  0  0
    4.8073   -3.6779    1.6643 N   0  0  0  0  0  0  0  0  0  0  0  0
    3.9580   -3.2811    0.7395 C   0  0  0  0  0  0  0  0  0  0  0  0
    4.3085   -3.5034   -0.7122 C   0  0  2  0  0  0  0  0  0  0  0  0
    5.2428   -2.4565   -1.3362 C   0  0  1  0  0  0  0  0  0  0  0  0
    5.3777   -2.9933   -2.7821 C   0  0  0  0  0  0  0  0  0  0  0  0
    3.9063   -3.2658   -3.1054 C   0  0  2  0  0  0  0  0  0  0  0  0
    3.0129   -2.0573   -3.3701 C   0  0  0  0  0  0  0  0  0  0  0  0
    3.0168   -1.8456   -1.9170 N   0  0  2  0  0  0  0  0  0  0  0  0
    4.2801   -1.2345   -1.4000 C   0  0  0  0  0  0  0  0  0  0  0  0
    3.2050   -3.2980   -1.7425 C   0  0  2  0  0  0  0  0  0  0  0  0
    1.9477   -2.2733    0.7051 H   0  0  0  0  0  0  0  0  0  0  0  0
    4.7456   -4.5012   -0.8198 H   0  0  0  0  0  0  0  0  0  0  0  0
    6.1899   -2.2856   -0.8196 H   0  0  0  0  0  0  0  0  0  0  0  0
    5.8134   -2.2719   -3.4652 H   0  0  0  0  0  0  0  0  0  0  0  0
    5.9808   -3.9000   -2.8222 H   0  0  0  0  0  0  0  0  0  0  0  0
    3.7115   -4.1222   -3.7504 H   0  0  0  0  0  0  0  0  0  0  0  0
    3.4963   -1.2645   -3.9436 H   0  0  0  0  0  0  0  0  0  0  0  0
    2.0253   -2.3110   -3.7651 H   0  0  0  0  0  0  0  0  0  0  0  0
    4.1016   -0.8162   -0.4071 H   0  0  0  0  0  0  0  0  0  0  0  0
    4.6424   -0.4276   -2.0428 H   0  0  0  0  0  0  0  0  0  0  0  0
    2.2908   -3.8925   -1.6811 H   0  0  0  0  0  0  0  0  0  0  0  0
    2.1383   -1.4681   -1.5386 H   0  0  0  0  0  0  0  0  0  0  0  0
  1  5  1  0
  1  2  2  0
  1 14  1  0
  2  3  1  0
  3  4  1  0
  4  5  2  0
  5  6  1  0
  6 13  1  0
  6  7  1  0
  6 15  1  1
  7 12  1  0
  7  8  1  0
  7 16  1  1
  8  9  1  0
  8 17  1  0
  8 18  1  0
  9 13  1  0
  9 10  1  0
  9 19  1  6
 10 11  1  0
 10 20  1  0
 10 21  1  0
 11 12  1  0
 11 13  1  0
 11 25  1  1
 12 22  1  0
 12 23  1  0
 13 24  1  6
M  CHG  1  11   1
M  END
>  <i_m_ct_stereo_status>  (177) 
1

>  <s_m_source_file>  (177) 
/var/tmp/pbs.5076255.sched01/tmp06uo9b_r/40lj_pgbub.sdf

>  <i_m_source_file_index>  (177) 
36

>  <i_lp_mmshare_version>  (177) 
48012

>  <i_f3d_flags>  (177) 
0

>  <s_epik_input>  (177) 
bjFzbltjSF1jMVtDQEhdKFtDQEBIXTIzKVtDQEBIXTRbQ0BIXShbQ0gyXTIpW0NIMl1ONFtDSDJdMw==

>  <s_epik_cmdline>  (177) 
J2VwaWtfcHl0aG9uJywgJy1waHQnLCAnMi4wJywgJy1waCcsICc3LjAnLCAnLXRuJywgJzgnLCAnLW1hJywgJzIwMCcsICctaW1hZScsICc8aW5maWxlLm1hZT4nLCAnLW9tYWUnLCAnPG91dGZpbGUubWFlPic=

>  <r_lp_tautomer_probability>  (177) 
1

>  <r_epik_Ionization_Penalty>  (177) 
0.000324384

>  <r_epik_Ionization_Penalty_Charging>  (177) 
0.000324384

>  <r_epik_Ionization_Penalty_Neutral>  (177) 
2.21281e-13

>  <r_epik_State_Penalty>  (177) 
0.00019603

>  <r_epik_Charging_Adjusted_Penalty>  (177) 
0.000520414

>  <i_epik_Tot_Q>  (177) 
1

>  <i_epik_Tot_abs_Q>  (177) 
1

>  <s_lp_Force_Field>  (177) 
OPLS3e

>  <r_lp_Energy>  (177) 
44.918

>  <b_lp_Chiralities_Consistent>  (177) 
1

>  <s_lp_Variant>  (177) 
54:0-1

>  <s_i_glide_gridfile>  (177) 
pfpi4k_grid

>  <i_i_glide_lignum>  (177) 
36

>  <i_i_glide_rotatable_bonds>  (177) 
1

>  <r_i_docking_score>  (177) 
-4.21592

>  <r_i_glide_ligand_efficiency>  (177) 
-0.324301

>  <r_i_glide_ligand_efficiency_sa>  (177) 
-0.762541

>  <r_i_glide_ligand_efficiency_ln>  (177) 
-1.1826

>  <r_i_glide_gscore>  (177) 
-4.21592

>  <r_i_glide_lipo>  (177) 
-0.469119

>  <r_i_glide_hbond>  (177) 
-0.2

>  <r_i_glide_metal>  (177) 
-0

>  <r_i_glide_rewards>  (177) 
-2.08447

>  <r_i_glide_evdw>  (177) 
-16.6907

>  <r_i_glide_ecoul>  (177) 
-6.47664

>  <r_i_glide_erotb>  (177) 
0.428535

>  <r_i_glide_esite>  (177) 
-0.0848333

>  <r_i_glide_emodel>  (177) 
-31.3934

>  <r_i_glide_energy>  (177) 
-23.1673

>  <r_i_glide_einternal>  (177) 
0.264546

>  <r_i_glide_intrahb_reward>  (177) 
-0

>  <i_i_glide_confnum>  (177) 
6

>  <i_i_glide_posenum>  (177) 
27

>  <r_i_glide_eff_state_penalty>  (177) 
0

>  <ligand_id>  (177) 
54

>  <original_smiles>  (177) 
c1nsnc1C1C2CC3CN(C2)C31

>  <smiles>  (177) 
[H]c1nsnc1C1([H])C2([H])C([H])([H])C3([H])C([H])([H])[N+]([H])(C2([H])[H])C13[H]

$$$$
54:0:2
     RDKit          3D

 25 28  0  0  1  0  0  0  0  0999 V2000
    4.2707   -2.8074    1.6135 C   0  0  0  0  0  0  0  0  0  0  0  0
    3.7328   -2.9557    2.7976 N   0  0  0  0  0  0  0  0  0  0  0  0
    2.6179   -4.1834    2.6273 S   0  0  0  0  0  0  0  0  0  0  0  0
    2.8231   -4.4885    0.9967 N   0  0  0  0  0  0  0  0  0  0  0  0
    3.7435   -3.6521    0.5747 C   0  0  0  0  0  0  0  0  0  0  0  0
    4.1810   -3.7127   -0.8695 C   0  0  2  0  0  0  0  0  0  0  0  0
    5.1909   -2.6650   -1.3589 C   0  0  1  0  0  0  0  0  0  0  0  0
    5.3241   -3.0447   -2.8549 C   0  0  0  0  0  0  0  0  0  0  0  0
    3.8489   -3.1751   -3.2264 C   0  0  2  0  0  0  0  0  0  0  0  0
    3.0220   -1.9060   -3.3654 C   0  0  0  0  0  0  0  0  0  0  0  0
    3.0145   -1.8680   -1.9088 N   0  0  2  0  0  0  0  0  0  0  0  0
    4.2914   -1.3895   -1.3250 C   0  0  0  0  0  0  0  0  0  0  0  0
    3.1194   -3.3259   -1.8945 C   0  0  2  0  0  0  0  0  0  0  0  0
    5.0509   -2.0687    1.5093 H   0  0  0  0  0  0  0  0  0  0  0  0
    4.5689   -4.7133   -1.0826 H   0  0  0  0  0  0  0  0  0  0  0  0
    6.1381   -2.6058   -0.8203 H   0  0  0  0  0  0  0  0  0  0  0  0
    5.8099   -2.2863   -3.4494 H   0  0  0  0  0  0  0  0  0  0  0  0
    5.8563   -3.9860   -2.9972 H   0  0  0  0  0  0  0  0  0  0  0  0
    3.5903   -3.9360   -3.9554 H   0  0  0  0  0  0  0  0  0  0  0  0
    3.5680   -1.0935   -3.8458 H   0  0  0  0  0  0  0  0  0  0  0  0
    2.0457   -2.0772   -3.8141 H   0  0  0  0  0  0  0  0  0  0  0  0
    4.1082   -1.0397   -0.3146 H   0  0  0  0  0  0  0  0  0  0  0  0
    4.7309   -0.5451   -1.8681 H   0  0  0  0  0  0  0  0  0  0  0  0
    2.1793   -3.8661   -1.9330 H   0  0  0  0  0  0  0  0  0  0  0  0
    2.1402   -1.4894   -1.5082 H   0  0  0  0  0  0  0  0  0  0  0  0
  1  5  1  0
  1  2  2  0
  1 14  1  0
  2  3  1  0
  3  4  1  0
  4  5  2  0
  5  6  1  0
  6 13  1  0
  6  7  1  0
  6 15  1  6
  7 12  1  0
  7  8  1  0
  7 16  1  1
  8  9  1  0
  8 17  1  0
  8 18  1  0
  9 13  1  0
  9 10  1  0
  9 19  1  6
 10 11  1  0
 10 20  1  0
 10 21  1  0
 11 12  1  0
 11 13  1  0
 11 25  1  6
 12 22  1  0
 12 23  1  0
 13 24  1  6
M  CHG  1  11   1
M  END
>  <i_m_ct_stereo_status>  (178) 
1

>  <s_m_source_file>  (178) 
/var/tmp/pbs.5076255.sched01/tmp06uo9b_r/40lj_pgbub.sdf

>  <i_m_source_file_index>  (178) 
36

>  <i_lp_mmshare_version>  (178) 
48012

>  <i_f3d_flags>  (178) 
0

>  <s_epik_input>  (178) 
bjFzbltjSF1jMVtDQEhdKFtDQEBIXTIzKVtDQEBIXTRbQ0BIXShbQ0gyXTIpW0NIMl1ONFtDSDJdMw==

>  <s_epik_cmdline>  (178) 
J2VwaWtfcHl0aG9uJywgJy1waHQnLCAnMi4wJywgJy1waCcsICc3LjAnLCAnLXRuJywgJzgnLCAnLW1hJywgJzIwMCcsICctaW1hZScsICc8aW5maWxlLm1hZT4nLCAnLW9tYWUnLCAnPG91dGZpbGUubWFlPic=

>  <r_lp_tautomer_probability>  (178) 
1

>  <r_epik_Ionization_Penalty>  (178) 
0.000324384

>  <r_epik_Ionization_Penalty_Charging>  (178) 
0.000324384

>  <r_epik_Ionization_Penalty_Neutral>  (178) 
2.21281e-13

>  <r_epik_State_Penalty>  (178) 
0.00019603

>  <r_epik_Charging_Adjusted_Penalty>  (178) 
0.000520414

>  <i_epik_Tot_Q>  (178) 
1

>  <i_epik_Tot_abs_Q>  (178) 
1

>  <s_lp_Force_Field>  (178) 
OPLS3e

>  <r_lp_Energy>  (178) 
44.918

>  <b_lp_Chiralities_Consistent>  (178) 
1

>  <s_lp_Variant>  (178) 
54:0-1

>  <s_i_glide_gridfile>  (178) 
pfpi4k_grid

>  <i_i_glide_lignum>  (178) 
36

>  <i_i_glide_rotatable_bonds>  (178) 
1

>  <r_i_docking_score>  (178) 
-4.21253

>  <r_i_glide_ligand_efficiency>  (178) 
-0.324041

>  <r_i_glide_ligand_efficiency_sa>  (178) 
-0.761928

>  <r_i_glide_ligand_efficiency_ln>  (178) 
-1.18165

>  <r_i_glide_gscore>  (178) 
-4.21253

>  <r_i_glide_lipo>  (178) 
-0.47378

>  <r_i_glide_hbond>  (178) 
-0.2

>  <r_i_glide_metal>  (178) 
-0

>  <r_i_glide_rewards>  (178) 
-2.08447

>  <r_i_glide_evdw>  (178) 
-17.0638

>  <r_i_glide_ecoul>  (178) 
-6.30314

>  <r_i_glide_erotb>  (178) 
0.428535

>  <r_i_glide_esite>  (178) 
-0.0841501

>  <r_i_glide_emodel>  (178) 
-31.3402

>  <r_i_glide_energy>  (178) 
-23.367

>  <r_i_glide_einternal>  (178) 
0.761284

>  <r_i_glide_intrahb_reward>  (178) 
-0

>  <i_i_glide_confnum>  (178) 
6

>  <i_i_glide_posenum>  (178) 
6

>  <r_i_glide_eff_state_penalty>  (178) 
0

>  <ligand_id>  (178) 
54

>  <original_smiles>  (178) 
c1nsnc1C1C2CC3CN(C2)C31

>  <smiles>  (178) 
[H]c1nsnc1C1([H])C2([H])C([H])([H])C3([H])C([H])([H])[N+]([H])(C2([H])[H])C13[H]

$$$$
55:0:0
     RDKit          3D

 45 47  0  0  1  0  0  0  0  0999 V2000
    1.4151   -6.6042    2.3986 C   0  0  0  0  0  0  0  0  0  0  0  0
    2.2611   -5.3794    2.2714 C   0  0  0  0  0  0  0  0  0  0  0  0
    2.7961   -4.9276    3.2582 O   0  0  0  0  0  0  0  0  0  0  0  0
    2.3638   -4.8456    1.0008 O   0  0  0  0  0  0  0  0  0  0  0  0
    3.2243   -3.7607    0.6321 C   0  0  1  0  0  0  0  0  0  0  0  0
    2.9395   -2.4337    1.4558 C   0  0  0  0  0  0  0  0  0  0  0  0
    4.0142   -1.9765    2.4783 C   0  0  1  0  0  0  0  0  0  0  0  0
    3.6666   -2.2002    3.9983 C   0  0  0  0  0  0  0  0  0  0  0  0
    5.4414   -2.4716    2.0954 C   0  0  1  0  0  0  0  0  0  0  0  0
    5.4473   -3.9954    1.9399 C   0  0  0  0  0  0  0  0  0  0  0  0
    4.7409   -4.1581    0.5819 C   0  0  1  0  0  0  0  0  0  0  0  0
    4.9921   -5.5750    0.0184 C   0  0  0  0  0  0  0  0  0  0  0  0
    5.3816   -3.0837   -0.3241 C   0  0  1  0  0  0  0  0  0  0  0  0
    4.2861   -2.6551   -1.3341 C   0  0  1  0  0  0  0  0  0  0  0  0
    4.6528   -2.9598   -2.7973 C   0  0  0  0  0  0  0  0  0  0  0  0
    3.0044   -3.3777   -0.8634 C   0  0  0  0  0  0  0  0  0  0  0  0
    5.9241   -2.0145    0.6891 C   0  0  1  0  0  0  0  0  0  0  0  0
    5.6936   -0.5336    0.3768 C   0  0  0  0  0  0  0  0  0  0  0  0
    7.3461   -2.1342    0.6407 O   0  0  0  0  0  0  0  0  0  0  0  0
    0.3874   -6.4353    1.9943 H   0  0  0  0  0  0  0  0  0  0  0  0
    1.3403   -6.8061    3.4506 H   0  0  0  0  0  0  0  0  0  0  0  0
    1.9030   -7.4765    1.9122 H   0  0  0  0  0  0  0  0  0  0  0  0
    2.8073   -1.5969    0.7601 H   0  0  0  0  0  0  0  0  0  0  0  0
    1.9674   -2.5210    1.9254 H   0  0  0  0  0  0  0  0  0  0  0  0
    4.0251   -0.8991    2.4054 H   0  0  0  0  0  0  0  0  0  0  0  0
    3.6503   -3.2017    4.3356 H   0  0  0  0  0  0  0  0  0  0  0  0
    2.6901   -1.7248    4.2212 H   0  0  0  0  0  0  0  0  0  0  0  0
    4.4031   -1.6814    4.6295 H   0  0  0  0  0  0  0  0  0  0  0  0
    6.1410   -2.1596    2.8710 H   0  0  0  0  0  0  0  0  0  0  0  0
    6.4800   -4.3648    1.8714 H   0  0  0  0  0  0  0  0  0  0  0  0
    4.9881   -4.5019    2.7625 H   0  0  0  0  0  0  0  0  0  0  0  0
    6.0592   -5.7856   -0.0608 H   0  0  0  0  0  0  0  0  0  0  0  0
    4.5866   -5.7034   -0.9858 H   0  0  0  0  0  0  0  0  0  0  0  0
    4.5590   -6.3436    0.6549 H   0  0  0  0  0  0  0  0  0  0  0  0
    6.2223   -3.5000   -0.8847 H   0  0  0  0  0  0  0  0  0  0  0  0
    4.0906   -1.5852   -1.2829 H   0  0  0  0  0  0  0  0  0  0  0  0
    4.8419   -4.0211   -2.9497 H   0  0  0  0  0  0  0  0  0  0  0  0
    5.5519   -2.4227   -3.0858 H   0  0  0  0  0  0  0  0  0  0  0  0
    3.8606   -2.6580   -3.4791 H   0  0  0  0  0  0  0  0  0  0  0  0
    2.8399   -4.2693   -1.4617 H   0  0  0  0  0  0  0  0  0  0  0  0
    2.1247   -2.7545   -1.0190 H   0  0  0  0  0  0  0  0  0  0  0  0
    4.6433   -0.2442    0.3575 H   0  0  0  0  0  0  0  0  0  0  0  0
    6.1162   -0.2766   -0.5943 H   0  0  0  0  0  0  0  0  0  0  0  0
    6.1866    0.0951    1.1195 H   0  0  0  0  0  0  0  0  0  0  0  0
    7.5707   -2.9855    0.9339 H   0  0  0  0  0  0  0  0  0  0  0  0
  1  2  1  0
  1 20  1  0
  1 21  1  0
  1 22  1  0
  2  3  2  0
  2  4  1  0
  5  4  1  1
  5 11  1  0
  5 16  1  0
  5  6  1  0
  6  7  1  0
  6 23  1  0
  6 24  1  0
  7  8  1  0
  7  9  1  0
  7 25  1  1
  8 26  1  0
  8 27  1  0
  8 28  1  0
  9 17  1  0
  9 10  1  0
  9 29  1  1
 10 11  1  0
 10 30  1  0
 10 31  1  0
 11 12  1  6
 11 13  1  0
 12 32  1  0
 12 33  1  0
 12 34  1  0
 13 14  1  0
 13 17  1  0
 13 35  1  6
 14 15  1  0
 14 16  1  0
 14 36  1  6
 15 37  1  0
 15 38  1  0
 15 39  1  0
 16 40  1  0
 16 41  1  0
 17 18  1  0
 17 19  1  1
 18 42  1  0
 18 43  1  0
 18 44  1  0
 19 45  1  0
M  END
>  <i_m_ct_stereo_status>  (179) 
1

>  <s_m_source_file>  (179) 
/var/tmp/pbs.5076255.sched01/tmp06uo9b_r/40lj_pgbub.sdf

>  <i_m_source_file_index>  (179) 
37

>  <i_lp_mmshare_version>  (179) 
48012

>  <i_f3d_flags>  (179) 
0

>  <s_epik_input>  (179) 
W0NIM11DKD1PKU9bQ0BdMTJbQ0BAXTMoW0NIM10pW0NAQEhdKFtDQEBIXShbQ0gzXSlbQ0gyXTIpW0NAXShbQ0gzXSkoW09IXSlbQ0BIXShbQ0gyXTMpW0NAQEhdKFtDSDJdMSlbQ0gzXQ==

>  <s_epik_cmdline>  (179) 
J2VwaWtfcHl0aG9uJywgJy1waHQnLCAnMi4wJywgJy1waCcsICc3LjAnLCAnLXRuJywgJzgnLCAnLW1hJywgJzIwMCcsICctaW1hZScsICc8aW5maWxlLm1hZT4nLCAnLW9tYWUnLCAnPG91dGZpbGUubWFlPic=

>  <r_lp_tautomer_probability>  (179) 
1

>  <r_epik_Ionization_Penalty>  (179) 
1.12367e-06

>  <r_epik_Ionization_Penalty_Charging>  (179) 
0

>  <r_epik_Ionization_Penalty_Neutral>  (179) 
1.12367e-06

>  <r_epik_State_Penalty>  (179) 
-0

>  <r_epik_Charging_Adjusted_Penalty>  (179) 
0

>  <i_epik_Tot_Q>  (179) 
0

>  <i_epik_Tot_abs_Q>  (179) 
0

>  <s_epik_Chemistry_Notes>  (179) 
This compound has an ester and may undergo hydrolysis at high or low pH.

>  <s_lp_Force_Field>  (179) 
OPLS3e

>  <r_lp_Energy>  (179) 
31.7112

>  <b_lp_Chiralities_Consistent>  (179) 
1

>  <s_lp_Variant>  (179) 
55:0-1

>  <s_i_glide_gridfile>  (179) 
pfpi4k_grid

>  <i_i_glide_lignum>  (179) 
37

>  <i_i_glide_rotatable_bonds>  (179) 
3

>  <r_i_docking_score>  (179) 
-3.12763

>  <r_i_glide_ligand_efficiency>  (179) 
-0.164612

>  <r_i_glide_ligand_efficiency_sa>  (179) 
-0.439251

>  <r_i_glide_ligand_efficiency_ln>  (179) 
-0.792922

>  <r_i_glide_gscore>  (179) 
-3.12763

>  <r_i_glide_lipo>  (179) 
-0.60148

>  <r_i_glide_hbond>  (179) 
0

>  <r_i_glide_metal>  (179) 
-0

>  <r_i_glide_rewards>  (179) 
-1.59289

>  <r_i_glide_evdw>  (179) 
-19.8432

>  <r_i_glide_ecoul>  (179) 
-1.17441

>  <r_i_glide_erotb>  (179) 
0.251041

>  <r_i_glide_esite>  (179) 
-0.0159778

>  <r_i_glide_emodel>  (179) 
-21.904

>  <r_i_glide_energy>  (179) 
-21.0176

>  <r_i_glide_einternal>  (179) 
2.82006

>  <r_i_glide_intrahb_reward>  (179) 
-0

>  <i_i_glide_confnum>  (179) 
3

>  <i_i_glide_posenum>  (179) 
1

>  <r_i_glide_eff_state_penalty>  (179) 
0

>  <ligand_id>  (179) 
55

>  <original_smiles>  (179) 
CC(=O)OC12CC(C)C3CC1(C)C(C(C)C2)C3(C)O

>  <smiles>  (179) 
[H]OC1(C([H])([H])[H])C2([H])C([H])([H])C3(C([H])([H])[H])C1([H])C([H])(C([H])([H])[H])C([H])([H])C3(OC(=O)C([H])([H])[H])C([H])([H])C2([H])C([H])([H])[H]

$$$$
55:0:1
     RDKit          3D

 45 47  0  0  1  0  0  0  0  0999 V2000
    2.9863   -2.4386   -2.9372 C   0  0  0  0  0  0  0  0  0  0  0  0
    4.1731   -3.3997   -2.8634 C   0  0  0  0  0  0  0  0  0  0  0  0
    4.6545   -3.8609   -3.9018 O   0  0  0  0  0  0  0  0  0  0  0  0
    4.6346   -3.7063   -1.6099 O   0  0  0  0  0  0  0  0  0  0  0  0
    4.1787   -3.1555   -0.3596 C   0  0  1  0  0  0  0  0  0  0  0  0
    2.7960   -3.7857    0.0393 C   0  0  0  0  0  0  0  0  0  0  0  0
    2.7335   -4.7978    1.2188 C   0  0  1  0  0  0  0  0  0  0  0  0
    2.5261   -6.2415    0.7379 C   0  0  0  0  0  0  0  0  0  0  0  0
    3.9280   -4.6488    2.1887 C   0  0  1  0  0  0  0  0  0  0  0  0
    5.2222   -4.7567    1.3776 C   0  0  0  0  0  0  0  0  0  0  0  0
    5.2970   -3.3744    0.7244 C   0  0  1  0  0  0  0  0  0  0  0  0
    6.7347   -3.1032    0.2172 C   0  0  0  0  0  0  0  0  0  0  0  0
    4.8985   -2.3854    1.8407 C   0  0  1  0  0  0  0  0  0  0  0  0
    4.1809   -1.2211    1.1003 C   0  0  1  0  0  0  0  0  0  0  0  0
    4.9133    0.1185    1.2477 C   0  0  0  0  0  0  0  0  0  0  0  0
    4.0625   -1.6191   -0.3540 C   0  0  0  0  0  0  0  0  0  0  0  0
    4.0561   -3.2421    2.8488 C   0  0  1  0  0  0  0  0  0  0  0  0
    2.7437   -2.6394    3.3872 C   0  0  0  0  0  0  0  0  0  0  0  0
    4.8524   -3.4072    4.0108 O   0  0  0  0  0  0  0  0  0  0  0  0
    2.1894   -2.7681   -2.2655 H   0  0  0  0  0  0  0  0  0  0  0  0
    2.5830   -2.4145   -3.9437 H   0  0  0  0  0  0  0  0  0  0  0  0
    3.2959   -1.4551   -2.6175 H   0  0  0  0  0  0  0  0  0  0  0  0
    2.1395   -2.9730    0.3353 H   0  0  0  0  0  0  0  0  0  0  0  0
    2.3008   -4.1918   -0.8472 H   0  0  0  0  0  0  0  0  0  0  0  0
    1.8199   -4.5819    1.7832 H   0  0  0  0  0  0  0  0  0  0  0  0
    3.3340   -6.5871    0.0906 H   0  0  0  0  0  0  0  0  0  0  0  0
    1.6001   -6.3229    0.1603 H   0  0  0  0  0  0  0  0  0  0  0  0
    2.4430   -6.9366    1.5677 H   0  0  0  0  0  0  0  0  0  0  0  0
    3.8632   -5.4305    2.9430 H   0  0  0  0  0  0  0  0  0  0  0  0
    6.0700   -4.9238    2.0447 H   0  0  0  0  0  0  0  0  0  0  0  0
    5.2260   -5.5657    0.6432 H   0  0  0  0  0  0  0  0  0  0  0  0
    7.4573   -3.1593    1.0348 H   0  0  0  0  0  0  0  0  0  0  0  0
    6.8361   -2.1163   -0.2308 H   0  0  0  0  0  0  0  0  0  0  0  0
    7.0440   -3.8393   -0.5302 H   0  0  0  0  0  0  0  0  0  0  0  0
    5.7898   -2.0037    2.3513 H   0  0  0  0  0  0  0  0  0  0  0  0
    3.1854   -1.0528    1.4985 H   0  0  0  0  0  0  0  0  0  0  0  0
    5.9321    0.0700    0.8609 H   0  0  0  0  0  0  0  0  0  0  0  0
    4.9626    0.4251    2.2981 H   0  0  0  0  0  0  0  0  0  0  0  0
    4.3876    0.8902    0.7032 H   0  0  0  0  0  0  0  0  0  0  0  0
    4.8643   -1.1776   -0.9466 H   0  0  0  0  0  0  0  0  0  0  0  0
    3.1268   -1.2755   -0.7952 H   0  0  0  0  0  0  0  0  0  0  0  0
    1.9868   -2.4711    2.6181 H   0  0  0  0  0  0  0  0  0  0  0  0
    2.9245   -1.6774    3.8678 H   0  0  0  0  0  0  0  0  0  0  0  0
    2.2891   -3.2948    4.1272 H   0  0  0  0  0  0  0  0  0  0  0  0
    5.6499   -3.8154    3.7531 H   0  0  0  0  0  0  0  0  0  0  0  0
  1  2  1  0
  1 20  1  0
  1 21  1  0
  1 22  1  0
  2  3  2  0
  2  4  1  0
  5  4  1  6
  5 11  1  0
  5 16  1  0
  5  6  1  0
  6  7  1  0
  6 23  1  0
  6 24  1  0
  7  8  1  0
  7  9  1  0
  7 25  1  1
  8 26  1  0
  8 27  1  0
  8 28  1  0
  9 17  1  0
  9 10  1  0
  9 29  1  1
 10 11  1  0
 10 30  1  0
 10 31  1  0
 11 12  1  6
 11 13  1  0
 12 32  1  0
 12 33  1  0
 12 34  1  0
 13 14  1  0
 13 17  1  0
 13 35  1  1
 14 15  1  0
 14 16  1  0
 14 36  1  1
 15 37  1  0
 15 38  1  0
 15 39  1  0
 16 40  1  0
 16 41  1  0
 17 18  1  0
 17 19  1  1
 18 42  1  0
 18 43  1  0
 18 44  1  0
 19 45  1  0
M  END
>  <i_m_ct_stereo_status>  (180) 
1

>  <s_m_source_file>  (180) 
/var/tmp/pbs.5076255.sched01/tmp06uo9b_r/40lj_pgbub.sdf

>  <i_m_source_file_index>  (180) 
37

>  <i_lp_mmshare_version>  (180) 
48012

>  <i_f3d_flags>  (180) 
0

>  <s_epik_input>  (180) 
W0NIM11DKD1PKU9bQ0BdMTJbQ0BAXTMoW0NIM10pW0NAQEhdKFtDQEBIXShbQ0gzXSlbQ0gyXTIpW0NAXShbQ0gzXSkoW09IXSlbQ0BIXShbQ0gyXTMpW0NAQEhdKFtDSDJdMSlbQ0gzXQ==

>  <s_epik_cmdline>  (180) 
J2VwaWtfcHl0aG9uJywgJy1waHQnLCAnMi4wJywgJy1waCcsICc3LjAnLCAnLXRuJywgJzgnLCAnLW1hJywgJzIwMCcsICctaW1hZScsICc8aW5maWxlLm1hZT4nLCAnLW9tYWUnLCAnPG91dGZpbGUubWFlPic=

>  <r_lp_tautomer_probability>  (180) 
1

>  <r_epik_Ionization_Penalty>  (180) 
1.12367e-06

>  <r_epik_Ionization_Penalty_Charging>  (180) 
0

>  <r_epik_Ionization_Penalty_Neutral>  (180) 
1.12367e-06

>  <r_epik_State_Penalty>  (180) 
-0

>  <r_epik_Charging_Adjusted_Penalty>  (180) 
0

>  <i_epik_Tot_Q>  (180) 
0

>  <i_epik_Tot_abs_Q>  (180) 
0

>  <s_epik_Chemistry_Notes>  (180) 
This compound has an ester and may undergo hydrolysis at high or low pH.

>  <s_lp_Force_Field>  (180) 
OPLS3e

>  <r_lp_Energy>  (180) 
31.7112

>  <b_lp_Chiralities_Consistent>  (180) 
1

>  <s_lp_Variant>  (180) 
55:0-1

>  <s_i_glide_gridfile>  (180) 
pfpi4k_grid

>  <i_i_glide_lignum>  (180) 
37

>  <i_i_glide_rotatable_bonds>  (180) 
3

>  <r_i_docking_score>  (180) 
-3.04154

>  <r_i_glide_ligand_efficiency>  (180) 
-0.160081

>  <r_i_glide_ligand_efficiency_sa>  (180) 
-0.42716

>  <r_i_glide_ligand_efficiency_ln>  (180) 
-0.771095

>  <r_i_glide_gscore>  (180) 
-3.04154

>  <r_i_glide_lipo>  (180) 
-0.334937

>  <r_i_glide_hbond>  (180) 
0

>  <r_i_glide_metal>  (180) 
-0

>  <r_i_glide_rewards>  (180) 
-1.59289

>  <r_i_glide_evdw>  (180) 
-21.4868

>  <r_i_glide_ecoul>  (180) 
-1.85487

>  <r_i_glide_erotb>  (180) 
0.251041

>  <r_i_glide_esite>  (180) 
-0.0121787

>  <r_i_glide_emodel>  (180) 
-24.5713

>  <r_i_glide_energy>  (180) 
-23.3417

>  <r_i_glide_einternal>  (180) 
4.81582

>  <r_i_glide_intrahb_reward>  (180) 
-0

>  <i_i_glide_confnum>  (180) 
4

>  <i_i_glide_posenum>  (180) 
13

>  <r_i_glide_eff_state_penalty>  (180) 
0

>  <ligand_id>  (180) 
55

>  <original_smiles>  (180) 
CC(=O)OC12CC(C)C3CC1(C)C(C(C)C2)C3(C)O

>  <smiles>  (180) 
[H]OC1(C([H])([H])[H])C2([H])C([H])([H])C3(C([H])([H])[H])C1([H])C([H])(C([H])([H])[H])C([H])([H])C3(OC(=O)C([H])([H])[H])C([H])([H])C2([H])C([H])([H])[H]

$$$$
55:0:2
     RDKit          3D

 45 47  0  0  1  0  0  0  0  0999 V2000
    3.8035   -1.4577   -4.5136 C   0  0  0  0  0  0  0  0  0  0  0  0
    4.2913   -1.0280   -3.1534 C   0  0  0  0  0  0  0  0  0  0  0  0
    4.2243    0.1120   -2.7913 O   0  0  0  0  0  0  0  0  0  0  0  0
    4.7578   -2.0562   -2.4340 O   0  0  0  0  0  0  0  0  0  0  0  0
    4.6329   -2.0706   -1.0059 C   0  0  1  0  0  0  0  0  0  0  0  0
    3.1241   -2.1648   -0.6964 C   0  0  0  0  0  0  0  0  0  0  0  0
    2.4893   -3.4943   -0.3666 C   0  0  1  0  0  0  0  0  0  0  0  0
    1.6020   -3.9823   -1.5193 C   0  0  0  0  0  0  0  0  0  0  0  0
    3.5034   -4.5090    0.1748 C   0  0  1  0  0  0  0  0  0  0  0  0
    4.6953   -4.6059   -0.7749 C   0  0  0  0  0  0  0  0  0  0  0  0
    5.4191   -3.2937   -0.4791 C   0  0  1  0  0  0  0  0  0  0  0  0
    6.8644   -3.3260   -1.0050 C   0  0  0  0  0  0  0  0  0  0  0  0
    5.3482   -3.1051    1.0448 C   0  0  1  0  0  0  0  0  0  0  0  0
    5.2305   -1.5615    1.2389 C   0  0  1  0  0  0  0  0  0  0  0  0
    6.3800   -1.0550    2.0151 C   0  0  0  0  0  0  0  0  0  0  0  0
    5.1840   -0.9242   -0.1583 C   0  0  0  0  0  0  0  0  0  0  0  0
    4.1439   -3.9965    1.4866 C   0  0  1  0  0  0  0  0  0  0  0  0
    3.1736   -3.4110    2.5504 C   0  0  0  0  0  0  0  0  0  0  0  0
    4.7163   -5.1401    2.1119 O   0  0  0  0  0  0  0  0  0  0  0  0
    4.6057   -1.9757   -5.0139 H   0  0  0  0  0  0  0  0  0  0  0  0
    3.4789   -0.6158   -5.1251 H   0  0  0  0  0  0  0  0  0  0  0  0
    2.9672   -2.1367   -4.3841 H   0  0  0  0  0  0  0  0  0  0  0  0
    2.8460   -1.4418    0.0468 H   0  0  0  0  0  0  0  0  0  0  0  0
    2.5787   -1.7546   -1.5395 H   0  0  0  0  0  0  0  0  0  0  0  0
    1.8326   -3.2747    0.4724 H   0  0  0  0  0  0  0  0  0  0  0  0
    2.1529   -4.1073   -2.4564 H   0  0  0  0  0  0  0  0  0  0  0  0
    0.7857   -3.3016   -1.7387 H   0  0  0  0  0  0  0  0  0  0  0  0
    1.1617   -4.9398   -1.2645 H   0  0  0  0  0  0  0  0  0  0  0  0
    3.0106   -5.4605    0.3116 H   0  0  0  0  0  0  0  0  0  0  0  0
    5.3183   -5.4706   -0.5188 H   0  0  0  0  0  0  0  0  0  0  0  0
    4.3999   -4.6680   -1.8222 H   0  0  0  0  0  0  0  0  0  0  0  0
    7.3959   -4.1700   -0.5465 H   0  0  0  0  0  0  0  0  0  0  0  0
    7.4175   -2.4096   -0.7857 H   0  0  0  0  0  0  0  0  0  0  0  0
    6.8608   -3.4671   -2.0930 H   0  0  0  0  0  0  0  0  0  0  0  0
    6.2587   -3.4803    1.4981 H   0  0  0  0  0  0  0  0  0  0  0  0
    4.3397   -1.2975    1.8096 H   0  0  0  0  0  0  0  0  0  0  0  0
    7.3186   -1.1565    1.4525 H   0  0  0  0  0  0  0  0  0  0  0  0
    6.4336   -1.6416    2.9143 H   0  0  0  0  0  0  0  0  0  0  0  0
    6.1800    0.0165    2.2324 H   0  0  0  0  0  0  0  0  0  0  0  0
    6.1637   -0.5798   -0.5024 H   0  0  0  0  0  0  0  0  0  0  0  0
    4.5281   -0.0411   -0.1520 H   0  0  0  0  0  0  0  0  0  0  0  0
    2.6290   -2.5167    2.2324 H   0  0  0  0  0  0  0  0  0  0  0  0
    3.6891   -3.1099    3.4530 H   0  0  0  0  0  0  0  0  0  0  0  0
    2.4005   -4.1211    2.8226 H   0  0  0  0  0  0  0  0  0  0  0  0
    5.0150   -4.8836    2.9346 H   0  0  0  0  0  0  0  0  0  0  0  0
  1  2  1  0
  1 20  1  0
  1 21  1  0
  1 22  1  0
  2  3  2  0
  2  4  1  0
  5  4  1  6
  5 11  1  0
  5 16  1  0
  5  6  1  0
  6  7  1  0
  6 23  1  0
  6 24  1  0
  7  8  1  0
  7  9  1  0
  7 25  1  1
  8 26  1  0
  8 27  1  0
  8 28  1  0
  9 17  1  0
  9 10  1  0
  9 29  1  1
 10 11  1  0
 10 30  1  0
 10 31  1  0
 11 12  1  6
 11 13  1  0
 12 32  1  0
 12 33  1  0
 12 34  1  0
 13 14  1  0
 13 17  1  0
 13 35  1  1
 14 15  1  0
 14 16  1  0
 14 36  1  1
 15 37  1  0
 15 38  1  0
 15 39  1  0
 16 40  1  0
 16 41  1  0
 17 18  1  0
 17 19  1  1
 18 42  1  0
 18 43  1  0
 18 44  1  0
 19 45  1  0
M  END
>  <i_m_ct_stereo_status>  (181) 
1

>  <s_m_source_file>  (181) 
/var/tmp/pbs.5076255.sched01/tmp06uo9b_r/40lj_pgbub.sdf

>  <i_m_source_file_index>  (181) 
37

>  <i_lp_mmshare_version>  (181) 
48012

>  <i_f3d_flags>  (181) 
0

>  <s_epik_input>  (181) 
W0NIM11DKD1PKU9bQ0BdMTJbQ0BAXTMoW0NIM10pW0NAQEhdKFtDQEBIXShbQ0gzXSlbQ0gyXTIpW0NAXShbQ0gzXSkoW09IXSlbQ0BIXShbQ0gyXTMpW0NAQEhdKFtDSDJdMSlbQ0gzXQ==

>  <s_epik_cmdline>  (181) 
J2VwaWtfcHl0aG9uJywgJy1waHQnLCAnMi4wJywgJy1waCcsICc3LjAnLCAnLXRuJywgJzgnLCAnLW1hJywgJzIwMCcsICctaW1hZScsICc8aW5maWxlLm1hZT4nLCAnLW9tYWUnLCAnPG91dGZpbGUubWFlPic=

>  <r_lp_tautomer_probability>  (181) 
1

>  <r_epik_Ionization_Penalty>  (181) 
1.12367e-06

>  <r_epik_Ionization_Penalty_Charging>  (181) 
0

>  <r_epik_Ionization_Penalty_Neutral>  (181) 
1.12367e-06

>  <r_epik_State_Penalty>  (181) 
-0

>  <r_epik_Charging_Adjusted_Penalty>  (181) 
0

>  <i_epik_Tot_Q>  (181) 
0

>  <i_epik_Tot_abs_Q>  (181) 
0

>  <s_epik_Chemistry_Notes>  (181) 
This compound has an ester and may undergo hydrolysis at high or low pH.

>  <s_lp_Force_Field>  (181) 
OPLS3e

>  <r_lp_Energy>  (181) 
31.7112

>  <b_lp_Chiralities_Consistent>  (181) 
1

>  <s_lp_Variant>  (181) 
55:0-1

>  <s_i_glide_gridfile>  (181) 
pfpi4k_grid

>  <i_i_glide_lignum>  (181) 
37

>  <i_i_glide_rotatable_bonds>  (181) 
3

>  <r_i_docking_score>  (181) 
-2.31284

>  <r_i_glide_ligand_efficiency>  (181) 
-0.121728

>  <r_i_glide_ligand_efficiency_sa>  (181) 
-0.32482

>  <r_i_glide_ligand_efficiency_ln>  (181) 
-0.586354

>  <r_i_glide_gscore>  (181) 
-2.31284

>  <r_i_glide_lipo>  (181) 
-0.426018

>  <r_i_glide_hbond>  (181) 
0

>  <r_i_glide_metal>  (181) 
-0

>  <r_i_glide_rewards>  (181) 
-1.71315

>  <r_i_glide_evdw>  (181) 
-10.8923

>  <r_i_glide_ecoul>  (181) 
0.799366

>  <r_i_glide_erotb>  (181) 
0.251041

>  <r_i_glide_esite>  (181) 
0

>  <r_i_glide_emodel>  (181) 
-6.81731

>  <r_i_glide_energy>  (181) 
-10.0929

>  <r_i_glide_einternal>  (181) 
8.44123

>  <r_i_glide_intrahb_reward>  (181) 
-0

>  <i_i_glide_confnum>  (181) 
4

>  <i_i_glide_posenum>  (181) 
2

>  <r_i_glide_eff_state_penalty>  (181) 
0

>  <ligand_id>  (181) 
55

>  <original_smiles>  (181) 
CC(=O)OC12CC(C)C3CC1(C)C(C(C)C2)C3(C)O

>  <smiles>  (181) 
[H]OC1(C([H])([H])[H])C2([H])C([H])([H])C3(C([H])([H])[H])C1([H])C([H])(C([H])([H])[H])C([H])([H])C3(OC(=O)C([H])([H])[H])C([H])([H])C2([H])C([H])([H])[H]

$$$$
56:0:0
     RDKit          3D

 32 34  0  0  1  0  0  0  0  0999 V2000
   -6.7582   -5.0480   -4.6841 C   0  0  0  0  0  0  0  0  0  0  0  0
   -7.6928   -4.2507   -5.3607 C   0  0  0  0  0  0  0  0  0  0  0  0
   -8.3946   -4.7514   -6.4665 C   0  0  0  0  0  0  0  0  0  0  0  0
   -8.2061   -6.0818   -6.9003 C   0  0  0  0  0  0  0  0  0  0  0  0
   -9.0205   -6.6292   -8.0824 C   0  0  2  0  0  0  0  0  0  0  0  0
   -9.0384   -8.1825   -8.1408 C   0  0  0  0  0  0  0  0  0  0  0  0
   -9.9098   -8.6858   -9.3144 C   0  0  0  0  0  0  0  0  0  0  0  0
  -10.3937   -7.5339  -10.1174 N   0  0  2  0  0  0  0  0  0  0  0  0
   -9.2402   -6.7303  -10.6169 C   0  0  0  0  0  0  0  0  0  0  0  0
   -8.4259   -6.1493   -9.4268 C   0  0  0  0  0  0  0  0  0  0  0  0
  -11.2839   -6.6900   -9.2805 C   0  0  0  0  0  0  0  0  0  0  0  0
  -10.5090   -6.1585   -8.0511 C   0  0  0  0  0  0  0  0  0  0  0  0
   -7.2637   -6.8813   -6.2071 C   0  0  0  0  0  0  0  0  0  0  0  0
   -6.5460   -6.3700   -5.1074 C   0  0  0  0  0  0  0  0  0  0  0  0
   -6.2178   -4.6444   -3.8425 H   0  0  0  0  0  0  0  0  0  0  0  0
   -7.8706   -3.2344   -5.0448 H   0  0  0  0  0  0  0  0  0  0  0  0
   -9.0864   -4.0884   -6.9634 H   0  0  0  0  0  0  0  0  0  0  0  0
   -8.0321   -8.5817   -8.2802 H   0  0  0  0  0  0  0  0  0  0  0  0
   -9.4065   -8.6010   -7.2032 H   0  0  0  0  0  0  0  0  0  0  0  0
   -9.3355   -9.3689   -9.9394 H   0  0  0  0  0  0  0  0  0  0  0  0
  -10.7589   -9.2553   -8.9351 H   0  0  0  0  0  0  0  0  0  0  0  0
   -8.5984   -7.3506  -11.2444 H   0  0  0  0  0  0  0  0  0  0  0  0
   -9.6015   -5.9228  -11.2572 H   0  0  0  0  0  0  0  0  0  0  0  0
   -8.4214   -5.0579   -9.4751 H   0  0  0  0  0  0  0  0  0  0  0  0
   -7.3832   -6.4576   -9.5136 H   0  0  0  0  0  0  0  0  0  0  0  0
  -11.6639   -5.8592   -9.8764 H   0  0  0  0  0  0  0  0  0  0  0  0
  -12.1611   -7.2548   -8.9635 H   0  0  0  0  0  0  0  0  0  0  0  0
  -11.0016   -6.4895   -7.1362 H   0  0  0  0  0  0  0  0  0  0  0  0
  -10.6038   -5.0731   -8.0622 H   0  0  0  0  0  0  0  0  0  0  0  0
   -7.0745   -7.9061   -6.4801 H   0  0  0  0  0  0  0  0  0  0  0  0
   -5.8410   -7.0006   -4.5839 H   0  0  0  0  0  0  0  0  0  0  0  0
  -10.9228   -7.8848  -10.9047 H   0  0  0  0  0  0  0  0  0  0  0  0
  1 14  2  0
  1  2  1  0
  1 15  1  0
  2  3  2  0
  2 16  1  0
  3  4  1  0
  3 17  1  0
  5  4  1  1
  4 13  2  0
  5 10  1  0
  5 12  1  0
  5  6  1  0
  6  7  1  0
  6 18  1  0
  6 19  1  0
  7  8  1  0
  7 20  1  0
  7 21  1  0
  8  9  1  0
  8 11  1  0
  8 32  1  6
  9 10  1  0
  9 22  1  0
  9 23  1  0
 10 24  1  0
 10 25  1  0
 11 12  1  0
 11 26  1  0
 11 27  1  0
 12 28  1  0
 12 29  1  0
 13 14  1  0
 13 30  1  0
 14 31  1  0
M  CHG  1   8   1
M  END
>  <i_m_ct_stereo_status>  (182) 
1

>  <s_m_source_file>  (182) 
/var/tmp/pbs.5076255.sched01/tmp06uo9b_r/40lj_pgbub.sdf

>  <i_m_source_file_index>  (182) 
38

>  <i_lp_mmshare_version>  (182) 
48012

>  <i_f3d_flags>  (182) 
0

>  <s_epik_input>  (182) 
W2NIXTFbY0hdW2NIXVtjSF1bY0hdYzFDMjNbQ0gyXVtDSDJdTihbQ0gyXVtDSDJdMilbQ0gyXVtDSDJdMw==

>  <s_epik_cmdline>  (182) 
J2VwaWtfcHl0aG9uJywgJy1waHQnLCAnMi4wJywgJy1waCcsICc3LjAnLCAnLXRuJywgJzgnLCAnLW1hJywgJzIwMCcsICctaW1hZScsICc8aW5maWxlLm1hZT4nLCAnLW9tYWUnLCAnPG91dGZpbGUubWFlPic=

>  <r_epik_Ionization_Penalty>  (182) 
0.0020461

>  <r_epik_Ionization_Penalty_Charging>  (182) 
0.0020461

>  <r_epik_Ionization_Penalty_Neutral>  (182) 
0

>  <r_epik_State_Penalty>  (182) 
0.00139985

>  <r_epik_Charging_Adjusted_Penalty>  (182) 
0.00344595

>  <i_epik_Tot_Q>  (182) 
1

>  <i_epik_Tot_abs_Q>  (182) 
1

>  <s_lp_Force_Field>  (182) 
OPLS3e

>  <r_lp_Energy>  (182) 
42.2988

>  <b_lp_Chiralities_Consistent>  (182) 
1

>  <s_lp_Variant>  (182) 
56:0-1

>  <s_i_glide_gridfile>  (182) 
pfpi4k_grid

>  <i_i_glide_lignum>  (182) 
38

>  <i_i_glide_rotatable_bonds>  (182) 
1

>  <r_i_docking_score>  (182) 
-5.60003

>  <r_i_glide_ligand_efficiency>  (182) 
-0.400002

>  <r_i_glide_ligand_efficiency_sa>  (182) 
-0.964063

>  <r_i_glide_ligand_efficiency_ln>  (182) 
-1.53887

>  <r_i_glide_gscore>  (182) 
-5.60003

>  <r_i_glide_lipo>  (182) 
-2.16685

>  <r_i_glide_hbond>  (182) 
0

>  <r_i_glide_metal>  (182) 
-0

>  <r_i_glide_rewards>  (182) 
-2.68364

>  <r_i_glide_evdw>  (182) 
-20.9453

>  <r_i_glide_ecoul>  (182) 
-1.0201

>  <r_i_glide_erotb>  (182) 
0.451351

>  <r_i_glide_esite>  (182) 
-0.000615242

>  <r_i_glide_emodel>  (182) 
-28.4334

>  <r_i_glide_energy>  (182) 
-21.9654

>  <r_i_glide_einternal>  (182) 
0.705447

>  <r_i_glide_intrahb_reward>  (182) 
-0

>  <i_i_glide_confnum>  (182) 
6

>  <i_i_glide_posenum>  (182) 
25

>  <r_i_glide_eff_state_penalty>  (182) 
0

>  <ligand_id>  (182) 
56

>  <original_smiles>  (182) 
c1ccc(C23CCN(CC2)CC3)cc1

>  <smiles>  (182) 
[H]c1c([H])c([H])c(C23C([H])([H])C([H])([H])[N+]([H])(C([H])([H])C2([H])[H])C([H])([H])C3([H])[H])c([H])c1[H]

$$$$
58:0:0
     RDKit          3D

 43 47  0  0  1  0  0  0  0  0999 V2000
    2.9572   -0.1666   -4.5124 C   0  0  0  0  0  0  0  0  0  0  0  0
    3.9238   -0.3738   -3.3607 C   0  0  0  0  0  0  0  0  0  0  0  0
    4.0218   -1.4226   -2.5330 C   0  0  0  0  0  0  0  0  0  0  0  0
    3.0293   -2.7266   -2.4918 C   0  0  0  0  0  0  0  0  0  0  0  0
    2.6828   -3.1655   -1.0231 N   0  0  2  0  0  0  0  0  0  0  0  0
    3.1789   -4.2202   -0.0625 C   0  0  2  0  0  0  0  0  0  0  0  0
    2.3783   -4.9713    0.9824 C   0  0  0  0  0  0  0  0  0  0  0  0
    3.4755   -5.7455    1.8128 C   0  0  0  0  0  0  0  0  0  0  0  0
    4.8554   -5.6078    1.3341 O   0  0  0  0  0  0  0  0  0  0  0  0
    5.3928   -4.3415    0.9641 C   0  0  1  0  0  0  0  0  0  0  0  0
    5.9573   -4.3724   -0.3311 O   0  0  0  0  0  0  0  0  0  0  0  0
    5.2985   -3.5691   -1.3482 C   0  0  2  0  0  0  0  0  0  0  0  0
    6.1656   -2.4102   -1.6768 C   0  0  0  0  0  0  0  0  0  0  0  0
    5.1095   -1.4028   -1.3079 C   0  0  2  0  0  0  0  0  0  0  0  0
    4.6000   -1.9042    0.2223 C   0  0  2  0  0  0  0  0  0  0  0  0
    3.8774   -0.7496    0.9964 C   0  0  0  0  0  0  0  0  0  0  0  0
    4.7092   -0.2690    2.1810 C   0  0  0  0  0  0  0  0  0  0  0  0
    4.2218   -3.3612    0.8782 C   0  0  1  0  0  0  0  0  0  0  0  0
    4.0046   -2.8686   -0.5926 C   0  0  2  0  0  0  0  0  0  0  0  0
    3.5055    0.0903   -5.4205 H   0  0  0  0  0  0  0  0  0  0  0  0
    2.2849    0.6709   -4.3174 H   0  0  0  0  0  0  0  0  0  0  0  0
    2.3538   -1.0535   -4.7002 H   0  0  0  0  0  0  0  0  0  0  0  0
    4.5933    0.4610   -3.1951 H   0  0  0  0  0  0  0  0  0  0  0  0
    2.0923   -2.4215   -2.9385 H   0  0  0  0  0  0  0  0  0  0  0  0
    3.3846   -3.5229   -3.1365 H   0  0  0  0  0  0  0  0  0  0  0  0
    3.5788   -5.0672   -0.6496 H   0  0  0  0  0  0  0  0  0  0  0  0
    1.8220   -4.3157    1.6576 H   0  0  0  0  0  0  0  0  0  0  0  0
    1.6944   -5.6887    0.5343 H   0  0  0  0  0  0  0  0  0  0  0  0
    3.4342   -5.4470    2.8656 H   0  0  0  0  0  0  0  0  0  0  0  0
    3.2589   -6.8168    1.8095 H   0  0  0  0  0  0  0  0  0  0  0  0
    6.1499   -4.0195    1.6810 H   0  0  0  0  0  0  0  0  0  0  0  0
    5.0974   -4.2054   -2.2091 H   0  0  0  0  0  0  0  0  0  0  0  0
    7.0366   -2.3555   -1.0218 H   0  0  0  0  0  0  0  0  0  0  0  0
    6.4629   -2.4039   -2.7226 H   0  0  0  0  0  0  0  0  0  0  0  0
    5.5578   -0.4102   -1.2475 H   0  0  0  0  0  0  0  0  0  0  0  0
    3.7172    0.0964    0.3293 H   0  0  0  0  0  0  0  0  0  0  0  0
    2.8843   -1.0486    1.3453 H   0  0  0  0  0  0  0  0  0  0  0  0
    4.2053    0.5471    2.7067 H   0  0  0  0  0  0  0  0  0  0  0  0
    5.6851    0.0888    1.8446 H   0  0  0  0  0  0  0  0  0  0  0  0
    4.8745   -1.0849    2.8885 H   0  0  0  0  0  0  0  0  0  0  0  0
    3.8515   -3.1931    1.8914 H   0  0  0  0  0  0  0  0  0  0  0  0
    3.2472   -2.0091   -0.5715 H   0  0  0  0  0  0  0  0  0  0  0  0
    2.0516   -2.4995   -0.6110 H   0  0  0  0  0  0  0  0  0  0  0  0
  1  2  1  0
  1 20  1  0
  1 21  1  0
  1 22  1  0
  2  3  2  3
  2 23  1  0
  3 14  1  0
  3  4  1  0
  4  5  1  0
  4 24  1  0
  4 25  1  0
  5 19  1  0
  5  6  1  0
  5 43  1  1
  6 18  1  0
  6  7  1  0
  6 26  1  6
  7  8  1  0
  7 27  1  0
  7 28  1  0
  8  9  1  0
  8 29  1  0
  8 30  1  0
  9 10  1  0
 10 18  1  0
 10 11  1  0
 10 31  1  1
 11 12  1  0
 12 19  1  0
 12 13  1  0
 12 32  1  6
 13 14  1  0
 13 33  1  0
 13 34  1  0
 14 15  1  0
 14 35  1  1
 15 16  1  6
 15 18  1  0
 15 19  1  0
 16 17  1  0
 16 36  1  0
 16 37  1  0
 17 38  1  0
 17 39  1  0
 17 40  1  0
 18 41  1  1
 19 42  1  1
M  CHG  1   5   1
M  END
>  <i_m_ct_stereo_status>  (183) 
1

>  <s_m_source_file>  (183) 
/var/tmp/pbs.5076255.sched01/tmp06uo9b_r/40lj_pgbub.sdf

>  <i_m_source_file_index>  (183) 
40

>  <i_lp_mmshare_version>  (183) 
48012

>  <i_f3d_flags>  (183) 
0

>  <s_epik_input>  (183) 
W0NIM11bQ0gyXVtDQEBdMTJbQ0BASF0zQyg9W0NIXVxbQ0gzXSkvW0NIMl1ONFtDQEhdNVtDQEhdMVtDSF0oT1tDSDJdW0NIMl01KU9bQ0BIXShbQ0gyXTMpW0NASF0yNA==

>  <s_epik_cmdline>  (183) 
J2VwaWtfcHl0aG9uJywgJy1waHQnLCAnMi4wJywgJy1waCcsICc3LjAnLCAnLXRuJywgJzgnLCAnLW1hJywgJzIwMCcsICctaW1hZScsICc8aW5maWxlLm1hZT4nLCAnLW9tYWUnLCAnPG91dGZpbGUubWFlPic=

>  <r_epik_Ionization_Penalty>  (183) 
0.0866981

>  <r_epik_Ionization_Penalty_Charging>  (183) 
0.0866981

>  <r_epik_Ionization_Penalty_Neutral>  (183) 
2.24965e-14

>  <r_epik_State_Penalty>  (183) 
0.0772202

>  <r_epik_Charging_Adjusted_Penalty>  (183) 
0.163918

>  <i_epik_Tot_Q>  (183) 
1

>  <i_epik_Tot_abs_Q>  (183) 
1

>  <s_epik_Chemistry_Notes>  (183) 
This compound contains an acetal/aminal-like group ( X-CH(R)-Y where X, Y are N, S, or O) that may be acid/base labile, releasing an aldehyde.

>  <s_lp_Force_Field>  (183) 
OPLS3e

>  <r_lp_Energy>  (183) 
374.903

>  <b_lp_Chiralities_Consistent>  (183) 
1

>  <s_lp_Variant>  (183) 
58:0-1

>  <s_i_glide_gridfile>  (183) 
pfpi4k_grid

>  <i_i_glide_lignum>  (183) 
40

>  <i_i_glide_rotatable_bonds>  (183) 
1

>  <r_i_docking_score>  (183) 
-4.1595

>  <r_i_glide_ligand_efficiency>  (183) 
-0.218921

>  <r_i_glide_ligand_efficiency_sa>  (183) 
-0.58417

>  <r_i_glide_ligand_efficiency_ln>  (183) 
-1.05452

>  <r_i_glide_gscore>  (183) 
-4.1595

>  <r_i_glide_lipo>  (183) 
-0.645667

>  <r_i_glide_hbond>  (183) 
-0.199511

>  <r_i_glide_metal>  (183) 
-0

>  <r_i_glide_rewards>  (183) 
-1.69417

>  <r_i_glide_evdw>  (183) 
-19.809

>  <r_i_glide_ecoul>  (183) 
-4.13523

>  <r_i_glide_erotb>  (183) 
0

>  <r_i_glide_esite>  (183) 
-0.00941705

>  <r_i_glide_emodel>  (183) 
-30.1977

>  <r_i_glide_energy>  (183) 
-23.9442

>  <r_i_glide_einternal>  (183) 
0.359354

>  <r_i_glide_intrahb_reward>  (183) 
-0

>  <i_i_glide_confnum>  (183) 
2

>  <i_i_glide_posenum>  (183) 
9

>  <r_i_glide_eff_state_penalty>  (183) 
0

>  <ligand_id>  (183) 
58

>  <original_smiles>  (183) 
CC=C1CN2C3CCOC4OC5CC1C(CC)(C43)C52

>  <smiles>  (183) 
[H]C(=C1C2([H])C([H])([H])C3([H])OC4([H])OC([H])([H])C([H])([H])C5([H])C4([H])C2(C([H])([H])C([H])([H])[H])C3([H])[N+]5([H])C1([H])[H])C([H])([H])[H]

$$$$
58:0:1
     RDKit          3D

 43 47  0  0  1  0  0  0  0  0999 V2000
    2.7529   -0.4102   -4.5453 C   0  0  0  0  0  0  0  0  0  0  0  0
    3.8468   -0.6205   -3.5167 C   0  0  0  0  0  0  0  0  0  0  0  0
    3.9695   -1.5896   -2.6023 C   0  0  0  0  0  0  0  0  0  0  0  0
    2.8818   -2.7841   -2.2917 C   0  0  0  0  0  0  0  0  0  0  0  0
    2.7003   -3.0523   -0.7507 N   0  0  2  0  0  0  0  0  0  0  0  0
    3.2425   -4.0460    0.2665 C   0  0  2  0  0  0  0  0  0  0  0  0
    2.5183   -4.5762    1.4881 C   0  0  0  0  0  0  0  0  0  0  0  0
    3.6491   -5.3712    2.2553 C   0  0  0  0  0  0  0  0  0  0  0  0
    4.9562   -5.4401    1.5840 O   0  0  0  0  0  0  0  0  0  0  0  0
    5.5595   -4.2901    0.9908 C   0  0  1  0  0  0  0  0  0  0  0  0
    5.9198   -4.5107   -0.3544 O   0  0  0  0  0  0  0  0  0  0  0  0
    5.2078   -3.7364   -1.3594 C   0  0  2  0  0  0  0  0  0  0  0  0
    6.1151   -2.6984   -1.9195 C   0  0  0  0  0  0  0  0  0  0  0  0
    5.2080   -1.5590   -1.5270 C   0  0  2  0  0  0  0  0  0  0  0  0
    4.8544   -1.8533    0.1073 C   0  0  2  0  0  0  0  0  0  0  0  0
    4.3287   -0.5528    0.8450 C   0  0  0  0  0  0  0  0  0  0  0  0
    2.9587   -0.6125    1.5799 C   0  0  0  0  0  0  0  0  0  0  0  0
    4.4846   -3.2094    0.9576 C   0  0  1  0  0  0  0  0  0  0  0  0
    4.0932   -2.8458   -0.5280 C   0  0  2  0  0  0  0  0  0  0  0  0
    3.1894   -0.2800   -5.5357 H   0  0  0  0  0  0  0  0  0  0  0  0
    2.1936    0.5046   -4.3262 H   0  0  0  0  0  0  0  0  0  0  0  0
    2.0692   -1.2567   -4.5907 H   0  0  0  0  0  0  0  0  0  0  0  0
    4.5988    0.1549   -3.5304 H   0  0  0  0  0  0  0  0  0  0  0  0
    1.9159   -2.4194   -2.6350 H   0  0  0  0  0  0  0  0  0  0  0  0
    3.0628   -3.6676   -2.8890 H   0  0  0  0  0  0  0  0  0  0  0  0
    3.4624   -4.9832   -0.2688 H   0  0  0  0  0  0  0  0  0  0  0  0
    2.1039   -3.7979    2.1368 H   0  0  0  0  0  0  0  0  0  0  0  0
    1.7207   -5.2621    1.2172 H   0  0  0  0  0  0  0  0  0  0  0  0
    3.7755   -4.9616    3.2625 H   0  0  0  0  0  0  0  0  0  0  0  0
    3.3308   -6.4043    2.4007 H   0  0  0  0  0  0  0  0  0  0  0  0
    6.4243   -3.9632    1.5689 H   0  0  0  0  0  0  0  0  0  0  0  0
    4.8259   -4.4247   -2.1146 H   0  0  0  0  0  0  0  0  0  0  0  0
    7.0693   -2.6657   -1.3896 H   0  0  0  0  0  0  0  0  0  0  0  0
    6.2654   -2.8066   -2.9978 H   0  0  0  0  0  0  0  0  0  0  0  0
    5.7470   -0.6139   -1.6401 H   0  0  0  0  0  0  0  0  0  0  0  0
    5.0933   -0.2462    1.5600 H   0  0  0  0  0  0  0  0  0  0  0  0
    4.2752    0.2508    0.1077 H   0  0  0  0  0  0  0  0  0  0  0  0
    2.6852    0.3486    2.0235 H   0  0  0  0  0  0  0  0  0  0  0  0
    2.9006   -1.3646    2.3664 H   0  0  0  0  0  0  0  0  0  0  0  0
    2.1641   -0.8470    0.8862 H   0  0  0  0  0  0  0  0  0  0  0  0
    4.3524   -2.9538    2.0085 H   0  0  0  0  0  0  0  0  0  0  0  0
    3.4337   -1.9216   -0.5131 H   0  0  0  0  0  0  0  0  0  0  0  0
    2.1868   -2.3085   -0.3268 H   0  0  0  0  0  0  0  0  0  0  0  0
  1  2  1  0
  1 20  1  0
  1 21  1  0
  1 22  1  0
  2  3  2  3
  2 23  1  0
  3 14  1  0
  3  4  1  0
  4  5  1  0
  4 24  1  0
  4 25  1  0
  5 19  1  0
  5  6  1  0
  5 43  1  1
  6 18  1  0
  6  7  1  0
  6 26  1  6
  7  8  1  0
  7 27  1  0
  7 28  1  0
  8  9  1  0
  8 29  1  0
  8 30  1  0
  9 10  1  0
 10 18  1  0
 10 11  1  0
 10 31  1  1
 11 12  1  0
 12 19  1  0
 12 13  1  0
 12 32  1  6
 13 14  1  0
 13 33  1  0
 13 34  1  0
 14 15  1  0
 14 35  1  1
 15 16  1  6
 15 18  1  0
 15 19  1  0
 16 17  1  0
 16 36  1  0
 16 37  1  0
 17 38  1  0
 17 39  1  0
 17 40  1  0
 18 41  1  1
 19 42  1  1
M  CHG  1   5   1
M  END
>  <i_m_ct_stereo_status>  (184) 
1

>  <s_m_source_file>  (184) 
/var/tmp/pbs.5076255.sched01/tmp06uo9b_r/40lj_pgbub.sdf

>  <i_m_source_file_index>  (184) 
40

>  <i_lp_mmshare_version>  (184) 
48012

>  <i_f3d_flags>  (184) 
0

>  <s_epik_input>  (184) 
W0NIM11bQ0gyXVtDQEBdMTJbQ0BASF0zQyg9W0NIXVxbQ0gzXSkvW0NIMl1ONFtDQEhdNVtDQEhdMVtDSF0oT1tDSDJdW0NIMl01KU9bQ0BIXShbQ0gyXTMpW0NASF0yNA==

>  <s_epik_cmdline>  (184) 
J2VwaWtfcHl0aG9uJywgJy1waHQnLCAnMi4wJywgJy1waCcsICc3LjAnLCAnLXRuJywgJzgnLCAnLW1hJywgJzIwMCcsICctaW1hZScsICc8aW5maWxlLm1hZT4nLCAnLW9tYWUnLCAnPG91dGZpbGUubWFlPic=

>  <r_epik_Ionization_Penalty>  (184) 
0.0866981

>  <r_epik_Ionization_Penalty_Charging>  (184) 
0.0866981

>  <r_epik_Ionization_Penalty_Neutral>  (184) 
2.24965e-14

>  <r_epik_State_Penalty>  (184) 
0.0772202

>  <r_epik_Charging_Adjusted_Penalty>  (184) 
0.163918

>  <i_epik_Tot_Q>  (184) 
1

>  <i_epik_Tot_abs_Q>  (184) 
1

>  <s_epik_Chemistry_Notes>  (184) 
This compound contains an acetal/aminal-like group ( X-CH(R)-Y where X, Y are N, S, or O) that may be acid/base labile, releasing an aldehyde.

>  <s_lp_Force_Field>  (184) 
OPLS3e

>  <r_lp_Energy>  (184) 
374.903

>  <b_lp_Chiralities_Consistent>  (184) 
1

>  <s_lp_Variant>  (184) 
58:0-1

>  <s_i_glide_gridfile>  (184) 
pfpi4k_grid

>  <i_i_glide_lignum>  (184) 
40

>  <i_i_glide_rotatable_bonds>  (184) 
1

>  <r_i_docking_score>  (184) 
-4.12644

>  <r_i_glide_ligand_efficiency>  (184) 
-0.217181

>  <r_i_glide_ligand_efficiency_sa>  (184) 
-0.579527

>  <r_i_glide_ligand_efficiency_ln>  (184) 
-1.04614

>  <r_i_glide_gscore>  (184) 
-4.12644

>  <r_i_glide_lipo>  (184) 
-0.611993

>  <r_i_glide_hbond>  (184) 
-0.154579

>  <r_i_glide_metal>  (184) 
-0

>  <r_i_glide_rewards>  (184) 
-1.70401

>  <r_i_glide_evdw>  (184) 
-18.6453

>  <r_i_glide_ecoul>  (184) 
-4.62084

>  <r_i_glide_erotb>  (184) 
0

>  <r_i_glide_esite>  (184) 
-0.0304727

>  <r_i_glide_emodel>  (184) 
-26.3949

>  <r_i_glide_energy>  (184) 
-23.2662

>  <r_i_glide_einternal>  (184) 
6.20109

>  <r_i_glide_intrahb_reward>  (184) 
-0

>  <i_i_glide_confnum>  (184) 
2

>  <i_i_glide_posenum>  (184) 
7

>  <r_i_glide_eff_state_penalty>  (184) 
0

>  <ligand_id>  (184) 
58

>  <original_smiles>  (184) 
CC=C1CN2C3CCOC4OC5CC1C(CC)(C43)C52

>  <smiles>  (184) 
[H]C(=C1C2([H])C([H])([H])C3([H])OC4([H])OC([H])([H])C([H])([H])C5([H])C4([H])C2(C([H])([H])C([H])([H])[H])C3([H])[N+]5([H])C1([H])[H])C([H])([H])[H]

$$$$
58:0:2
     RDKit          3D

 43 47  0  0  1  0  0  0  0  0999 V2000
    4.0533   -1.2395   -4.2039 C   0  0  0  0  0  0  0  0  0  0  0  0
    4.1755   -2.4160   -3.2538 C   0  0  0  0  0  0  0  0  0  0  0  0
    4.0716   -2.4193   -1.9101 C   0  0  0  0  0  0  0  0  0  0  0  0
    3.8661   -1.0987   -0.9653 C   0  0  0  0  0  0  0  0  0  0  0  0
    4.7071   -1.1588    0.3708 N   0  0  2  0  0  0  0  0  0  0  0  0
    4.4790   -1.5512    1.8059 C   0  0  2  0  0  0  0  0  0  0  0  0
    5.1270   -0.9560    3.0450 C   0  0  0  0  0  0  0  0  0  0  0  0
    4.6650   -1.9256    4.2039 C   0  0  0  0  0  0  0  0  0  0  0  0
    3.7321   -2.9976    3.8266 O   0  0  0  0  0  0  0  0  0  0  0  0
    3.9379   -3.7838    2.6534 C   0  0  1  0  0  0  0  0  0  0  0  0
    2.7906   -3.7891    1.8170 O   0  0  0  0  0  0  0  0  0  0  0  0
    2.9432   -3.1568    0.5162 C   0  0  2  0  0  0  0  0  0  0  0  0
    2.9574   -4.2077   -0.5399 C   0  0  0  0  0  0  0  0  0  0  0  0
    4.3111   -3.7949   -1.0645 C   0  0  2  0  0  0  0  0  0  0  0  0
    5.2687   -3.7094    0.3242 C   0  0  2  0  0  0  0  0  0  0  0  0
    6.8002   -3.7822   -0.0239 C   0  0  0  0  0  0  0  0  0  0  0  0
    7.4299   -5.0706    0.5035 C   0  0  0  0  0  0  0  0  0  0  0  0
    5.0493   -3.1020    1.8388 C   0  0  1  0  0  0  0  0  0  0  0  0
    4.4884   -2.5536    0.4790 C   0  0  2  0  0  0  0  0  0  0  0  0
    3.3379   -1.4807   -4.9914 H   0  0  0  0  0  0  0  0  0  0  0  0
    5.0065   -1.0457   -4.6940 H   0  0  0  0  0  0  0  0  0  0  0  0
    3.7069   -0.3269   -3.7141 H   0  0  0  0  0  0  0  0  0  0  0  0
    4.3895   -3.3595   -3.7353 H   0  0  0  0  0  0  0  0  0  0  0  0
    4.2470   -0.2523   -1.5246 H   0  0  0  0  0  0  0  0  0  0  0  0
    2.8189   -0.8798   -0.8006 H   0  0  0  0  0  0  0  0  0  0  0  0
    3.4122   -1.3729    2.0464 H   0  0  0  0  0  0  0  0  0  0  0  0
    6.2172   -0.9341    2.9800 H   0  0  0  0  0  0  0  0  0  0  0  0
    4.7821    0.0612    3.2330 H   0  0  0  0  0  0  0  0  0  0  0  0
    5.5371   -2.3707    4.6918 H   0  0  0  0  0  0  0  0  0  0  0  0
    4.1651   -1.3439    4.9792 H   0  0  0  0  0  0  0  0  0  0  0  0
    4.2038   -4.8082    2.9170 H   0  0  0  0  0  0  0  0  0  0  0  0
    2.1356   -2.4374    0.4017 H   0  0  0  0  0  0  0  0  0  0  0  0
    2.9788   -5.2146   -0.1174 H   0  0  0  0  0  0  0  0  0  0  0  0
    2.1464   -4.1025   -1.2663 H   0  0  0  0  0  0  0  0  0  0  0  0
    4.6788   -4.5762   -1.7359 H   0  0  0  0  0  0  0  0  0  0  0  0
    6.9284   -3.7401   -1.1061 H   0  0  0  0  0  0  0  0  0  0  0  0
    7.3508   -2.9282    0.3766 H   0  0  0  0  0  0  0  0  0  0  0  0
    8.4905   -5.1237    0.2444 H   0  0  0  0  0  0  0  0  0  0  0  0
    6.9258   -5.9423    0.0840 H   0  0  0  0  0  0  0  0  0  0  0  0
    7.3400   -5.1240    1.5916 H   0  0  0  0  0  0  0  0  0  0  0  0
    5.9899   -3.2033    2.3972 H   0  0  0  0  0  0  0  0  0  0  0  0
    5.3730   -2.2231   -0.1504 H   0  0  0  0  0  0  0  0  0  0  0  0
    5.6857   -0.9720    0.2122 H   0  0  0  0  0  0  0  0  0  0  0  0
  1  2  1  0
  1 20  1  0
  1 21  1  0
  1 22  1  0
  2  3  2  3
  2 23  1  0
  3 14  1  0
  3  4  1  0
  4  5  1  0
  4 24  1  0
  4 25  1  0
  5 19  1  0
  5  6  1  0
  5 43  1  1
  6 18  1  0
  6  7  1  0
  6 26  1  1
  7  8  1  0
  7 27  1  0
  7 28  1  0
  8  9  1  0
  8 29  1  0
  8 30  1  0
  9 10  1  0
 10 18  1  0
 10 11  1  0
 10 31  1  1
 11 12  1  0
 12 19  1  0
 12 13  1  0
 12 32  1  6
 13 14  1  0
 13 33  1  0
 13 34  1  0
 14 15  1  0
 14 35  1  6
 15 16  1  1
 15 18  1  0
 15 19  1  0
 16 17  1  0
 16 36  1  0
 16 37  1  0
 17 38  1  0
 17 39  1  0
 17 40  1  0
 18 41  1  1
 19 42  1  1
M  CHG  1   5   1
M  END
>  <i_m_ct_stereo_status>  (185) 
1

>  <s_m_source_file>  (185) 
/var/tmp/pbs.5076255.sched01/tmp06uo9b_r/40lj_pgbub.sdf

>  <i_m_source_file_index>  (185) 
40

>  <i_lp_mmshare_version>  (185) 
48012

>  <i_f3d_flags>  (185) 
0

>  <s_epik_input>  (185) 
W0NIM11bQ0gyXVtDQEBdMTJbQ0BASF0zQyg9W0NIXVxbQ0gzXSkvW0NIMl1ONFtDQEhdNVtDQEhdMVtDSF0oT1tDSDJdW0NIMl01KU9bQ0BIXShbQ0gyXTMpW0NASF0yNA==

>  <s_epik_cmdline>  (185) 
J2VwaWtfcHl0aG9uJywgJy1waHQnLCAnMi4wJywgJy1waCcsICc3LjAnLCAnLXRuJywgJzgnLCAnLW1hJywgJzIwMCcsICctaW1hZScsICc8aW5maWxlLm1hZT4nLCAnLW9tYWUnLCAnPG91dGZpbGUubWFlPic=

>  <r_epik_Ionization_Penalty>  (185) 
0.0866981

>  <r_epik_Ionization_Penalty_Charging>  (185) 
0.0866981

>  <r_epik_Ionization_Penalty_Neutral>  (185) 
2.24965e-14

>  <r_epik_State_Penalty>  (185) 
0.0772202

>  <r_epik_Charging_Adjusted_Penalty>  (185) 
0.163918

>  <i_epik_Tot_Q>  (185) 
1

>  <i_epik_Tot_abs_Q>  (185) 
1

>  <s_epik_Chemistry_Notes>  (185) 
This compound contains an acetal/aminal-like group ( X-CH(R)-Y where X, Y are N, S, or O) that may be acid/base labile, releasing an aldehyde.

>  <s_lp_Force_Field>  (185) 
OPLS3e

>  <r_lp_Energy>  (185) 
374.903

>  <b_lp_Chiralities_Consistent>  (185) 
1

>  <s_lp_Variant>  (185) 
58:0-1

>  <s_i_glide_gridfile>  (185) 
pfpi4k_grid

>  <i_i_glide_lignum>  (185) 
40

>  <i_i_glide_rotatable_bonds>  (185) 
1

>  <r_i_docking_score>  (185) 
-3.41729

>  <r_i_glide_ligand_efficiency>  (185) 
-0.179857

>  <r_i_glide_ligand_efficiency_sa>  (185) 
-0.479931

>  <r_i_glide_ligand_efficiency_ln>  (185) 
-0.866355

>  <r_i_glide_gscore>  (185) 
-3.41729

>  <r_i_glide_lipo>  (185) 
-0.654225

>  <r_i_glide_hbond>  (185) 
0

>  <r_i_glide_metal>  (185) 
-0

>  <r_i_glide_rewards>  (185) 
-1.62153

>  <r_i_glide_evdw>  (185) 
-15.0998

>  <r_i_glide_ecoul>  (185) 
-2.57693

>  <r_i_glide_erotb>  (185) 
0

>  <r_i_glide_esite>  (185) 
0

>  <r_i_glide_emodel>  (185) 
-22.7093

>  <r_i_glide_energy>  (185) 
-17.6768

>  <r_i_glide_einternal>  (185) 
0.46778

>  <r_i_glide_intrahb_reward>  (185) 
-0

>  <i_i_glide_confnum>  (185) 
1

>  <i_i_glide_posenum>  (185) 
14

>  <r_i_glide_eff_state_penalty>  (185) 
0

>  <ligand_id>  (185) 
58

>  <original_smiles>  (185) 
CC=C1CN2C3CCOC4OC5CC1C(CC)(C43)C52

>  <smiles>  (185) 
[H]C(=C1C2([H])C([H])([H])C3([H])OC4([H])OC([H])([H])C([H])([H])C5([H])C4([H])C2(C([H])([H])C([H])([H])[H])C3([H])[N+]5([H])C1([H])[H])C([H])([H])[H]

$$$$
58:1:0
     RDKit          3D

 42 46  0  0  1  0  0  0  0  0999 V2000
    2.7051   -2.5560   -3.8427 C   0  0  0  0  0  0  0  0  0  0  0  0
    3.8080   -2.3362   -2.8286 C   0  0  0  0  0  0  0  0  0  0  0  0
    3.8259   -2.7375   -1.5522 C   0  0  0  0  0  0  0  0  0  0  0  0
    2.6456   -3.5641   -0.7545 C   0  0  0  0  0  0  0  0  0  0  0  0
    3.1038   -4.4377    0.4440 N   0  0  0  0  0  0  0  0  0  0  0  0
    3.1164   -4.0949    1.8690 C   0  0  2  0  0  0  0  0  0  0  0  0
    2.2209   -4.3741    3.0682 C   0  0  0  0  0  0  0  0  0  0  0  0
    3.2210   -4.3111    4.2984 C   0  0  0  0  0  0  0  0  0  0  0  0
    4.6554   -4.3895    3.9760 O   0  0  0  0  0  0  0  0  0  0  0  0
    5.2220   -3.5352    2.9765 C   0  0  1  0  0  0  0  0  0  0  0  0
    6.1263   -4.2070    2.1235 O   0  0  0  0  0  0  0  0  0  0  0  0
    5.7472   -4.4634    0.7565 C   0  0  2  0  0  0  0  0  0  0  0  0
    6.3047   -3.3954   -0.2482 C   0  0  0  0  0  0  0  0  0  0  0  0
    5.0804   -2.4016   -0.5697 C   0  0  2  0  0  0  0  0  0  0  0  0
    4.4177   -2.3082    0.7912 C   0  0  2  0  0  0  0  0  0  0  0  0
    3.3221   -1.1637    0.7050 C   0  0  0  0  0  0  0  0  0  0  0  0
    3.7981    0.1367    1.3626 C   0  0  0  0  0  0  0  0  0  0  0  0
    4.0790   -2.9496    2.1549 C   0  0  1  0  0  0  0  0  0  0  0  0
    4.4058   -3.9447    0.4144 C   0  0  2  0  0  0  0  0  0  0  0  0
    2.3879   -1.5897   -4.2360 H   0  0  0  0  0  0  0  0  0  0  0  0
    1.8373   -3.0544   -3.4108 H   0  0  0  0  0  0  0  0  0  0  0  0
    3.0790   -3.1498   -4.6783 H   0  0  0  0  0  0  0  0  0  0  0  0
    4.6818   -1.8150   -3.2015 H   0  0  0  0  0  0  0  0  0  0  0  0
    1.8339   -2.8933   -0.4493 H   0  0  0  0  0  0  0  0  0  0  0  0
    2.2074   -4.2097   -1.5150 H   0  0  0  0  0  0  0  0  0  0  0  0
    3.6545   -5.0022    2.1420 H   0  0  0  0  0  0  0  0  0  0  0  0
    1.4227   -3.6357    3.1843 H   0  0  0  0  0  0  0  0  0  0  0  0
    1.7504   -5.3590    2.9952 H   0  0  0  0  0  0  0  0  0  0  0  0
    3.0652   -3.3933    4.8668 H   0  0  0  0  0  0  0  0  0  0  0  0
    3.0172   -5.1265    4.9911 H   0  0  0  0  0  0  0  0  0  0  0  0
    5.7743   -2.7381    3.4800 H   0  0  0  0  0  0  0  0  0  0  0  0
    5.9252   -5.5013    0.4527 H   0  0  0  0  0  0  0  0  0  0  0  0
    7.1321   -2.8570    0.2192 H   0  0  0  0  0  0  0  0  0  0  0  0
    6.6658   -3.8531   -1.1735 H   0  0  0  0  0  0  0  0  0  0  0  0
    5.4823   -1.4280   -0.8681 H   0  0  0  0  0  0  0  0  0  0  0  0
    3.0339   -0.8619   -0.2973 H   0  0  0  0  0  0  0  0  0  0  0  0
    2.3761   -1.4606    1.1636 H   0  0  0  0  0  0  0  0  0  0  0  0
    3.0367    0.9140    1.2809 H   0  0  0  0  0  0  0  0  0  0  0  0
    4.6989    0.5089    0.8716 H   0  0  0  0  0  0  0  0  0  0  0  0
    4.0180    0.0047    2.4231 H   0  0  0  0  0  0  0  0  0  0  0  0
    3.5903   -2.2258    2.8092 H   0  0  0  0  0  0  0  0  0  0  0  0
    4.5710   -4.5036   -0.5461 H   0  0  0  0  0  0  0  0  0  0  0  0
  1  2  1  0
  1 20  1  0
  1 21  1  0
  1 22  1  0
  2  3  2  3
  2 23  1  0
  3 14  1  0
  3  4  1  0
  4  5  1  0
  4 24  1  0
  4 25  1  0
  5 19  1  0
  5  6  1  0
  6 18  1  0
  6  7  1  0
  6 26  1  1
  7  8  1  0
  7 27  1  0
  7 28  1  0
  8  9  1  0
  8 29  1  0
  8 30  1  0
  9 10  1  0
 10 18  1  0
 10 11  1  0
 10 31  1  1
 11 12  1  0
 12 19  1  0
 12 13  1  0
 12 32  1  6
 13 14  1  0
 13 33  1  0
 13 34  1  0
 14 15  1  0
 14 35  1  6
 15 16  1  1
 15 18  1  0
 15 19  1  0
 16 17  1  0
 16 36  1  0
 16 37  1  0
 17 38  1  0
 17 39  1  0
 17 40  1  0
 18 41  1  1
 19 42  1  6
M  END
>  <i_m_ct_stereo_status>  (186) 
1

>  <s_m_source_file>  (186) 
/var/tmp/pbs.5076255.sched01/tmpi5tju4vo/80qzp1lgse.sdf

>  <i_m_source_file_index>  (186) 
1

>  <i_lp_mmshare_version>  (186) 
48012

>  <i_f3d_flags>  (186) 
0

>  <s_epik_input>  (186) 
W0NIM11bQ0gyXVtDQEBdMTJbQ0BASF0zQyg9W0NIXVxbQ0gzXSkvW0NIMl1ONFtDQEhdNVtDQEhdMVtDSF0oT1tDSDJdW0NIMl01KU9bQ0BIXShbQ0gyXTMpW0NASF0yNA==

>  <s_epik_cmdline>  (186) 
J2VwaWtfcHl0aG9uJywgJy1waHQnLCAnMi4wJywgJy1waCcsICc3LjAnLCAnLXRuJywgJzgnLCAnLW1hJywgJzIwMCcsICctaW1hZScsICc8aW5maWxlLm1hZT4nLCAnLW9tYWUnLCAnPG91dGZpbGUubWFlPic=

>  <r_epik_Ionization_Penalty>  (186) 
1.18152

>  <r_epik_Ionization_Penalty_Charging>  (186) 
0

>  <r_epik_Ionization_Penalty_Neutral>  (186) 
1.18152

>  <r_epik_State_Penalty>  (186) 
1.24548

>  <r_epik_Charging_Adjusted_Penalty>  (186) 
1.24548

>  <i_epik_Tot_Q>  (186) 
0

>  <i_epik_Tot_abs_Q>  (186) 
0

>  <s_epik_Chemistry_Notes>  (186) 
This compound contains an acetal/aminal-like group ( X-CH(R)-Y where X, Y are N, S, or O) that may be acid/base labile, releasing an aldehyde.

>  <s_lp_Force_Field>  (186) 
OPLS3e

>  <r_lp_Energy>  (186) 
288.832

>  <b_lp_Chiralities_Consistent>  (186) 
1

>  <s_lp_Variant>  (186) 
58:0-2

>  <s_i_glide_gridfile>  (186) 
pfpi4k_grid

>  <i_i_glide_lignum>  (186) 
1

>  <i_i_glide_rotatable_bonds>  (186) 
1

>  <r_i_docking_score>  (186) 
-3.06943

>  <r_i_glide_ligand_efficiency>  (186) 
-0.161549

>  <r_i_glide_ligand_efficiency_sa>  (186) 
-0.431077

>  <r_i_glide_ligand_efficiency_ln>  (186) 
-0.778165

>  <r_i_glide_gscore>  (186) 
-3.06943

>  <r_i_glide_lipo>  (186) 
-0.494475

>  <r_i_glide_hbond>  (186) 
0

>  <r_i_glide_metal>  (186) 
-0

>  <r_i_glide_rewards>  (186) 
-1.67993

>  <r_i_glide_evdw>  (186) 
-16.4634

>  <r_i_glide_ecoul>  (186) 
-0.479045

>  <r_i_glide_erotb>  (186) 
0

>  <r_i_glide_esite>  (186) 
0

>  <r_i_glide_emodel>  (186) 
-19.5602

>  <r_i_glide_energy>  (186) 
-16.9424

>  <r_i_glide_einternal>  (186) 
0.00276021

>  <r_i_glide_intrahb_reward>  (186) 
-0

>  <i_i_glide_confnum>  (186) 
2

>  <i_i_glide_posenum>  (186) 
5

>  <r_i_glide_eff_state_penalty>  (186) 
0

>  <ligand_id>  (186) 
58

>  <original_smiles>  (186) 
CC=C1CN2C3CCOC4OC5CC1C(CC)(C43)C52

>  <smiles>  (186) 
[H]C(=C1C([H])([H])N2C3([H])C([H])([H])C([H])([H])OC4([H])OC5([H])C([H])([H])C1([H])C(C([H])([H])C([H])([H])[H])(C25[H])C43[H])C([H])([H])[H]

$$$$
58:1:1
     RDKit          3D

 42 46  0  0  1  0  0  0  0  0999 V2000
    2.9590   -0.2840   -4.9347 C   0  0  0  0  0  0  0  0  0  0  0  0
    4.0861   -0.8792   -4.1539 C   0  0  0  0  0  0  0  0  0  0  0  0
    4.0451   -1.6575   -3.0392 C   0  0  0  0  0  0  0  0  0  0  0  0
    2.6937   -2.2049   -2.3429 C   0  0  0  0  0  0  0  0  0  0  0  0
    2.8140   -3.5050   -1.4726 N   0  0  0  0  0  0  0  0  0  0  0  0
    3.0606   -3.7067   -0.0393 C   0  0  2  0  0  0  0  0  0  0  0  0
    2.2239   -4.0592    1.1745 C   0  0  0  0  0  0  0  0  0  0  0  0
    3.2289   -4.7536    2.1683 C   0  0  0  0  0  0  0  0  0  0  0  0
    4.4796   -5.2192    1.5689 O   0  0  0  0  0  0  0  0  0  0  0  0
    5.2775   -4.3280    0.7943 C   0  0  1  0  0  0  0  0  0  0  0  0
    5.7827   -4.9510   -0.3549 O   0  0  0  0  0  0  0  0  0  0  0  0
    5.2522   -4.5749   -1.6454 C   0  0  2  0  0  0  0  0  0  0  0  0
    6.1173   -3.5164   -2.4226 C   0  0  0  0  0  0  0  0  0  0  0  0
    5.3690   -2.1214   -2.2346 C   0  0  2  0  0  0  0  0  0  0  0  0
    4.8981   -2.2570   -0.7881 C   0  0  2  0  0  0  0  0  0  0  0  0
    4.3390   -0.8588   -0.3557 C   0  0  0  0  0  0  0  0  0  0  0  0
    5.2677   -0.1621    0.6439 C   0  0  0  0  0  0  0  0  0  0  0  0
    4.4062   -3.1481    0.3757 C   0  0  1  0  0  0  0  0  0  0  0  0
    4.2017   -3.5306   -1.5958 C   0  0  2  0  0  0  0  0  0  0  0  0
    3.0326    0.8061   -4.9367 H   0  0  0  0  0  0  0  0  0  0  0  0
    1.9817   -0.5852   -4.5747 H   0  0  0  0  0  0  0  0  0  0  0  0
    3.0661   -0.6233   -5.9628 H   0  0  0  0  0  0  0  0  0  0  0  0
    5.0191   -0.6519   -4.5863 H   0  0  0  0  0  0  0  0  0  0  0  0
    2.2479   -1.3424   -1.8883 H   0  0  0  0  0  0  0  0  0  0  0  0
    2.0082   -2.4052   -3.1585 H   0  0  0  0  0  0  0  0  0  0  0  0
    3.2130   -4.7824   -0.1486 H   0  0  0  0  0  0  0  0  0  0  0  0
    1.8011   -3.1681    1.6310 H   0  0  0  0  0  0  0  0  0  0  0  0
    1.4158   -4.7698    0.9315 H   0  0  0  0  0  0  0  0  0  0  0  0
    3.4758   -4.0872    2.9959 H   0  0  0  0  0  0  0  0  0  0  0  0
    2.7583   -5.6286    2.6134 H   0  0  0  0  0  0  0  0  0  0  0  0
    6.1415   -4.0062    1.3756 H   0  0  0  0  0  0  0  0  0  0  0  0
    4.9775   -5.4389   -2.2469 H   0  0  0  0  0  0  0  0  0  0  0  0
    7.1207   -3.4814   -2.0040 H   0  0  0  0  0  0  0  0  0  0  0  0
    6.1967   -3.7646   -3.4818 H   0  0  0  0  0  0  0  0  0  0  0  0
    6.1099   -1.3336   -2.3101 H   0  0  0  0  0  0  0  0  0  0  0  0
    4.2382   -0.1558   -1.1751 H   0  0  0  0  0  0  0  0  0  0  0  0
    3.3407   -0.9174    0.0853 H   0  0  0  0  0  0  0  0  0  0  0  0
    4.8445    0.8138    0.8715 H   0  0  0  0  0  0  0  0  0  0  0  0
    6.2585    0.0008    0.2213 H   0  0  0  0  0  0  0  0  0  0  0  0
    5.3891   -0.7062    1.5822 H   0  0  0  0  0  0  0  0  0  0  0  0
    4.2706   -2.5664    1.2872 H   0  0  0  0  0  0  0  0  0  0  0  0
    4.1016   -3.7881   -2.6859 H   0  0  0  0  0  0  0  0  0  0  0  0
  1  2  1  0
  1 20  1  0
  1 21  1  0
  1 22  1  0
  2  3  2  3
  2 23  1  0
  3 14  1  0
  3  4  1  0
  4  5  1  0
  4 24  1  0
  4 25  1  0
  5 19  1  0
  5  6  1  0
  6 18  1  0
  6  7  1  0
  6 26  1  6
  7  8  1  0
  7 27  1  0
  7 28  1  0
  8  9  1  0
  8 29  1  0
  8 30  1  0
  9 10  1  0
 10 18  1  0
 10 11  1  0
 10 31  1  1
 11 12  1  0
 12 19  1  0
 12 13  1  0
 12 32  1  6
 13 14  1  0
 13 33  1  0
 13 34  1  0
 14 15  1  0
 14 35  1  1
 15 16  1  1
 15 18  1  0
 15 19  1  0
 16 17  1  0
 16 36  1  0
 16 37  1  0
 17 38  1  0
 17 39  1  0
 17 40  1  0
 18 41  1  1
 19 42  1  6
M  END
>  <i_m_ct_stereo_status>  (187) 
1

>  <s_m_source_file>  (187) 
/var/tmp/pbs.5076255.sched01/tmpi5tju4vo/80qzp1lgse.sdf

>  <i_m_source_file_index>  (187) 
1

>  <i_lp_mmshare_version>  (187) 
48012

>  <i_f3d_flags>  (187) 
0

>  <s_epik_input>  (187) 
W0NIM11bQ0gyXVtDQEBdMTJbQ0BASF0zQyg9W0NIXVxbQ0gzXSkvW0NIMl1ONFtDQEhdNVtDQEhdMVtDSF0oT1tDSDJdW0NIMl01KU9bQ0BIXShbQ0gyXTMpW0NASF0yNA==

>  <s_epik_cmdline>  (187) 
J2VwaWtfcHl0aG9uJywgJy1waHQnLCAnMi4wJywgJy1waCcsICc3LjAnLCAnLXRuJywgJzgnLCAnLW1hJywgJzIwMCcsICctaW1hZScsICc8aW5maWxlLm1hZT4nLCAnLW9tYWUnLCAnPG91dGZpbGUubWFlPic=

>  <r_epik_Ionization_Penalty>  (187) 
1.18152

>  <r_epik_Ionization_Penalty_Charging>  (187) 
0

>  <r_epik_Ionization_Penalty_Neutral>  (187) 
1.18152

>  <r_epik_State_Penalty>  (187) 
1.24548

>  <r_epik_Charging_Adjusted_Penalty>  (187) 
1.24548

>  <i_epik_Tot_Q>  (187) 
0

>  <i_epik_Tot_abs_Q>  (187) 
0

>  <s_epik_Chemistry_Notes>  (187) 
This compound contains an acetal/aminal-like group ( X-CH(R)-Y where X, Y are N, S, or O) that may be acid/base labile, releasing an aldehyde.

>  <s_lp_Force_Field>  (187) 
OPLS3e

>  <r_lp_Energy>  (187) 
288.832

>  <b_lp_Chiralities_Consistent>  (187) 
1

>  <s_lp_Variant>  (187) 
58:0-2

>  <s_i_glide_gridfile>  (187) 
pfpi4k_grid

>  <i_i_glide_lignum>  (187) 
1

>  <i_i_glide_rotatable_bonds>  (187) 
1

>  <r_i_docking_score>  (187) 
-2.88437

>  <r_i_glide_ligand_efficiency>  (187) 
-0.151809

>  <r_i_glide_ligand_efficiency_sa>  (187) 
-0.405087

>  <r_i_glide_ligand_efficiency_ln>  (187) 
-0.73125

>  <r_i_glide_gscore>  (187) 
-2.88437

>  <r_i_glide_lipo>  (187) 
-0.763028

>  <r_i_glide_hbond>  (187) 
0

>  <r_i_glide_metal>  (187) 
-0

>  <r_i_glide_rewards>  (187) 
-1.69753

>  <r_i_glide_evdw>  (187) 
-11.1618

>  <r_i_glide_ecoul>  (187) 
0.895176

>  <r_i_glide_erotb>  (187) 
0

>  <r_i_glide_esite>  (187) 
0

>  <r_i_glide_emodel>  (187) 
-12.1212

>  <r_i_glide_energy>  (187) 
-10.2666

>  <r_i_glide_einternal>  (187) 
0.0896218

>  <r_i_glide_intrahb_reward>  (187) 
-0

>  <i_i_glide_confnum>  (187) 
2

>  <i_i_glide_posenum>  (187) 
20

>  <r_i_glide_eff_state_penalty>  (187) 
0

>  <ligand_id>  (187) 
58

>  <original_smiles>  (187) 
CC=C1CN2C3CCOC4OC5CC1C(CC)(C43)C52

>  <smiles>  (187) 
[H]C(=C1C([H])([H])N2C3([H])C([H])([H])C([H])([H])OC4([H])OC5([H])C([H])([H])C1([H])C(C([H])([H])C([H])([H])[H])(C25[H])C43[H])C([H])([H])[H]

$$$$
58:1:2
     RDKit          3D

 42 46  0  0  1  0  0  0  0  0999 V2000
    3.1876   -0.9010   -3.8255 C   0  0  0  0  0  0  0  0  0  0  0  0
    4.1307   -0.8346   -2.6415 C   0  0  0  0  0  0  0  0  0  0  0  0
    4.1825   -1.6669   -1.5924 C   0  0  0  0  0  0  0  0  0  0  0  0
    3.2131   -2.9772   -1.3192 C   0  0  0  0  0  0  0  0  0  0  0  0
    3.8238   -4.1060   -0.4329 N   0  0  0  0  0  0  0  0  0  0  0  0
    3.6760   -4.3380    1.0046 C   0  0  2  0  0  0  0  0  0  0  0  0
    2.8267   -5.2488    1.8824 C   0  0  0  0  0  0  0  0  0  0  0  0
    3.7024   -5.4209    3.1941 C   0  0  0  0  0  0  0  0  0  0  0  0
    5.1153   -5.0348    3.0856 O   0  0  0  0  0  0  0  0  0  0  0  0
    5.4829   -3.7592    2.5485 C   0  0  1  0  0  0  0  0  0  0  0  0
    6.5792   -3.8385    1.6634 O   0  0  0  0  0  0  0  0  0  0  0  0
    6.3611   -3.6402    0.2545 C   0  0  2  0  0  0  0  0  0  0  0  0
    6.6664   -2.1830   -0.2361 C   0  0  0  0  0  0  0  0  0  0  0  0
    5.2411   -1.4486   -0.3744 C   0  0  2  0  0  0  0  0  0  0  0  0
    4.4996   -2.0252    0.8209 C   0  0  2  0  0  0  0  0  0  0  0  0
    3.1379   -1.2192    0.9700 C   0  0  0  0  0  0  0  0  0  0  0  0
    3.2103   -0.1827    2.0961 C   0  0  0  0  0  0  0  0  0  0  0  0
    4.2718   -3.1948    1.8105 C   0  0  1  0  0  0  0  0  0  0  0  0
    4.9393   -3.3512   -0.0865 C   0  0  2  0  0  0  0  0  0  0  0  0
    2.6314    0.0352   -3.8928 H   0  0  0  0  0  0  0  0  0  0  0  0
    2.4720   -1.7194   -3.7338 H   0  0  0  0  0  0  0  0  0  0  0  0
    3.7433   -1.0230   -4.7578 H   0  0  0  0  0  0  0  0  0  0  0  0
    4.8354   -0.0111   -2.6741 H   0  0  0  0  0  0  0  0  0  0  0  0
    2.2168   -2.6843   -0.9671 H   0  0  0  0  0  0  0  0  0  0  0  0
    3.0386   -3.3865   -2.3129 H   0  0  0  0  0  0  0  0  0  0  0  0
    4.4205   -5.1390    1.0095 H   0  0  0  0  0  0  0  0  0  0  0  0
    1.8601   -4.8069    2.1261 H   0  0  0  0  0  0  0  0  0  0  0  0
    2.6461   -6.2152    1.4080 H   0  0  0  0  0  0  0  0  0  0  0  0
    3.2671   -4.8507    4.0160 H   0  0  0  0  0  0  0  0  0  0  0  0
    3.6867   -6.4617    3.5192 H   0  0  0  0  0  0  0  0  0  0  0  0
    5.7738   -3.1051    3.3687 H   0  0  0  0  0  0  0  0  0  0  0  0
    6.8317   -4.4170   -0.3472 H   0  0  0  0  0  0  0  0  0  0  0  0
    7.2916   -1.6772    0.5008 H   0  0  0  0  0  0  0  0  0  0  0  0
    7.1956   -2.1976   -1.1916 H   0  0  0  0  0  0  0  0  0  0  0  0
    5.3864   -0.3716   -0.2544 H   0  0  0  0  0  0  0  0  0  0  0  0
    2.8449   -0.6403    0.1005 H   0  0  0  0  0  0  0  0  0  0  0  0
    2.2839   -1.8759    1.1476 H   0  0  0  0  0  0  0  0  0  0  0  0
    2.2734    0.3710    2.1706 H   0  0  0  0  0  0  0  0  0  0  0  0
    4.0013    0.5421    1.9034 H   0  0  0  0  0  0  0  0  0  0  0  0
    3.4012   -0.6433    3.0645 H   0  0  0  0  0  0  0  0  0  0  0  0
    3.5730   -2.9034    2.5961 H   0  0  0  0  0  0  0  0  0  0  0  0
    5.3078   -3.4662   -1.1417 H   0  0  0  0  0  0  0  0  0  0  0  0
  1  2  1  0
  1 20  1  0
  1 21  1  0
  1 22  1  0
  2  3  2  3
  2 23  1  0
  3 14  1  0
  3  4  1  0
  4  5  1  0
  4 24  1  0
  4 25  1  0
  5 19  1  0
  5  6  1  0
  6 18  1  0
  6  7  1  0
  6 26  1  1
  7  8  1  0
  7 27  1  0
  7 28  1  0
  8  9  1  0
  8 29  1  0
  8 30  1  0
  9 10  1  0
 10 18  1  0
 10 11  1  0
 10 31  1  1
 11 12  1  0
 12 19  1  0
 12 13  1  0
 12 32  1  6
 13 14  1  0
 13 33  1  0
 13 34  1  0
 14 15  1  0
 14 35  1  1
 15 16  1  1
 15 18  1  0
 15 19  1  0
 16 17  1  0
 16 36  1  0
 16 37  1  0
 17 38  1  0
 17 39  1  0
 17 40  1  0
 18 41  1  1
 19 42  1  6
M  END
>  <i_m_ct_stereo_status>  (188) 
1

>  <s_m_source_file>  (188) 
/var/tmp/pbs.5076255.sched01/tmpi5tju4vo/80qzp1lgse.sdf

>  <i_m_source_file_index>  (188) 
1

>  <i_lp_mmshare_version>  (188) 
48012

>  <i_f3d_flags>  (188) 
0

>  <s_epik_input>  (188) 
W0NIM11bQ0gyXVtDQEBdMTJbQ0BASF0zQyg9W0NIXVxbQ0gzXSkvW0NIMl1ONFtDQEhdNVtDQEhdMVtDSF0oT1tDSDJdW0NIMl01KU9bQ0BIXShbQ0gyXTMpW0NASF0yNA==

>  <s_epik_cmdline>  (188) 
J2VwaWtfcHl0aG9uJywgJy1waHQnLCAnMi4wJywgJy1waCcsICc3LjAnLCAnLXRuJywgJzgnLCAnLW1hJywgJzIwMCcsICctaW1hZScsICc8aW5maWxlLm1hZT4nLCAnLW9tYWUnLCAnPG91dGZpbGUubWFlPic=

>  <r_epik_Ionization_Penalty>  (188) 
1.18152

>  <r_epik_Ionization_Penalty_Charging>  (188) 
0

>  <r_epik_Ionization_Penalty_Neutral>  (188) 
1.18152

>  <r_epik_State_Penalty>  (188) 
1.24548

>  <r_epik_Charging_Adjusted_Penalty>  (188) 
1.24548

>  <i_epik_Tot_Q>  (188) 
0

>  <i_epik_Tot_abs_Q>  (188) 
0

>  <s_epik_Chemistry_Notes>  (188) 
This compound contains an acetal/aminal-like group ( X-CH(R)-Y where X, Y are N, S, or O) that may be acid/base labile, releasing an aldehyde.

>  <s_lp_Force_Field>  (188) 
OPLS3e

>  <r_lp_Energy>  (188) 
288.832

>  <b_lp_Chiralities_Consistent>  (188) 
1

>  <s_lp_Variant>  (188) 
58:0-2

>  <s_i_glide_gridfile>  (188) 
pfpi4k_grid

>  <i_i_glide_lignum>  (188) 
1

>  <i_i_glide_rotatable_bonds>  (188) 
1

>  <r_i_docking_score>  (188) 
-2.83797

>  <r_i_glide_ligand_efficiency>  (188) 
-0.149367

>  <r_i_glide_ligand_efficiency_sa>  (188) 
-0.39857

>  <r_i_glide_ligand_efficiency_ln>  (188) 
-0.719486

>  <r_i_glide_gscore>  (188) 
-2.83797

>  <r_i_glide_lipo>  (188) 
-0.409931

>  <r_i_glide_hbond>  (188) 
0

>  <r_i_glide_metal>  (188) 
-0

>  <r_i_glide_rewards>  (188) 
-1.66427

>  <r_i_glide_evdw>  (188) 
-16.9419

>  <r_i_glide_ecoul>  (188) 
0.555518

>  <r_i_glide_erotb>  (188) 
0

>  <r_i_glide_esite>  (188) 
0

>  <r_i_glide_emodel>  (188) 
-18.7001

>  <r_i_glide_energy>  (188) 
-16.3864

>  <r_i_glide_einternal>  (188) 
0.00221813

>  <r_i_glide_intrahb_reward>  (188) 
-0

>  <i_i_glide_confnum>  (188) 
1

>  <i_i_glide_posenum>  (188) 
9

>  <r_i_glide_eff_state_penalty>  (188) 
0

>  <ligand_id>  (188) 
58

>  <original_smiles>  (188) 
CC=C1CN2C3CCOC4OC5CC1C(CC)(C43)C52

>  <smiles>  (188) 
[H]C(=C1C([H])([H])N2C3([H])C([H])([H])C([H])([H])OC4([H])OC5([H])C([H])([H])C1([H])C(C([H])([H])C([H])([H])[H])(C25[H])C43[H])C([H])([H])[H]

$$$$
60:0:0
     RDKit          3D

 63 65  0  0  1  0  0  0  0  0999 V2000
    3.7785   -0.0734   -3.4631 C   0  0  0  0  0  0  0  0  0  0  0  0
    4.5156   -0.7411   -2.3228 C   0  0  0  0  0  0  0  0  0  0  0  0
    3.9256   -1.3298   -1.2693 C   0  0  0  0  0  0  0  0  0  0  0  0
    4.6676   -2.0150   -0.1291 C   0  0  2  0  0  0  0  0  0  0  0  0
    4.1014   -3.4177    0.1094 C   0  0  0  0  0  0  0  0  0  0  0  0
    4.5054   -4.4664   -0.7224 N   0  0  0  0  0  0  0  0  0  0  0  0
    4.6491   -5.8277   -0.2322 C   0  0  0  0  0  0  0  0  0  0  0  0
    5.1539   -4.2478   -2.0029 C   0  0  0  0  0  0  0  0  0  0  0  0
    3.2975   -3.4644    1.1763 C   0  0  0  0  0  0  0  0  0  0  0  0
    3.3009   -2.1820    1.8202 C   0  0  0  0  0  0  0  0  0  0  0  0
    2.4603   -1.7163    2.7688 C   0  0  0  0  0  0  0  0  0  0  0  0
    2.5898   -0.3422    3.2539 C   0  0  0  0  0  0  0  0  0  0  0  0
    1.6444    0.1154    4.1146 C   0  0  0  0  0  0  0  0  0  0  0  0
    1.5970    1.4738    4.7735 C   0  0  0  0  0  0  0  0  0  0  0  0
    1.4001    2.6611    3.7815 C   0  0  0  0  0  0  0  0  0  0  0  0
    1.8216    4.0104    4.3183 N   0  0  0  0  0  0  0  0  0  0  0  0
    3.3247    4.0442    4.4810 C   0  0  0  0  0  0  0  0  0  0  0  0
    3.9700    5.3852    4.9243 C   0  0  0  0  0  0  0  0  0  0  0  0
    1.1683    4.3023    5.6488 C   0  0  0  0  0  0  0  0  0  0  0  0
   -0.3434    4.5134    5.5023 C   0  0  0  0  0  0  0  0  0  0  0  0
   -0.5783    5.5779    4.5894 O   0  0  0  0  0  0  0  0  0  0  0  0
   -0.1113    5.2767    3.2808 C   0  0  0  0  0  0  0  0  0  0  0  0
    1.4090    5.0593    3.3285 C   0  0  0  0  0  0  0  0  0  0  0  0
    3.7765    0.5169    2.7733 C   0  0  0  0  0  0  0  0  0  0  0  0
    4.1421    0.1455    1.3189 C   0  0  0  0  0  0  0  0  0  0  0  0
    4.4233   -1.3538    1.2438 C   0  0  2  0  0  0  0  0  0  0  0  0
    4.0784    0.9706   -3.5321 H   0  0  0  0  0  0  0  0  0  0  0  0
    2.6974   -0.1069   -3.3121 H   0  0  0  0  0  0  0  0  0  0  0  0
    4.0086   -0.5610   -4.4107 H   0  0  0  0  0  0  0  0  0  0  0  0
    5.5914   -0.7439   -2.3705 H   0  0  0  0  0  0  0  0  0  0  0  0
    2.8483   -1.3376   -1.2019 H   0  0  0  0  0  0  0  0  0  0  0  0
    5.7354   -2.0538   -0.3495 H   0  0  0  0  0  0  0  0  0  0  0  0
    3.8947   -6.1088    0.5020 H   0  0  0  0  0  0  0  0  0  0  0  0
    5.6313   -5.9522    0.2232 H   0  0  0  0  0  0  0  0  0  0  0  0
    4.5869   -6.5405   -1.0523 H   0  0  0  0  0  0  0  0  0  0  0  0
    4.7553   -3.3853   -2.5263 H   0  0  0  0  0  0  0  0  0  0  0  0
    5.0098   -5.0942   -2.6688 H   0  0  0  0  0  0  0  0  0  0  0  0
    6.2185   -4.0947   -1.8470 H   0  0  0  0  0  0  0  0  0  0  0  0
    2.7816   -4.3402    1.5610 H   0  0  0  0  0  0  0  0  0  0  0  0
    1.6693   -2.3598    3.1297 H   0  0  0  0  0  0  0  0  0  0  0  0
    0.8716   -0.5607    4.4358 H   0  0  0  0  0  0  0  0  0  0  0  0
    0.7512    1.4540    5.4621 H   0  0  0  0  0  0  0  0  0  0  0  0
    2.4634    1.5412    5.4278 H   0  0  0  0  0  0  0  0  0  0  0  0
    1.8823    2.5153    2.8153 H   0  0  0  0  0  0  0  0  0  0  0  0
    0.3320    2.6217    3.5060 H   0  0  0  0  0  0  0  0  0  0  0  0
    3.6691    3.2986    5.1986 H   0  0  0  0  0  0  0  0  0  0  0  0
    3.7901    3.7565    3.5375 H   0  0  0  0  0  0  0  0  0  0  0  0
    5.0528    5.2680    5.0317 H   0  0  0  0  0  0  0  0  0  0  0  0
    3.6056    5.7244    5.8961 H   0  0  0  0  0  0  0  0  0  0  0  0
    3.8183    6.1911    4.2026 H   0  0  0  0  0  0  0  0  0  0  0  0
    1.3686    3.5154    6.3781 H   0  0  0  0  0  0  0  0  0  0  0  0
    1.5490    5.2110    6.1134 H   0  0  0  0  0  0  0  0  0  0  0  0
   -0.8685    3.6078    5.1832 H   0  0  0  0  0  0  0  0  0  0  0  0
   -0.7496    4.7977    6.4761 H   0  0  0  0  0  0  0  0  0  0  0  0
   -0.6611    4.4234    2.8866 H   0  0  0  0  0  0  0  0  0  0  0  0
   -0.3165    6.1191    2.6175 H   0  0  0  0  0  0  0  0  0  0  0  0
    1.8126    6.0449    3.5526 H   0  0  0  0  0  0  0  0  0  0  0  0
    1.7963    4.7949    2.3380 H   0  0  0  0  0  0  0  0  0  0  0  0
    3.5857    1.5764    2.7761 H   0  0  0  0  0  0  0  0  0  0  0  0
    4.6279    0.3369    3.4481 H   0  0  0  0  0  0  0  0  0  0  0  0
    3.3004    0.4085    0.6802 H   0  0  0  0  0  0  0  0  0  0  0  0
    5.0019    0.6882    0.9357 H   0  0  0  0  0  0  0  0  0  0  0  0
    5.2991   -1.5454    1.8666 H   0  0  0  0  0  0  0  0  0  0  0  0
  1  2  1  0
  1 27  1  0
  1 28  1  0
  1 29  1  0
  2  3  2  3
  2 30  1  0
  3  4  1  0
  3 31  1  0
  4 26  1  0
  4  5  1  0
  4 32  1  6
  5  6  1  0
  5  9  2  0
  6  7  1  0
  6  8  1  0
  7 33  1  0
  7 34  1  0
  7 35  1  0
  8 36  1  0
  8 37  1  0
  8 38  1  0
  9 10  1  0
  9 39  1  0
 10 26  1  0
 10 11  2  0
 11 12  1  0
 11 40  1  0
 12 13  2  3
 12 24  1  0
 13 14  1  0
 13 41  1  0
 14 15  1  0
 14 42  1  0
 14 43  1  0
 15 16  1  0
 15 44  1  0
 15 45  1  0
 16 23  1  0
 16 17  1  0
 16 19  1  0
 17 18  1  0
 17 46  1  0
 17 47  1  0
 18 48  1  0
 18 49  1  0
 18 50  1  0
 19 20  1  0
 19 51  1  0
 19 52  1  0
 20 21  1  0
 20 53  1  0
 20 54  1  0
 21 22  1  0
 22 23  1  0
 22 55  1  0
 22 56  1  0
 23 57  1  0
 23 58  1  0
 24 25  1  0
 24 59  1  0
 24 60  1  0
 25 26  1  0
 25 61  1  0
 25 62  1  0
 26 63  1  1
M  CHG  1  16   1
M  END
>  <i_m_ct_stereo_status>  (189) 
1

>  <s_m_source_file>  (189) 
/var/tmp/pbs.5076255.sched01/tmpi5tju4vo/80qzp1lgse.sdf

>  <i_m_source_file_index>  (189) 
3

>  <i_lp_mmshare_version>  (189) 
48012

>  <i_f3d_flags>  (189) 
0

>  <s_epik_input>  (189) 
W0NIM10vW0NIXT1bQ0hdL1tDQEhdKEMoPVtDSF0xKU4oW0NIM10pW0NIM10pW0NASF0oQzE9MilbQ0gyXVtDSDJdQyhcW0NIXTIpPVtDSF0vW0NIMl1bQ0gyXVtOK10zKFtDSDJdW0NIM10pW0NIMl1bQ0gyXU9bQ0gyXVtDSDJdMw==

>  <s_epik_cmdline>  (189) 
J2VwaWtfcHl0aG9uJywgJy1waHQnLCAnMi4wJywgJy1waCcsICc3LjAnLCAnLXRuJywgJzgnLCAnLW1hJywgJzIwMCcsICctaW1hZScsICc8aW5maWxlLm1hZT4nLCAnLW9tYWUnLCAnPG91dGZpbGUubWFlPic=

>  <r_epik_Ionization_Penalty>  (189) 
0.00454615

>  <r_epik_Ionization_Penalty_Charging>  (189) 
0

>  <r_epik_Ionization_Penalty_Neutral>  (189) 
0.00454615

>  <r_epik_State_Penalty>  (189) 
0.003282

>  <r_epik_Charging_Adjusted_Penalty>  (189) 
0.003282

>  <i_epik_Tot_Q>  (189) 
1

>  <i_epik_Tot_abs_Q>  (189) 
1

>  <s_lp_Force_Field>  (189) 
OPLS3e

>  <r_lp_Energy>  (189) 
20.9351

>  <b_lp_Chiralities_Consistent>  (189) 
1

>  <s_lp_Variant>  (189) 
60:0-1

>  <s_i_glide_gridfile>  (189) 
pfpi4k_grid

>  <i_i_glide_lignum>  (189) 
3

>  <i_i_glide_rotatable_bonds>  (189) 
6

>  <r_i_docking_score>  (189) 
-2.06389

>  <r_i_glide_ligand_efficiency>  (189) 
-0.0793806

>  <r_i_glide_ligand_efficiency_sa>  (189) 
-0.235165

>  <r_i_glide_ligand_efficiency_ln>  (189) 
-0.484699

>  <r_i_glide_gscore>  (189) 
-2.06389

>  <r_i_glide_lipo>  (189) 
-0.17307

>  <r_i_glide_hbond>  (189) 
-0.0326667

>  <r_i_glide_metal>  (189) 
-0

>  <r_i_glide_rewards>  (189) 
-0.971232

>  <r_i_glide_evdw>  (189) 
-19.604

>  <r_i_glide_ecoul>  (189) 
-3.11391

>  <r_i_glide_erotb>  (189) 
0.599025

>  <r_i_glide_esite>  (189) 
-0.0386637

>  <r_i_glide_emodel>  (189) 
-20.4728

>  <r_i_glide_energy>  (189) 
-22.7179

>  <r_i_glide_einternal>  (189) 
9.25411

>  <r_i_glide_intrahb_reward>  (189) 
-0

>  <i_i_glide_confnum>  (189) 
5

>  <i_i_glide_posenum>  (189) 
37

>  <r_i_glide_eff_state_penalty>  (189) 
0

>  <ligand_id>  (189) 
60

>  <original_smiles>  (189) 
CC=CC1C(N(C)C)=CC2=CC(=CCC[N+]3(CC)CCOCC3)CCC21

>  <smiles>  (189) 
[H]C1=C(N(C([H])([H])[H])C([H])([H])[H])C([H])(C([H])=C([H])C([H])([H])[H])C2([H])C1=C([H])C(=C([H])C([H])([H])C([H])([H])[N+]1(C([H])([H])C([H])([H])[H])C([H])([H])C([H])([H])OC([H])([H])C1([H])[H])C([H])([H])C2([H])[H]

$$$$
60:0:1
     RDKit          3D

 63 65  0  0  1  0  0  0  0  0999 V2000
   -1.9303   -8.9587    2.2840 C   0  0  0  0  0  0  0  0  0  0  0  0
   -0.6708   -8.7473    3.0627 C   0  0  0  0  0  0  0  0  0  0  0  0
    0.4981   -9.3571    2.7861 C   0  0  0  0  0  0  0  0  0  0  0  0
    1.8118   -9.1539    3.5420 C   0  0  2  0  0  0  0  0  0  0  0  0
    1.5899   -8.4291    4.8755 C   0  0  0  0  0  0  0  0  0  0  0  0
    1.0972   -9.0994    5.9688 N   0  0  0  0  0  0  0  0  0  0  0  0
    0.6268  -10.4714    5.8892 C   0  0  0  0  0  0  0  0  0  0  0  0
    0.4495   -8.4082    7.0722 C   0  0  0  0  0  0  0  0  0  0  0  0
    1.9149   -7.1259    4.7971 C   0  0  0  0  0  0  0  0  0  0  0  0
    2.5026   -6.8726    3.5286 C   0  0  0  0  0  0  0  0  0  0  0  0
    2.7368   -5.6887    2.9757 C   0  0  0  0  0  0  0  0  0  0  0  0
    3.2738   -5.5813    1.6371 C   0  0  0  0  0  0  0  0  0  0  0  0
    3.4493   -4.3581    1.1110 C   0  0  0  0  0  0  0  0  0  0  0  0
    4.0673   -4.0165   -0.2229 C   0  0  0  0  0  0  0  0  0  0  0  0
    3.1988   -3.0222   -1.0455 C   0  0  0  0  0  0  0  0  0  0  0  0
    3.7313   -2.6812   -2.4220 N   0  0  0  0  0  0  0  0  0  0  0  0
    3.7371   -3.9063   -3.2475 C   0  0  0  0  0  0  0  0  0  0  0  0
    4.3244   -3.8990   -4.6121 C   0  0  0  0  0  0  0  0  0  0  0  0
    5.1089   -2.1068   -2.3485 C   0  0  0  0  0  0  0  0  0  0  0  0
    5.0725   -0.6925   -1.7913 C   0  0  0  0  0  0  0  0  0  0  0  0
    4.3240    0.0642   -2.7375 O   0  0  0  0  0  0  0  0  0  0  0  0
    2.9624   -0.3503   -2.7147 C   0  0  0  0  0  0  0  0  0  0  0  0
    2.8371   -1.7467   -3.1762 C   0  0  0  0  0  0  0  0  0  0  0  0
    3.6555   -6.8784    0.8969 C   0  0  0  0  0  0  0  0  0  0  0  0
    2.7655   -8.0658    1.3058 C   0  0  0  0  0  0  0  0  0  0  0  0
    2.7863   -8.1986    2.8284 C   0  0  2  0  0  0  0  0  0  0  0  0
   -2.6860   -9.3629    2.9444 H   0  0  0  0  0  0  0  0  0  0  0  0
   -1.7506   -9.6556    1.4725 H   0  0  0  0  0  0  0  0  0  0  0  0
   -2.2784   -8.0081    1.8908 H   0  0  0  0  0  0  0  0  0  0  0  0
   -0.7739   -8.0531    3.8845 H   0  0  0  0  0  0  0  0  0  0  0  0
    0.5431  -10.0621    1.9642 H   0  0  0  0  0  0  0  0  0  0  0  0
    2.2642  -10.1361    3.7028 H   0  0  0  0  0  0  0  0  0  0  0  0
    1.3667  -11.1815    5.4759 H   0  0  0  0  0  0  0  0  0  0  0  0
   -0.1728  -10.4797    5.1729 H   0  0  0  0  0  0  0  0  0  0  0  0
    0.1637  -10.7573    6.8356 H   0  0  0  0  0  0  0  0  0  0  0  0
    0.9028   -7.4568    7.3429 H   0  0  0  0  0  0  0  0  0  0  0  0
    0.3543   -9.0517    7.9647 H   0  0  0  0  0  0  0  0  0  0  0  0
   -0.5141   -8.1407    6.6734 H   0  0  0  0  0  0  0  0  0  0  0  0
    1.8048   -6.3993    5.5988 H   0  0  0  0  0  0  0  0  0  0  0  0
    2.4871   -4.7880    3.5454 H   0  0  0  0  0  0  0  0  0  0  0  0
    3.1809   -3.4982    1.7177 H   0  0  0  0  0  0  0  0  0  0  0  0
    5.0408   -3.5874    0.0124 H   0  0  0  0  0  0  0  0  0  0  0  0
    4.2749   -4.9153   -0.7972 H   0  0  0  0  0  0  0  0  0  0  0  0
    2.1948   -3.4432   -1.1478 H   0  0  0  0  0  0  0  0  0  0  0  0
    3.0330   -2.1478   -0.4055 H   0  0  0  0  0  0  0  0  0  0  0  0
    4.3869   -4.6343   -2.7893 H   0  0  0  0  0  0  0  0  0  0  0  0
    2.7155   -4.2435   -3.3678 H   0  0  0  0  0  0  0  0  0  0  0  0
    4.2263   -4.9050   -4.9960 H   0  0  0  0  0  0  0  0  0  0  0  0
    5.3751   -3.6717   -4.5977 H   0  0  0  0  0  0  0  0  0  0  0  0
    3.7100   -3.2217   -5.1308 H   0  0  0  0  0  0  0  0  0  0  0  0
    5.8424   -2.7417   -1.8399 H   0  0  0  0  0  0  0  0  0  0  0  0
    5.4627   -1.9624   -3.3583 H   0  0  0  0  0  0  0  0  0  0  0  0
    4.7468   -0.6280   -0.7412 H   0  0  0  0  0  0  0  0  0  0  0  0
    6.0890   -0.3453   -1.8172 H   0  0  0  0  0  0  0  0  0  0  0  0
    2.6122   -0.5033   -1.7077 H   0  0  0  0  0  0  0  0  0  0  0  0
    2.2821    0.2926   -3.2815 H   0  0  0  0  0  0  0  0  0  0  0  0
    3.0011   -1.5273   -4.2267 H   0  0  0  0  0  0  0  0  0  0  0  0
    1.8175   -2.1034   -3.0440 H   0  0  0  0  0  0  0  0  0  0  0  0
    3.5672   -6.7365   -0.1703 H   0  0  0  0  0  0  0  0  0  0  0  0
    4.7013   -7.1059    1.1041 H   0  0  0  0  0  0  0  0  0  0  0  0
    1.7521   -7.8781    0.9509 H   0  0  0  0  0  0  0  0  0  0  0  0
    3.0986   -9.0040    0.8503 H   0  0  0  0  0  0  0  0  0  0  0  0
    3.7957   -8.4704    3.1360 H   0  0  0  0  0  0  0  0  0  0  0  0
  1  2  1  0
  1 27  1  0
  1 28  1  0
  1 29  1  0
  2  3  2  3
  2 30  1  0
  3  4  1  0
  3 31  1  0
  4 26  1  0
  4  5  1  0
  4 32  1  1
  5  6  1  0
  5  9  2  0
  6  7  1  0
  6  8  1  0
  7 33  1  0
  7 34  1  0
  7 35  1  0
  8 36  1  0
  8 37  1  0
  8 38  1  0
  9 10  1  0
  9 39  1  0
 10 26  1  0
 10 11  2  0
 11 12  1  0
 11 40  1  0
 12 13  2  3
 12 24  1  0
 13 14  1  0
 13 41  1  0
 14 15  1  0
 14 42  1  0
 14 43  1  0
 15 16  1  0
 15 44  1  0
 15 45  1  0
 16 23  1  0
 16 17  1  0
 16 19  1  0
 17 18  1  0
 17 46  1  0
 17 47  1  0
 18 48  1  0
 18 49  1  0
 18 50  1  0
 19 20  1  0
 19 51  1  0
 19 52  1  0
 20 21  1  0
 20 53  1  0
 20 54  1  0
 21 22  1  0
 22 23  1  0
 22 55  1  0
 22 56  1  0
 23 57  1  0
 23 58  1  0
 24 25  1  0
 24 59  1  0
 24 60  1  0
 25 26  1  0
 25 61  1  0
 25 62  1  0
 26 63  1  1
M  CHG  1  16   1
M  END
>  <i_m_ct_stereo_status>  (190) 
1

>  <s_m_source_file>  (190) 
/var/tmp/pbs.5076255.sched01/tmpi5tju4vo/80qzp1lgse.sdf

>  <i_m_source_file_index>  (190) 
3

>  <i_lp_mmshare_version>  (190) 
48012

>  <i_f3d_flags>  (190) 
0

>  <s_epik_input>  (190) 
W0NIM10vW0NIXT1bQ0hdL1tDQEhdKEMoPVtDSF0xKU4oW0NIM10pW0NIM10pW0NASF0oQzE9MilbQ0gyXVtDSDJdQyhcW0NIXTIpPVtDSF0vW0NIMl1bQ0gyXVtOK10zKFtDSDJdW0NIM10pW0NIMl1bQ0gyXU9bQ0gyXVtDSDJdMw==

>  <s_epik_cmdline>  (190) 
J2VwaWtfcHl0aG9uJywgJy1waHQnLCAnMi4wJywgJy1waCcsICc3LjAnLCAnLXRuJywgJzgnLCAnLW1hJywgJzIwMCcsICctaW1hZScsICc8aW5maWxlLm1hZT4nLCAnLW9tYWUnLCAnPG91dGZpbGUubWFlPic=

>  <r_epik_Ionization_Penalty>  (190) 
0.00454615

>  <r_epik_Ionization_Penalty_Charging>  (190) 
0

>  <r_epik_Ionization_Penalty_Neutral>  (190) 
0.00454615

>  <r_epik_State_Penalty>  (190) 
0.003282

>  <r_epik_Charging_Adjusted_Penalty>  (190) 
0.003282

>  <i_epik_Tot_Q>  (190) 
1

>  <i_epik_Tot_abs_Q>  (190) 
1

>  <s_lp_Force_Field>  (190) 
OPLS3e

>  <r_lp_Energy>  (190) 
20.9351

>  <b_lp_Chiralities_Consistent>  (190) 
1

>  <s_lp_Variant>  (190) 
60:0-1

>  <s_i_glide_gridfile>  (190) 
pfpi4k_grid

>  <i_i_glide_lignum>  (190) 
3

>  <i_i_glide_rotatable_bonds>  (190) 
6

>  <r_i_docking_score>  (190) 
-1.64552

>  <r_i_glide_ligand_efficiency>  (190) 
-0.0632892

>  <r_i_glide_ligand_efficiency_sa>  (190) 
-0.187494

>  <r_i_glide_ligand_efficiency_ln>  (190) 
-0.386445

>  <r_i_glide_gscore>  (190) 
-1.64552

>  <r_i_glide_lipo>  (190) 
-0.42493

>  <r_i_glide_hbond>  (190) 
0

>  <r_i_glide_metal>  (190) 
-0

>  <r_i_glide_rewards>  (190) 
-0.971232

>  <r_i_glide_evdw>  (190) 
-2.58641

>  <r_i_glide_ecoul>  (190) 
-4.4134

>  <r_i_glide_erotb>  (190) 
0.599025

>  <r_i_glide_esite>  (190) 
-0.0570527

>  <r_i_glide_emodel>  (190) 
-3.4997

>  <r_i_glide_energy>  (190) 
-6.99981

>  <r_i_glide_einternal>  (190) 
5.11116

>  <r_i_glide_intrahb_reward>  (190) 
-0

>  <i_i_glide_confnum>  (190) 
5

>  <i_i_glide_posenum>  (190) 
2

>  <r_i_glide_eff_state_penalty>  (190) 
0

>  <ligand_id>  (190) 
60

>  <original_smiles>  (190) 
CC=CC1C(N(C)C)=CC2=CC(=CCC[N+]3(CC)CCOCC3)CCC21

>  <smiles>  (190) 
[H]C1=C(N(C([H])([H])[H])C([H])([H])[H])C([H])(C([H])=C([H])C([H])([H])[H])C2([H])C1=C([H])C(=C([H])C([H])([H])C([H])([H])[N+]1(C([H])([H])C([H])([H])[H])C([H])([H])C([H])([H])OC([H])([H])C1([H])[H])C([H])([H])C2([H])[H]

$$$$
60:1:0
     RDKit          3D

 63 65  0  0  1  0  0  0  0  0999 V2000
    4.9373   -4.2356   -1.7320 C   0  0  0  0  0  0  0  0  0  0  0  0
    6.2727   -3.4560   -1.8350 C   0  0  0  0  0  0  0  0  0  0  0  0
    7.1106   -3.0598   -0.8295 C   0  0  0  0  0  0  0  0  0  0  0  0
    7.0188   -3.2505    0.6902 C   0  0  2  0  0  0  0  0  0  0  0  0
    6.3692   -4.5694    1.1048 C   0  0  0  0  0  0  0  0  0  0  0  0
    7.0840   -5.7751    0.9417 N   0  0  0  0  0  0  0  0  0  0  0  0
    6.5390   -7.0591    1.3467 C   0  0  0  0  0  0  0  0  0  0  0  0
    8.5194   -5.8091    0.7699 C   0  0  0  0  0  0  0  0  0  0  0  0
    5.1128   -4.4184    1.5081 C   0  0  0  0  0  0  0  0  0  0  0  0
    4.8255   -3.0038    1.5335 C   0  0  0  0  0  0  0  0  0  0  0  0
    3.6098   -2.4036    1.5870 C   0  0  0  0  0  0  0  0  0  0  0  0
    3.4880   -0.9676    1.4850 C   0  0  0  0  0  0  0  0  0  0  0  0
    2.2420   -0.4277    1.4919 C   0  0  0  0  0  0  0  0  0  0  0  0
    1.8430    1.0308    1.6329 C   0  0  0  0  0  0  0  0  0  0  0  0
    1.3807    1.4953    3.0664 C   0  0  0  0  0  0  0  0  0  0  0  0
    0.1753    0.7983    3.6554 N   0  0  0  0  0  0  0  0  0  0  0  0
   -1.0326    1.0513    2.7809 C   0  0  0  0  0  0  0  0  0  0  0  0
   -1.5825    2.5066    2.7681 C   0  0  0  0  0  0  0  0  0  0  0  0
   -0.0581    1.3405    5.0593 C   0  0  0  0  0  0  0  0  0  0  0  0
   -1.1008    0.4961    5.8498 C   0  0  0  0  0  0  0  0  0  0  0  0
   -0.6993   -0.8602    5.9699 O   0  0  0  0  0  0  0  0  0  0  0  0
   -0.5616   -1.4255    4.6536 C   0  0  0  0  0  0  0  0  0  0  0  0
    0.4351   -0.6654    3.7745 C   0  0  0  0  0  0  0  0  0  0  0  0
    4.7393   -0.0947    1.4722 C   0  0  0  0  0  0  0  0  0  0  0  0
    5.8677   -0.8433    0.7172 C   0  0  0  0  0  0  0  0  0  0  0  0
    6.0855   -2.2261    1.3698 C   0  0  2  0  0  0  0  0  0  0  0  0
    4.9569   -5.1394   -2.3598 H   0  0  0  0  0  0  0  0  0  0  0  0
    4.1135   -3.6002   -2.0940 H   0  0  0  0  0  0  0  0  0  0  0  0
    4.6744   -4.5830   -0.7461 H   0  0  0  0  0  0  0  0  0  0  0  0
    6.5639   -3.1902   -2.8570 H   0  0  0  0  0  0  0  0  0  0  0  0
    8.0003   -2.5222   -1.1421 H   0  0  0  0  0  0  0  0  0  0  0  0
    8.0158   -3.1615    1.1073 H   0  0  0  0  0  0  0  0  0  0  0  0
    5.4828   -7.1669    1.1126 H   0  0  0  0  0  0  0  0  0  0  0  0
    6.6698   -7.1587    2.4213 H   0  0  0  0  0  0  0  0  0  0  0  0
    7.0713   -7.8938    0.8812 H   0  0  0  0  0  0  0  0  0  0  0  0
    8.9062   -4.9912    0.1612 H   0  0  0  0  0  0  0  0  0  0  0  0
    8.8749   -6.7357    0.3095 H   0  0  0  0  0  0  0  0  0  0  0  0
    8.9835   -5.7397    1.7541 H   0  0  0  0  0  0  0  0  0  0  0  0
    4.4181   -5.2079    1.7630 H   0  0  0  0  0  0  0  0  0  0  0  0
    2.7369   -3.0099    1.6427 H   0  0  0  0  0  0  0  0  0  0  0  0
    1.4421   -1.1335    1.3842 H   0  0  0  0  0  0  0  0  0  0  0  0
    2.6311    1.7305    1.3290 H   0  0  0  0  0  0  0  0  0  0  0  0
    1.0600    1.1983    0.8913 H   0  0  0  0  0  0  0  0  0  0  0  0
    2.2275    1.4310    3.7582 H   0  0  0  0  0  0  0  0  0  0  0  0
    1.2052    2.5763    3.0297 H   0  0  0  0  0  0  0  0  0  0  0  0
   -0.8400    0.7506    1.7485 H   0  0  0  0  0  0  0  0  0  0  0  0
   -1.8540    0.4037    3.0708 H   0  0  0  0  0  0  0  0  0  0  0  0
   -2.4121    2.5938    2.0609 H   0  0  0  0  0  0  0  0  0  0  0  0
   -0.8259    3.2451    2.4954 H   0  0  0  0  0  0  0  0  0  0  0  0
   -1.9859    2.8145    3.7322 H   0  0  0  0  0  0  0  0  0  0  0  0
    0.8853    1.3280    5.6190 H   0  0  0  0  0  0  0  0  0  0  0  0
   -0.3541    2.4076    5.0789 H   0  0  0  0  0  0  0  0  0  0  0  0
   -1.1820    0.8764    6.8653 H   0  0  0  0  0  0  0  0  0  0  0  0
   -2.0908    0.5410    5.3833 H   0  0  0  0  0  0  0  0  0  0  0  0
   -0.2324   -2.4693    4.7040 H   0  0  0  0  0  0  0  0  0  0  0  0
   -1.5395   -1.4640    4.1510 H   0  0  0  0  0  0  0  0  0  0  0  0
    0.3158   -1.1509    2.8235 H   0  0  0  0  0  0  0  0  0  0  0  0
    1.4313   -0.8219    4.1892 H   0  0  0  0  0  0  0  0  0  0  0  0
    4.5319    0.8200    0.9115 H   0  0  0  0  0  0  0  0  0  0  0  0
    5.0471    0.1803    2.4986 H   0  0  0  0  0  0  0  0  0  0  0  0
    5.5526   -0.9225   -0.3313 H   0  0  0  0  0  0  0  0  0  0  0  0
    6.7963   -0.2712    0.7402 H   0  0  0  0  0  0  0  0  0  0  0  0
    6.4316   -2.0520    2.3882 H   0  0  0  0  0  0  0  0  0  0  0  0
  1  2  1  0
  1 27  1  0
  1 28  1  0
  1 29  1  0
  2  3  2  3
  2 30  1  0
  3  4  1  0
  3 31  1  0
  4 26  1  0
  4  5  1  0
  4 32  1  1
  5  6  1  0
  5  9  2  0
  6  7  1  0
  6  8  1  0
  7 33  1  0
  7 34  1  0
  7 35  1  0
  8 36  1  0
  8 37  1  0
  8 38  1  0
  9 10  1  0
  9 39  1  0
 10 26  1  0
 10 11  2  0
 11 12  1  0
 11 40  1  0
 12 13  2  3
 12 24  1  0
 13 14  1  0
 13 41  1  0
 14 15  1  0
 14 42  1  0
 14 43  1  0
 15 16  1  0
 15 44  1  0
 15 45  1  0
 16 23  1  0
 16 17  1  0
 16 19  1  0
 17 18  1  0
 17 46  1  0
 17 47  1  0
 18 48  1  0
 18 49  1  0
 18 50  1  0
 19 20  1  0
 19 51  1  0
 19 52  1  0
 20 21  1  0
 20 53  1  0
 20 54  1  0
 21 22  1  0
 22 23  1  0
 22 55  1  0
 22 56  1  0
 23 57  1  0
 23 58  1  0
 24 25  1  0
 24 59  1  0
 24 60  1  0
 25 26  1  0
 25 61  1  0
 25 62  1  0
 26 63  1  1
M  CHG  1  16   1
M  END
>  <i_m_ct_stereo_status>  (191) 
1

>  <s_m_source_file>  (191) 
/var/tmp/pbs.5076255.sched01/tmpi5tju4vo/80qzp1lgse.sdf

>  <i_m_source_file_index>  (191) 
4

>  <i_lp_mmshare_version>  (191) 
48012

>  <i_f3d_flags>  (191) 
0

>  <s_epik_input>  (191) 
W0NIM10vW0NIXT1bQ0hdL1tDQEhdKEMoPVtDSF0xKU4oW0NIM10pW0NIM10pW0NASF0oQzE9MilbQ0gyXVtDSDJdQyhcW0NIXTIpPVtDSF0vW0NIMl1bQ0gyXVtOK10zKFtDSDJdW0NIM10pW0NIMl1bQ0gyXU9bQ0gyXVtDSDJdMw==

>  <s_epik_cmdline>  (191) 
J2VwaWtfcHl0aG9uJywgJy1waHQnLCAnMi4wJywgJy1waCcsICc3LjAnLCAnLXRuJywgJzgnLCAnLW1hJywgJzIwMCcsICctaW1hZScsICc8aW5maWxlLm1hZT4nLCAnLW9tYWUnLCAnPG91dGZpbGUubWFlPic=

>  <r_epik_Ionization_Penalty>  (191) 
0.00454615

>  <r_epik_Ionization_Penalty_Charging>  (191) 
0

>  <r_epik_Ionization_Penalty_Neutral>  (191) 
0.00454615

>  <r_epik_State_Penalty>  (191) 
0.003282

>  <r_epik_Charging_Adjusted_Penalty>  (191) 
0.003282

>  <i_epik_Tot_Q>  (191) 
1

>  <i_epik_Tot_abs_Q>  (191) 
1

>  <s_lp_Force_Field>  (191) 
OPLS3e

>  <r_lp_Energy>  (191) 
23.7356

>  <b_lp_Chiralities_Consistent>  (191) 
1

>  <s_lp_Variant>  (191) 
60:0-2

>  <s_i_glide_gridfile>  (191) 
pfpi4k_grid

>  <i_i_glide_lignum>  (191) 
4

>  <i_i_glide_rotatable_bonds>  (191) 
6

>  <r_i_docking_score>  (191) 
-3.15022

>  <r_i_glide_ligand_efficiency>  (191) 
-0.121162

>  <r_i_glide_ligand_efficiency_sa>  (191) 
-0.358943

>  <r_i_glide_ligand_efficiency_ln>  (191) 
-0.73982

>  <r_i_glide_gscore>  (191) 
-3.15022

>  <r_i_glide_lipo>  (191) 
-0.940246

>  <r_i_glide_hbond>  (191) 
0

>  <r_i_glide_metal>  (191) 
-0

>  <r_i_glide_rewards>  (191) 
-1.07919

>  <r_i_glide_evdw>  (191) 
-22.6333

>  <r_i_glide_ecoul>  (191) 
-3.8501

>  <r_i_glide_erotb>  (191) 
0.599025

>  <r_i_glide_esite>  (191) 
-0.0206383

>  <r_i_glide_emodel>  (191) 
-27.6365

>  <r_i_glide_energy>  (191) 
-26.4834

>  <r_i_glide_einternal>  (191) 
4.57928

>  <r_i_glide_intrahb_reward>  (191) 
-0

>  <i_i_glide_confnum>  (191) 
1

>  <i_i_glide_posenum>  (191) 
19

>  <r_i_glide_eff_state_penalty>  (191) 
0

>  <ligand_id>  (191) 
60

>  <original_smiles>  (191) 
CC=CC1C(N(C)C)=CC2=CC(=CCC[N+]3(CC)CCOCC3)CCC21

>  <smiles>  (191) 
[H]C1=C(N(C([H])([H])[H])C([H])([H])[H])C([H])(C([H])=C([H])C([H])([H])[H])C2([H])C1=C([H])C(=C([H])C([H])([H])C([H])([H])[N+]1(C([H])([H])C([H])([H])[H])C([H])([H])C([H])([H])OC([H])([H])C1([H])[H])C([H])([H])C2([H])[H]

$$$$
60:1:1
     RDKit          3D

 63 65  0  0  1  0  0  0  0  0999 V2000
    4.7023   -4.0404   -1.7047 C   0  0  0  0  0  0  0  0  0  0  0  0
    5.9817   -3.3143   -1.2969 C   0  0  0  0  0  0  0  0  0  0  0  0
    6.4985   -3.0903   -0.0635 C   0  0  0  0  0  0  0  0  0  0  0  0
    5.9834   -3.4914    1.3265 C   0  0  2  0  0  0  0  0  0  0  0  0
    5.0523   -4.6994    1.2597 C   0  0  0  0  0  0  0  0  0  0  0  0
    5.5514   -5.9769    1.0652 N   0  0  0  0  0  0  0  0  0  0  0  0
    4.7018   -7.1601    0.9718 C   0  0  0  0  0  0  0  0  0  0  0  0
    6.9589   -6.3113    1.2832 C   0  0  0  0  0  0  0  0  0  0  0  0
    3.7474   -4.3161    1.3850 C   0  0  0  0  0  0  0  0  0  0  0  0
    3.7108   -2.9062    1.6440 C   0  0  0  0  0  0  0  0  0  0  0  0
    2.6426   -2.0871    1.5552 C   0  0  0  0  0  0  0  0  0  0  0  0
    2.7705   -0.6476    1.7734 C   0  0  0  0  0  0  0  0  0  0  0  0
    1.6820    0.1312    1.6343 C   0  0  0  0  0  0  0  0  0  0  0  0
    1.5374    1.6128    1.9634 C   0  0  0  0  0  0  0  0  0  0  0  0
    1.1527    1.9088    3.4390 C   0  0  0  0  0  0  0  0  0  0  0  0
   -0.1657    1.3645    3.9208 N   0  0  0  0  0  0  0  0  0  0  0  0
   -1.2833    1.9061    3.0719 C   0  0  0  0  0  0  0  0  0  0  0  0
   -1.5306    3.4369    3.1450 C   0  0  0  0  0  0  0  0  0  0  0  0
   -0.3483    1.7685    5.3733 C   0  0  0  0  0  0  0  0  0  0  0  0
   -1.5280    1.0335    6.0665 C   0  0  0  0  0  0  0  0  0  0  0  0
   -1.3617   -0.3758    6.0082 O   0  0  0  0  0  0  0  0  0  0  0  0
   -1.2915   -0.8119    4.6524 C   0  0  0  0  0  0  0  0  0  0  0  0
   -0.1492   -0.1371    3.8618 C   0  0  0  0  0  0  0  0  0  0  0  0
    4.1242   -0.0910    2.2030 C   0  0  0  0  0  0  0  0  0  0  0  0
    5.2843   -0.9204    1.6160 C   0  0  0  0  0  0  0  0  0  0  0  0
    5.0924   -2.4100    1.9842 C   0  0  2  0  0  0  0  0  0  0  0  0
    4.9905   -4.7988   -2.4411 H   0  0  0  0  0  0  0  0  0  0  0  0
    4.0420   -3.3287   -2.2101 H   0  0  0  0  0  0  0  0  0  0  0  0
    4.1633   -4.5128   -0.8942 H   0  0  0  0  0  0  0  0  0  0  0  0
    6.5689   -2.9132   -2.1180 H   0  0  0  0  0  0  0  0  0  0  0  0
    7.4284   -2.5446    0.0005 H   0  0  0  0  0  0  0  0  0  0  0  0
    6.8365   -3.6846    1.9858 H   0  0  0  0  0  0  0  0  0  0  0  0
    3.7808   -6.9608    0.4210 H   0  0  0  0  0  0  0  0  0  0  0  0
    4.4505   -7.4893    1.9775 H   0  0  0  0  0  0  0  0  0  0  0  0
    5.2146   -7.9845    0.4804 H   0  0  0  0  0  0  0  0  0  0  0  0
    7.6340   -5.5057    1.0018 H   0  0  0  0  0  0  0  0  0  0  0  0
    7.2672   -7.1895    0.7240 H   0  0  0  0  0  0  0  0  0  0  0  0
    7.0974   -6.5267    2.3386 H   0  0  0  0  0  0  0  0  0  0  0  0
    2.8973   -4.9836    1.3272 H   0  0  0  0  0  0  0  0  0  0  0  0
    1.6934   -2.5029    1.2865 H   0  0  0  0  0  0  0  0  0  0  0  0
    0.7643   -0.3434    1.2904 H   0  0  0  0  0  0  0  0  0  0  0  0
    2.4496    2.1588    1.7207 H   0  0  0  0  0  0  0  0  0  0  0  0
    0.7912    2.0176    1.2819 H   0  0  0  0  0  0  0  0  0  0  0  0
    1.9607    1.5696    4.0853 H   0  0  0  0  0  0  0  0  0  0  0  0
    1.1806    2.9863    3.5601 H   0  0  0  0  0  0  0  0  0  0  0  0
   -1.1657    1.6099    2.0252 H   0  0  0  0  0  0  0  0  0  0  0  0
   -2.2034    1.4205    3.3628 H   0  0  0  0  0  0  0  0  0  0  0  0
   -2.3026    3.7371    2.4272 H   0  0  0  0  0  0  0  0  0  0  0  0
   -0.6315    4.0135    2.9296 H   0  0  0  0  0  0  0  0  0  0  0  0
   -1.8699    3.7741    4.1253 H   0  0  0  0  0  0  0  0  0  0  0  0
    0.5600    1.5393    5.9359 H   0  0  0  0  0  0  0  0  0  0  0  0
   -0.4749    2.8487    5.5045 H   0  0  0  0  0  0  0  0  0  0  0  0
   -1.5808    1.3164    7.1248 H   0  0  0  0  0  0  0  0  0  0  0  0
   -2.4864    1.3007    5.6168 H   0  0  0  0  0  0  0  0  0  0  0  0
   -1.1422   -1.8873    4.6174 H   0  0  0  0  0  0  0  0  0  0  0  0
   -2.2382   -0.6336    4.1564 H   0  0  0  0  0  0  0  0  0  0  0  0
   -0.1996   -0.4895    2.8511 H   0  0  0  0  0  0  0  0  0  0  0  0
    0.7889   -0.4916    4.3079 H   0  0  0  0  0  0  0  0  0  0  0  0
    4.2395    0.9322    1.8528 H   0  0  0  0  0  0  0  0  0  0  0  0
    4.1735   -0.0658    3.2952 H   0  0  0  0  0  0  0  0  0  0  0  0
    5.2678   -0.7711    0.5322 H   0  0  0  0  0  0  0  0  0  0  0  0
    6.2473   -0.5499    1.9787 H   0  0  0  0  0  0  0  0  0  0  0  0
    5.1760   -2.4900    3.0754 H   0  0  0  0  0  0  0  0  0  0  0  0
  1  2  1  0
  1 27  1  0
  1 28  1  0
  1 29  1  0
  2  3  2  3
  2 30  1  0
  3  4  1  0
  3 31  1  0
  4 26  1  0
  4  5  1  0
  4 32  1  1
  5  6  1  0
  5  9  2  0
  6  7  1  0
  6  8  1  0
  7 33  1  0
  7 34  1  0
  7 35  1  0
  8 36  1  0
  8 37  1  0
  8 38  1  0
  9 10  1  0
  9 39  1  0
 10 26  1  0
 10 11  2  0
 11 12  1  0
 11 40  1  0
 12 13  2  3
 12 24  1  0
 13 14  1  0
 13 41  1  0
 14 15  1  0
 14 42  1  0
 14 43  1  0
 15 16  1  0
 15 44  1  0
 15 45  1  0
 16 23  1  0
 16 17  1  0
 16 19  1  0
 17 18  1  0
 17 46  1  0
 17 47  1  0
 18 48  1  0
 18 49  1  0
 18 50  1  0
 19 20  1  0
 19 51  1  0
 19 52  1  0
 20 21  1  0
 20 53  1  0
 20 54  1  0
 21 22  1  0
 22 23  1  0
 22 55  1  0
 22 56  1  0
 23 57  1  0
 23 58  1  0
 24 25  1  0
 24 59  1  0
 24 60  1  0
 25 26  1  0
 25 61  1  0
 25 62  1  0
 26 63  1  1
M  CHG  1  16   1
M  END
>  <i_m_ct_stereo_status>  (192) 
1

>  <s_m_source_file>  (192) 
/var/tmp/pbs.5076255.sched01/tmpi5tju4vo/80qzp1lgse.sdf

>  <i_m_source_file_index>  (192) 
4

>  <i_lp_mmshare_version>  (192) 
48012

>  <i_f3d_flags>  (192) 
0

>  <s_epik_input>  (192) 
W0NIM10vW0NIXT1bQ0hdL1tDQEhdKEMoPVtDSF0xKU4oW0NIM10pW0NIM10pW0NASF0oQzE9MilbQ0gyXVtDSDJdQyhcW0NIXTIpPVtDSF0vW0NIMl1bQ0gyXVtOK10zKFtDSDJdW0NIM10pW0NIMl1bQ0gyXU9bQ0gyXVtDSDJdMw==

>  <s_epik_cmdline>  (192) 
J2VwaWtfcHl0aG9uJywgJy1waHQnLCAnMi4wJywgJy1waCcsICc3LjAnLCAnLXRuJywgJzgnLCAnLW1hJywgJzIwMCcsICctaW1hZScsICc8aW5maWxlLm1hZT4nLCAnLW9tYWUnLCAnPG91dGZpbGUubWFlPic=

>  <r_epik_Ionization_Penalty>  (192) 
0.00454615

>  <r_epik_Ionization_Penalty_Charging>  (192) 
0

>  <r_epik_Ionization_Penalty_Neutral>  (192) 
0.00454615

>  <r_epik_State_Penalty>  (192) 
0.003282

>  <r_epik_Charging_Adjusted_Penalty>  (192) 
0.003282

>  <i_epik_Tot_Q>  (192) 
1

>  <i_epik_Tot_abs_Q>  (192) 
1

>  <s_lp_Force_Field>  (192) 
OPLS3e

>  <r_lp_Energy>  (192) 
23.7356

>  <b_lp_Chiralities_Consistent>  (192) 
1

>  <s_lp_Variant>  (192) 
60:0-2

>  <s_i_glide_gridfile>  (192) 
pfpi4k_grid

>  <i_i_glide_lignum>  (192) 
4

>  <i_i_glide_rotatable_bonds>  (192) 
6

>  <r_i_docking_score>  (192) 
-2.92702

>  <r_i_glide_ligand_efficiency>  (192) 
-0.112578

>  <r_i_glide_ligand_efficiency_sa>  (192) 
-0.333511

>  <r_i_glide_ligand_efficiency_ln>  (192) 
-0.6874

>  <r_i_glide_gscore>  (192) 
-2.92702

>  <r_i_glide_lipo>  (192) 
-0.73365

>  <r_i_glide_hbond>  (192) 
-0.07364

>  <r_i_glide_metal>  (192) 
-0

>  <r_i_glide_rewards>  (192) 
-1.08936

>  <r_i_glide_evdw>  (192) 
-22.0691

>  <r_i_glide_ecoul>  (192) 
-3.35974

>  <r_i_glide_erotb>  (192) 
0.599025

>  <r_i_glide_esite>  (192) 
-0.0219711

>  <r_i_glide_emodel>  (192) 
-26.9781

>  <r_i_glide_energy>  (192) 
-25.4289

>  <r_i_glide_einternal>  (192) 
4.54982

>  <r_i_glide_intrahb_reward>  (192) 
-0

>  <i_i_glide_confnum>  (192) 
1

>  <i_i_glide_posenum>  (192) 
30

>  <r_i_glide_eff_state_penalty>  (192) 
0

>  <ligand_id>  (192) 
60

>  <original_smiles>  (192) 
CC=CC1C(N(C)C)=CC2=CC(=CCC[N+]3(CC)CCOCC3)CCC21

>  <smiles>  (192) 
[H]C1=C(N(C([H])([H])[H])C([H])([H])[H])C([H])(C([H])=C([H])C([H])([H])[H])C2([H])C1=C([H])C(=C([H])C([H])([H])C([H])([H])[N+]1(C([H])([H])C([H])([H])[H])C([H])([H])C([H])([H])OC([H])([H])C1([H])[H])C([H])([H])C2([H])[H]

$$$$
60:1:2
     RDKit          3D

 63 65  0  0  1  0  0  0  0  0999 V2000
    3.6829   -3.3933   -0.9041 C   0  0  0  0  0  0  0  0  0  0  0  0
    5.1920   -3.3709   -1.2309 C   0  0  0  0  0  0  0  0  0  0  0  0
    6.2560   -3.3646   -0.3786 C   0  0  0  0  0  0  0  0  0  0  0  0
    6.2726   -3.3724    1.1659 C   0  0  2  0  0  0  0  0  0  0  0  0
    5.5524   -4.5836    1.7467 C   0  0  0  0  0  0  0  0  0  0  0  0
    6.0862   -5.8585    1.5458 N   0  0  0  0  0  0  0  0  0  0  0  0
    7.4759   -6.1018    1.1613 C   0  0  0  0  0  0  0  0  0  0  0  0
    5.2899   -7.0740    1.5480 C   0  0  0  0  0  0  0  0  0  0  0  0
    4.3630   -4.2644    2.2782 C   0  0  0  0  0  0  0  0  0  0  0  0
    4.2425   -2.8156    2.2115 C   0  0  0  0  0  0  0  0  0  0  0  0
    3.1036   -2.0941    2.3230 C   0  0  0  0  0  0  0  0  0  0  0  0
    3.0875   -0.6636    2.0558 C   0  0  0  0  0  0  0  0  0  0  0  0
    1.9469   -0.0437    2.0766 C   0  0  0  0  0  0  0  0  0  0  0  0
    1.6165    1.4485    2.0423 C   0  0  0  0  0  0  0  0  0  0  0  0
    1.1425    2.1029    3.3987 C   0  0  0  0  0  0  0  0  0  0  0  0
   -0.1931    1.6406    3.9480 N   0  0  0  0  0  0  0  0  0  0  0  0
   -1.2986    2.1623    3.0689 C   0  0  0  0  0  0  0  0  0  0  0  0
   -1.5647    3.6861    3.1285 C   0  0  0  0  0  0  0  0  0  0  0  0
   -0.3318    2.1180    5.3685 C   0  0  0  0  0  0  0  0  0  0  0  0
   -1.5162    1.4417    6.1097 C   0  0  0  0  0  0  0  0  0  0  0  0
   -1.3667    0.0281    6.1464 O   0  0  0  0  0  0  0  0  0  0  0  0
   -1.3506   -0.4718    4.7959 C   0  0  0  0  0  0  0  0  0  0  0  0
   -0.2548    0.1629    4.0003 C   0  0  0  0  0  0  0  0  0  0  0  0
    4.4084    0.0711    1.7586 C   0  0  0  0  0  0  0  0  0  0  0  0
    5.3893   -0.8782    1.0229 C   0  0  0  0  0  0  0  0  0  0  0  0
    5.5369   -2.1904    1.8189 C   0  0  2  0  0  0  0  0  0  0  0  0
    3.2032   -4.2545   -1.4093 H   0  0  0  0  0  0  0  0  0  0  0  0
    3.2109   -2.4386   -1.2281 H   0  0  0  0  0  0  0  0  0  0  0  0
    3.4436   -3.5340    0.0909 H   0  0  0  0  0  0  0  0  0  0  0  0
    5.4105   -3.3517   -2.3090 H   0  0  0  0  0  0  0  0  0  0  0  0
    7.2353   -3.3606   -0.8277 H   0  0  0  0  0  0  0  0  0  0  0  0
    7.3088   -3.3515    1.4873 H   0  0  0  0  0  0  0  0  0  0  0  0
    8.1744   -5.3520    1.5459 H   0  0  0  0  0  0  0  0  0  0  0  0
    7.5289   -6.0971    0.0690 H   0  0  0  0  0  0  0  0  0  0  0  0
    7.8550   -7.0777    1.5023 H   0  0  0  0  0  0  0  0  0  0  0  0
    4.3917   -6.9934    2.1584 H   0  0  0  0  0  0  0  0  0  0  0  0
    5.8498   -7.9523    1.8955 H   0  0  0  0  0  0  0  0  0  0  0  0
    4.9935   -7.2603    0.5140 H   0  0  0  0  0  0  0  0  0  0  0  0
    3.6049   -4.9473    2.6185 H   0  0  0  0  0  0  0  0  0  0  0  0
    2.1826   -2.5986    2.4593 H   0  0  0  0  0  0  0  0  0  0  0  0
    1.1249   -0.7099    2.1767 H   0  0  0  0  0  0  0  0  0  0  0  0
    2.4757    2.0733    1.7059 H   0  0  0  0  0  0  0  0  0  0  0  0
    0.8771    1.6226    1.2592 H   0  0  0  0  0  0  0  0  0  0  0  0
    1.9313    1.9652    4.1451 H   0  0  0  0  0  0  0  0  0  0  0  0
    1.1312    3.1930    3.2865 H   0  0  0  0  0  0  0  0  0  0  0  0
   -1.1201    1.8818    2.0372 H   0  0  0  0  0  0  0  0  0  0  0  0
   -2.2276    1.6595    3.2978 H   0  0  0  0  0  0  0  0  0  0  0  0
   -2.3405    3.9521    2.4126 H   0  0  0  0  0  0  0  0  0  0  0  0
   -0.6859    4.2806    2.8796 H   0  0  0  0  0  0  0  0  0  0  0  0
   -1.9117    4.0022    4.1082 H   0  0  0  0  0  0  0  0  0  0  0  0
    0.5848    1.9011    5.9297 H   0  0  0  0  0  0  0  0  0  0  0  0
   -0.4193    3.2174    5.4370 H   0  0  0  0  0  0  0  0  0  0  0  0
   -1.5339    1.7740    7.1394 H   0  0  0  0  0  0  0  0  0  0  0  0
   -2.4707    1.7041    5.6460 H   0  0  0  0  0  0  0  0  0  0  0  0
   -1.2051   -1.5639    4.7876 H   0  0  0  0  0  0  0  0  0  0  0  0
   -2.3178   -0.3082    4.2960 H   0  0  0  0  0  0  0  0  0  0  0  0
   -0.4645   -0.1932    2.9941 H   0  0  0  0  0  0  0  0  0  0  0  0
    0.6963   -0.2305    4.3657 H   0  0  0  0  0  0  0  0  0  0  0  0
    4.2094    0.9385    1.1052 H   0  0  0  0  0  0  0  0  0  0  0  0
    4.8223    0.4371    2.7163 H   0  0  0  0  0  0  0  0  0  0  0  0
    4.9495   -1.0246    0.0291 H   0  0  0  0  0  0  0  0  0  0  0  0
    6.3395   -0.3642    0.8919 H   0  0  0  0  0  0  0  0  0  0  0  0
    6.0223   -1.9425    2.7800 H   0  0  0  0  0  0  0  0  0  0  0  0
  1  2  1  0
  1 27  1  0
  1 28  1  0
  1 29  1  0
  2  3  2  3
  2 30  1  0
  3  4  1  0
  3 31  1  0
  4 26  1  0
  4  5  1  0
  4 32  1  6
  5  6  1  0
  5  9  2  0
  6  7  1  0
  6  8  1  0
  7 33  1  0
  7 34  1  0
  7 35  1  0
  8 36  1  0
  8 37  1  0
  8 38  1  0
  9 10  1  0
  9 39  1  0
 10 26  1  0
 10 11  2  0
 11 12  1  0
 11 40  1  0
 12 13  2  3
 12 24  1  0
 13 14  1  0
 13 41  1  0
 14 15  1  0
 14 42  1  0
 14 43  1  0
 15 16  1  0
 15 44  1  0
 15 45  1  0
 16 23  1  0
 16 17  1  0
 16 19  1  0
 17 18  1  0
 17 46  1  0
 17 47  1  0
 18 48  1  0
 18 49  1  0
 18 50  1  0
 19 20  1  0
 19 51  1  0
 19 52  1  0
 20 21  1  0
 20 53  1  0
 20 54  1  0
 21 22  1  0
 22 23  1  0
 22 55  1  0
 22 56  1  0
 23 57  1  0
 23 58  1  0
 24 25  1  0
 24 59  1  0
 24 60  1  0
 25 26  1  0
 25 61  1  0
 25 62  1  0
 26 63  1  1
M  CHG  1  16   1
M  END
>  <i_m_ct_stereo_status>  (193) 
1

>  <s_m_source_file>  (193) 
/var/tmp/pbs.5076255.sched01/tmpi5tju4vo/80qzp1lgse.sdf

>  <i_m_source_file_index>  (193) 
4

>  <i_lp_mmshare_version>  (193) 
48012

>  <i_f3d_flags>  (193) 
0

>  <s_epik_input>  (193) 
W0NIM10vW0NIXT1bQ0hdL1tDQEhdKEMoPVtDSF0xKU4oW0NIM10pW0NIM10pW0NASF0oQzE9MilbQ0gyXVtDSDJdQyhcW0NIXTIpPVtDSF0vW0NIMl1bQ0gyXVtOK10zKFtDSDJdW0NIM10pW0NIMl1bQ0gyXU9bQ0gyXVtDSDJdMw==

>  <s_epik_cmdline>  (193) 
J2VwaWtfcHl0aG9uJywgJy1waHQnLCAnMi4wJywgJy1waCcsICc3LjAnLCAnLXRuJywgJzgnLCAnLW1hJywgJzIwMCcsICctaW1hZScsICc8aW5maWxlLm1hZT4nLCAnLW9tYWUnLCAnPG91dGZpbGUubWFlPic=

>  <r_epik_Ionization_Penalty>  (193) 
0.00454615

>  <r_epik_Ionization_Penalty_Charging>  (193) 
0

>  <r_epik_Ionization_Penalty_Neutral>  (193) 
0.00454615

>  <r_epik_State_Penalty>  (193) 
0.003282

>  <r_epik_Charging_Adjusted_Penalty>  (193) 
0.003282

>  <i_epik_Tot_Q>  (193) 
1

>  <i_epik_Tot_abs_Q>  (193) 
1

>  <s_lp_Force_Field>  (193) 
OPLS3e

>  <r_lp_Energy>  (193) 
23.7356

>  <b_lp_Chiralities_Consistent>  (193) 
1

>  <s_lp_Variant>  (193) 
60:0-2

>  <s_i_glide_gridfile>  (193) 
pfpi4k_grid

>  <i_i_glide_lignum>  (193) 
4

>  <i_i_glide_rotatable_bonds>  (193) 
6

>  <r_i_docking_score>  (193) 
-2.65609

>  <r_i_glide_ligand_efficiency>  (193) 
-0.102157

>  <r_i_glide_ligand_efficiency_sa>  (193) 
-0.302641

>  <r_i_glide_ligand_efficiency_ln>  (193) 
-0.623774

>  <r_i_glide_gscore>  (193) 
-2.65609

>  <r_i_glide_lipo>  (193) 
-0.716158

>  <r_i_glide_hbond>  (193) 
-0.101204

>  <r_i_glide_metal>  (193) 
-0

>  <r_i_glide_rewards>  (193) 
-1.07858

>  <r_i_glide_evdw>  (193) 
-22.2655

>  <r_i_glide_ecoul>  (193) 
-3.60689

>  <r_i_glide_erotb>  (193) 
0.599025

>  <r_i_glide_esite>  (193) 
-0.0226489

>  <r_i_glide_emodel>  (193) 
-22.6301

>  <r_i_glide_energy>  (193) 
-25.8724

>  <r_i_glide_einternal>  (193) 
6.70615

>  <r_i_glide_intrahb_reward>  (193) 
-0

>  <i_i_glide_confnum>  (193) 
1

>  <i_i_glide_posenum>  (193) 
33

>  <r_i_glide_eff_state_penalty>  (193) 
0

>  <ligand_id>  (193) 
60

>  <original_smiles>  (193) 
CC=CC1C(N(C)C)=CC2=CC(=CCC[N+]3(CC)CCOCC3)CCC21

>  <smiles>  (193) 
[H]C1=C(N(C([H])([H])[H])C([H])([H])[H])C([H])(C([H])=C([H])C([H])([H])[H])C2([H])C1=C([H])C(=C([H])C([H])([H])C([H])([H])[N+]1(C([H])([H])C([H])([H])[H])C([H])([H])C([H])([H])OC([H])([H])C1([H])[H])C([H])([H])C2([H])[H]

$$$$
60:2:0
     RDKit          3D

 63 65  0  0  1  0  0  0  0  0999 V2000
   -1.4792   -9.2152    2.1097 C   0  0  0  0  0  0  0  0  0  0  0  0
   -0.5175   -8.7939    3.1949 C   0  0  0  0  0  0  0  0  0  0  0  0
    0.4335   -7.8611    3.0375 C   0  0  0  0  0  0  0  0  0  0  0  0
    1.3967   -7.4075    4.1241 C   0  0  2  0  0  0  0  0  0  0  0  0
    1.0312   -5.9883    4.5761 C   0  0  0  0  0  0  0  0  0  0  0  0
   -0.0182   -5.7703    5.4322 N   0  0  0  0  0  0  0  0  0  0  0  0
    0.1791   -5.4832    6.8552 C   0  0  0  0  0  0  0  0  0  0  0  0
   -1.3342   -6.3228    5.1527 C   0  0  0  0  0  0  0  0  0  0  0  0
    1.8714   -5.0619    4.0570 C   0  0  0  0  0  0  0  0  0  0  0  0
    2.8705   -5.7559    3.3184 C   0  0  0  0  0  0  0  0  0  0  0  0
    3.7214   -5.2251    2.4242 C   0  0  0  0  0  0  0  0  0  0  0  0
    4.6213   -6.0684    1.6504 C   0  0  0  0  0  0  0  0  0  0  0  0
    5.3670   -5.5670    0.6516 C   0  0  0  0  0  0  0  0  0  0  0  0
    5.3487   -4.1300    0.1945 C   0  0  0  0  0  0  0  0  0  0  0  0
    5.0348   -4.0342   -1.3291 C   0  0  0  0  0  0  0  0  0  0  0  0
    4.7171   -2.6544   -1.8314 N   0  0  0  0  0  0  0  0  0  0  0  0
    5.7303   -1.6643   -1.3087 C   0  0  0  0  0  0  0  0  0  0  0  0
    7.2271   -2.1709   -1.3819 C   0  0  0  0  0  0  0  0  0  0  0  0
    3.3304   -2.2614   -1.4050 C   0  0  0  0  0  0  0  0  0  0  0  0
    2.2120   -3.0408   -2.1609 C   0  0  0  0  0  0  0  0  0  0  0  0
    2.3491   -2.8372   -3.5472 O   0  0  0  0  0  0  0  0  0  0  0  0
    3.5743   -3.3483   -4.0107 C   0  0  0  0  0  0  0  0  0  0  0  0
    4.7398   -2.5971   -3.3293 C   0  0  0  0  0  0  0  0  0  0  0  0
    4.7519   -7.5511    1.9984 C   0  0  0  0  0  0  0  0  0  0  0  0
    3.3853   -8.0987    2.4590 C   0  0  0  0  0  0  0  0  0  0  0  0
    2.8419   -7.2324    3.6153 C   0  0  2  0  0  0  0  0  0  0  0  0
   -1.3572  -10.2783    1.9166 H   0  0  0  0  0  0  0  0  0  0  0  0
   -1.3025   -8.6543    1.1939 H   0  0  0  0  0  0  0  0  0  0  0  0
   -2.5111   -9.0368    2.4080 H   0  0  0  0  0  0  0  0  0  0  0  0
   -0.6387   -9.2788    4.1532 H   0  0  0  0  0  0  0  0  0  0  0  0
    0.5433   -7.3729    2.0796 H   0  0  0  0  0  0  0  0  0  0  0  0
    1.3561   -8.0962    4.9701 H   0  0  0  0  0  0  0  0  0  0  0  0
    1.0067   -4.7980    7.0348 H   0  0  0  0  0  0  0  0  0  0  0  0
    0.3753   -6.4018    7.4055 H   0  0  0  0  0  0  0  0  0  0  0  0
   -0.7168   -5.0544    7.2991 H   0  0  0  0  0  0  0  0  0  0  0  0
   -1.5749   -6.2410    4.0940 H   0  0  0  0  0  0  0  0  0  0  0  0
   -2.1206   -5.8701    5.7560 H   0  0  0  0  0  0  0  0  0  0  0  0
   -1.3178   -7.3844    5.3613 H   0  0  0  0  0  0  0  0  0  0  0  0
    1.8140   -3.9943    4.2229 H   0  0  0  0  0  0  0  0  0  0  0  0
    3.6275   -4.1573    2.2973 H   0  0  0  0  0  0  0  0  0  0  0  0
    6.0712   -6.2130    0.1470 H   0  0  0  0  0  0  0  0  0  0  0  0
    4.6305   -3.4951    0.7080 H   0  0  0  0  0  0  0  0  0  0  0  0
    6.3388   -3.7894    0.5281 H   0  0  0  0  0  0  0  0  0  0  0  0
    5.8302   -4.4588   -1.9218 H   0  0  0  0  0  0  0  0  0  0  0  0
    4.2428   -4.7233   -1.5549 H   0  0  0  0  0  0  0  0  0  0  0  0
    5.6029   -0.7116   -1.8141 H   0  0  0  0  0  0  0  0  0  0  0  0
    5.4645   -1.4062   -0.2874 H   0  0  0  0  0  0  0  0  0  0  0  0
    7.8747   -1.5633   -0.7786 H   0  0  0  0  0  0  0  0  0  0  0  0
    7.5494   -2.2539   -2.4358 H   0  0  0  0  0  0  0  0  0  0  0  0
    7.4659   -3.1248   -0.8786 H   0  0  0  0  0  0  0  0  0  0  0  0
    3.1733   -2.3949   -0.3372 H   0  0  0  0  0  0  0  0  0  0  0  0
    3.1703   -1.1967   -1.5809 H   0  0  0  0  0  0  0  0  0  0  0  0
    2.1797   -4.0997   -1.9062 H   0  0  0  0  0  0  0  0  0  0  0  0
    1.2209   -2.6718   -1.9293 H   0  0  0  0  0  0  0  0  0  0  0  0
    3.6579   -4.4235   -3.8993 H   0  0  0  0  0  0  0  0  0  0  0  0
    3.5735   -3.1779   -5.0829 H   0  0  0  0  0  0  0  0  0  0  0  0
    4.6718   -1.5648   -3.6859 H   0  0  0  0  0  0  0  0  0  0  0  0
    5.6747   -3.0009   -3.7083 H   0  0  0  0  0  0  0  0  0  0  0  0
    5.1048   -8.0965    1.1188 H   0  0  0  0  0  0  0  0  0  0  0  0
    5.5193   -7.6620    2.7750 H   0  0  0  0  0  0  0  0  0  0  0  0
    2.7256   -8.0642    1.5911 H   0  0  0  0  0  0  0  0  0  0  0  0
    3.4902   -9.1411    2.7660 H   0  0  0  0  0  0  0  0  0  0  0  0
    3.5293   -7.3422    4.4567 H   0  0  0  0  0  0  0  0  0  0  0  0
  1  2  1  0
  1 27  1  0
  1 28  1  0
  1 29  1  0
  2  3  2  3
  2 30  1  0
  3  4  1  0
  3 31  1  0
  4 26  1  0
  4  5  1  0
  4 32  1  1
  5  6  1  0
  5  9  2  0
  6  7  1  0
  6  8  1  0
  7 33  1  0
  7 34  1  0
  7 35  1  0
  8 36  1  0
  8 37  1  0
  8 38  1  0
  9 10  1  0
  9 39  1  0
 10 26  1  0
 10 11  2  0
 11 12  1  0
 11 40  1  0
 12 13  2  3
 12 24  1  0
 13 14  1  0
 13 41  1  0
 14 15  1  0
 14 42  1  0
 14 43  1  0
 15 16  1  0
 15 44  1  0
 15 45  1  0
 16 23  1  0
 16 17  1  0
 16 19  1  0
 17 18  1  0
 17 46  1  0
 17 47  1  0
 18 48  1  0
 18 49  1  0
 18 50  1  0
 19 20  1  0
 19 51  1  0
 19 52  1  0
 20 21  1  0
 20 53  1  0
 20 54  1  0
 21 22  1  0
 22 23  1  0
 22 55  1  0
 22 56  1  0
 23 57  1  0
 23 58  1  0
 24 25  1  0
 24 59  1  0
 24 60  1  0
 25 26  1  0
 25 61  1  0
 25 62  1  0
 26 63  1  1
M  CHG  1  16   1
M  END
>  <i_m_ct_stereo_status>  (194) 
1

>  <s_m_source_file>  (194) 
/var/tmp/pbs.5076255.sched01/tmpi5tju4vo/80qzp1lgse.sdf

>  <i_m_source_file_index>  (194) 
5

>  <i_lp_mmshare_version>  (194) 
48012

>  <i_f3d_flags>  (194) 
0

>  <s_epik_input>  (194) 
W0NIM10vW0NIXT1bQ0hdL1tDQEhdKEMoPVtDSF0xKU4oW0NIM10pW0NIM10pW0NASF0oQzE9MilbQ0gyXVtDSDJdQyhcW0NIXTIpPVtDSF0vW0NIMl1bQ0gyXVtOK10zKFtDSDJdW0NIM10pW0NIMl1bQ0gyXU9bQ0gyXVtDSDJdMw==

>  <s_epik_cmdline>  (194) 
J2VwaWtfcHl0aG9uJywgJy1waHQnLCAnMi4wJywgJy1waCcsICc3LjAnLCAnLXRuJywgJzgnLCAnLW1hJywgJzIwMCcsICctaW1hZScsICc8aW5maWxlLm1hZT4nLCAnLW9tYWUnLCAnPG91dGZpbGUubWFlPic=

>  <r_epik_Ionization_Penalty>  (194) 
0.00454615

>  <r_epik_Ionization_Penalty_Charging>  (194) 
0

>  <r_epik_Ionization_Penalty_Neutral>  (194) 
0.00454615

>  <r_epik_State_Penalty>  (194) 
0.003282

>  <r_epik_Charging_Adjusted_Penalty>  (194) 
0.003282

>  <i_epik_Tot_Q>  (194) 
1

>  <i_epik_Tot_abs_Q>  (194) 
1

>  <s_lp_Force_Field>  (194) 
OPLS3e

>  <r_lp_Energy>  (194) 
22.5955

>  <b_lp_Chiralities_Consistent>  (194) 
1

>  <s_lp_Variant>  (194) 
60:0-3

>  <s_i_glide_gridfile>  (194) 
pfpi4k_grid

>  <i_i_glide_lignum>  (194) 
5

>  <i_i_glide_rotatable_bonds>  (194) 
6

>  <r_i_docking_score>  (194) 
-2.28217

>  <r_i_glide_ligand_efficiency>  (194) 
-0.0877758

>  <r_i_glide_ligand_efficiency_sa>  (194) 
-0.260035

>  <r_i_glide_ligand_efficiency_ln>  (194) 
-0.53596

>  <r_i_glide_gscore>  (194) 
-2.28217

>  <r_i_glide_lipo>  (194) 
-0.627257

>  <r_i_glide_hbond>  (194) 
0

>  <r_i_glide_metal>  (194) 
-0

>  <r_i_glide_rewards>  (194) 
-0.971232

>  <r_i_glide_evdw>  (194) 
-20.1016

>  <r_i_glide_ecoul>  (194) 
-1.77851

>  <r_i_glide_erotb>  (194) 
0.599025

>  <r_i_glide_esite>  (194) 
-0.0108504

>  <r_i_glide_emodel>  (194) 
-15.9445

>  <r_i_glide_energy>  (194) 
-21.8801

>  <r_i_glide_einternal>  (194) 
10.2585

>  <r_i_glide_intrahb_reward>  (194) 
-0

>  <i_i_glide_confnum>  (194) 
4

>  <i_i_glide_posenum>  (194) 
24

>  <r_i_glide_eff_state_penalty>  (194) 
0

>  <ligand_id>  (194) 
60

>  <original_smiles>  (194) 
CC=CC1C(N(C)C)=CC2=CC(=CCC[N+]3(CC)CCOCC3)CCC21

>  <smiles>  (194) 
[H]C1=C(N(C([H])([H])[H])C([H])([H])[H])C([H])(C([H])=C([H])C([H])([H])[H])C2([H])C1=C([H])C(=C([H])C([H])([H])C([H])([H])[N+]1(C([H])([H])C([H])([H])[H])C([H])([H])C([H])([H])OC([H])([H])C1([H])[H])C([H])([H])C2([H])[H]

$$$$
60:2:1
     RDKit          3D

 63 65  0  0  1  0  0  0  0  0999 V2000
   -1.9797   -7.5382    3.2384 C   0  0  0  0  0  0  0  0  0  0  0  0
   -0.9312   -7.6707    4.3198 C   0  0  0  0  0  0  0  0  0  0  0  0
    0.0913   -6.8192    4.4969 C   0  0  0  0  0  0  0  0  0  0  0  0
    1.1660   -6.9503    5.5652 C   0  0  2  0  0  0  0  0  0  0  0  0
    1.3783   -5.5892    6.2384 C   0  0  0  0  0  0  0  0  0  0  0  0
    0.4423   -5.0835    7.1422 N   0  0  0  0  0  0  0  0  0  0  0  0
   -0.7334   -5.8255    7.5699 C   0  0  0  0  0  0  0  0  0  0  0  0
    0.4163   -3.6902    7.5522 C   0  0  0  0  0  0  0  0  0  0  0  0
    2.4997   -4.9891    5.8021 C   0  0  0  0  0  0  0  0  0  0  0  0
    3.1733   -5.8772    4.8983 C   0  0  0  0  0  0  0  0  0  0  0  0
    4.1455   -5.5476    4.0330 C   0  0  0  0  0  0  0  0  0  0  0  0
    4.6628   -6.5322    3.0826 C   0  0  0  0  0  0  0  0  0  0  0  0
    5.5485   -6.2068    2.1211 C   0  0  0  0  0  0  0  0  0  0  0  0
    6.1349   -4.8402    1.8209 C   0  0  0  0  0  0  0  0  0  0  0  0
    5.9998   -4.4489    0.3275 C   0  0  0  0  0  0  0  0  0  0  0  0
    6.6963   -3.1788   -0.0740 N   0  0  0  0  0  0  0  0  0  0  0  0
    8.1609   -3.3403    0.2167 C   0  0  0  0  0  0  0  0  0  0  0  0
    9.0456   -2.1339   -0.0942 C   0  0  0  0  0  0  0  0  0  0  0  0
    6.1546   -1.9839    0.6647 C   0  0  0  0  0  0  0  0  0  0  0  0
    4.7400   -1.5847    0.2139 C   0  0  0  0  0  0  0  0  0  0  0  0
    4.7704   -1.3305   -1.1809 O   0  0  0  0  0  0  0  0  0  0  0  0
    5.0775   -2.5017   -1.9216 C   0  0  0  0  0  0  0  0  0  0  0  0
    6.4995   -2.9609   -1.5485 C   0  0  0  0  0  0  0  0  0  0  0  0
    4.1910   -7.9792    3.1989 C   0  0  0  0  0  0  0  0  0  0  0  0
    2.7259   -8.0457    3.6719 C   0  0  0  0  0  0  0  0  0  0  0  0
    2.5675   -7.2496    4.9810 C   0  0  2  0  0  0  0  0  0  0  0  0
   -1.9622   -8.4216    2.5984 H   0  0  0  0  0  0  0  0  0  0  0  0
   -1.8030   -6.6642    2.6117 H   0  0  0  0  0  0  0  0  0  0  0  0
   -2.9715   -7.4568    3.6806 H   0  0  0  0  0  0  0  0  0  0  0  0
   -1.0242   -8.5288    4.9735 H   0  0  0  0  0  0  0  0  0  0  0  0
    0.1940   -5.9590    3.8499 H   0  0  0  0  0  0  0  0  0  0  0  0
    0.8984   -7.7285    6.2787 H   0  0  0  0  0  0  0  0  0  0  0  0
   -0.5389   -6.8916    7.6769 H   0  0  0  0  0  0  0  0  0  0  0  0
   -1.5161   -5.6770    6.8276 H   0  0  0  0  0  0  0  0  0  0  0  0
   -1.1093   -5.4726    8.5307 H   0  0  0  0  0  0  0  0  0  0  0  0
    1.4088   -3.2410    7.5860 H   0  0  0  0  0  0  0  0  0  0  0  0
   -0.0276   -3.5728    8.5423 H   0  0  0  0  0  0  0  0  0  0  0  0
   -0.1935   -3.1377    6.8386 H   0  0  0  0  0  0  0  0  0  0  0  0
    2.8650   -4.0179    6.1001 H   0  0  0  0  0  0  0  0  0  0  0  0
    4.5017   -4.5312    4.0571 H   0  0  0  0  0  0  0  0  0  0  0  0
    5.9177   -7.0010    1.4863 H   0  0  0  0  0  0  0  0  0  0  0  0
    5.6446   -4.0829    2.4244 H   0  0  0  0  0  0  0  0  0  0  0  0
    7.1672   -4.9039    2.1470 H   0  0  0  0  0  0  0  0  0  0  0  0
    6.3538   -5.2804   -0.2830 H   0  0  0  0  0  0  0  0  0  0  0  0
    4.9333   -4.4042    0.1057 H   0  0  0  0  0  0  0  0  0  0  0  0
    8.3371   -3.5662    1.2663 H   0  0  0  0  0  0  0  0  0  0  0  0
    8.5430   -4.1994   -0.3425 H   0  0  0  0  0  0  0  0  0  0  0  0
   10.0802   -2.3830    0.1397 H   0  0  0  0  0  0  0  0  0  0  0  0
    8.8225   -1.2551    0.5022 H   0  0  0  0  0  0  0  0  0  0  0  0
    9.0124   -1.8631   -1.1431 H   0  0  0  0  0  0  0  0  0  0  0  0
    6.1864   -2.1307    1.7417 H   0  0  0  0  0  0  0  0  0  0  0  0
    6.7564   -1.0936    0.4948 H   0  0  0  0  0  0  0  0  0  0  0  0
    3.9859   -2.3301    0.4616 H   0  0  0  0  0  0  0  0  0  0  0  0
    4.4537   -0.6647    0.7246 H   0  0  0  0  0  0  0  0  0  0  0  0
    4.3286   -3.2765   -1.7603 H   0  0  0  0  0  0  0  0  0  0  0  0
    5.0451   -2.2557   -2.9873 H   0  0  0  0  0  0  0  0  0  0  0  0
    7.1469   -2.1838   -1.9446 H   0  0  0  0  0  0  0  0  0  0  0  0
    6.7555   -3.8553   -2.1193 H   0  0  0  0  0  0  0  0  0  0  0  0
    4.2835   -8.4860    2.2366 H   0  0  0  0  0  0  0  0  0  0  0  0
    4.8407   -8.5146    3.8945 H   0  0  0  0  0  0  0  0  0  0  0  0
    2.0945   -7.6269    2.8864 H   0  0  0  0  0  0  0  0  0  0  0  0
    2.4092   -9.0805    3.8177 H   0  0  0  0  0  0  0  0  0  0  0  0
    3.1506   -7.7580    5.7498 H   0  0  0  0  0  0  0  0  0  0  0  0
  1  2  1  0
  1 27  1  0
  1 28  1  0
  1 29  1  0
  2  3  2  3
  2 30  1  0
  3  4  1  0
  3 31  1  0
  4 26  1  0
  4  5  1  0
  4 32  1  1
  5  6  1  0
  5  9  2  0
  6  7  1  0
  6  8  1  0
  7 33  1  0
  7 34  1  0
  7 35  1  0
  8 36  1  0
  8 37  1  0
  8 38  1  0
  9 10  1  0
  9 39  1  0
 10 26  1  0
 10 11  2  0
 11 12  1  0
 11 40  1  0
 12 13  2  3
 12 24  1  0
 13 14  1  0
 13 41  1  0
 14 15  1  0
 14 42  1  0
 14 43  1  0
 15 16  1  0
 15 44  1  0
 15 45  1  0
 16 23  1  0
 16 17  1  0
 16 19  1  0
 17 18  1  0
 17 46  1  0
 17 47  1  0
 18 48  1  0
 18 49  1  0
 18 50  1  0
 19 20  1  0
 19 51  1  0
 19 52  1  0
 20 21  1  0
 20 53  1  0
 20 54  1  0
 21 22  1  0
 22 23  1  0
 22 55  1  0
 22 56  1  0
 23 57  1  0
 23 58  1  0
 24 25  1  0
 24 59  1  0
 24 60  1  0
 25 26  1  0
 25 61  1  0
 25 62  1  0
 26 63  1  1
M  CHG  1  16   1
M  END
>  <i_m_ct_stereo_status>  (195) 
1

>  <s_m_source_file>  (195) 
/var/tmp/pbs.5076255.sched01/tmpi5tju4vo/80qzp1lgse.sdf

>  <i_m_source_file_index>  (195) 
5

>  <i_lp_mmshare_version>  (195) 
48012

>  <i_f3d_flags>  (195) 
0

>  <s_epik_input>  (195) 
W0NIM10vW0NIXT1bQ0hdL1tDQEhdKEMoPVtDSF0xKU4oW0NIM10pW0NIM10pW0NASF0oQzE9MilbQ0gyXVtDSDJdQyhcW0NIXTIpPVtDSF0vW0NIMl1bQ0gyXVtOK10zKFtDSDJdW0NIM10pW0NIMl1bQ0gyXU9bQ0gyXVtDSDJdMw==

>  <s_epik_cmdline>  (195) 
J2VwaWtfcHl0aG9uJywgJy1waHQnLCAnMi4wJywgJy1waCcsICc3LjAnLCAnLXRuJywgJzgnLCAnLW1hJywgJzIwMCcsICctaW1hZScsICc8aW5maWxlLm1hZT4nLCAnLW9tYWUnLCAnPG91dGZpbGUubWFlPic=

>  <r_epik_Ionization_Penalty>  (195) 
0.00454615

>  <r_epik_Ionization_Penalty_Charging>  (195) 
0

>  <r_epik_Ionization_Penalty_Neutral>  (195) 
0.00454615

>  <r_epik_State_Penalty>  (195) 
0.003282

>  <r_epik_Charging_Adjusted_Penalty>  (195) 
0.003282

>  <i_epik_Tot_Q>  (195) 
1

>  <i_epik_Tot_abs_Q>  (195) 
1

>  <s_lp_Force_Field>  (195) 
OPLS3e

>  <r_lp_Energy>  (195) 
22.5955

>  <b_lp_Chiralities_Consistent>  (195) 
1

>  <s_lp_Variant>  (195) 
60:0-3

>  <s_i_glide_gridfile>  (195) 
pfpi4k_grid

>  <i_i_glide_lignum>  (195) 
5

>  <i_i_glide_rotatable_bonds>  (195) 
6

>  <r_i_docking_score>  (195) 
-2.01641

>  <r_i_glide_ligand_efficiency>  (195) 
-0.0775541

>  <r_i_glide_ligand_efficiency_sa>  (195) 
-0.229754

>  <r_i_glide_ligand_efficiency_ln>  (195) 
-0.473546

>  <r_i_glide_gscore>  (195) 
-2.01641

>  <r_i_glide_lipo>  (195) 
-0.59902

>  <r_i_glide_hbond>  (195) 
0

>  <r_i_glide_metal>  (195) 
-0

>  <r_i_glide_rewards>  (195) 
-0.971232

>  <r_i_glide_evdw>  (195) 
-20.0504

>  <r_i_glide_ecoul>  (195) 
-0.272599

>  <r_i_glide_erotb>  (195) 
0.599025

>  <r_i_glide_esite>  (195) 
-0.00177121

>  <r_i_glide_emodel>  (195) 
-20.0402

>  <r_i_glide_energy>  (195) 
-20.323

>  <r_i_glide_einternal>  (195) 
4.21301

>  <r_i_glide_intrahb_reward>  (195) 
-0

>  <i_i_glide_confnum>  (195) 
3

>  <i_i_glide_posenum>  (195) 
2

>  <r_i_glide_eff_state_penalty>  (195) 
0

>  <ligand_id>  (195) 
60

>  <original_smiles>  (195) 
CC=CC1C(N(C)C)=CC2=CC(=CCC[N+]3(CC)CCOCC3)CCC21

>  <smiles>  (195) 
[H]C1=C(N(C([H])([H])[H])C([H])([H])[H])C([H])(C([H])=C([H])C([H])([H])[H])C2([H])C1=C([H])C(=C([H])C([H])([H])C([H])([H])[N+]1(C([H])([H])C([H])([H])[H])C([H])([H])C([H])([H])OC([H])([H])C1([H])[H])C([H])([H])C2([H])[H]

$$$$
61:0:0
     RDKit          3D

 33 36  0  0  1  0  0  0  0  0999 V2000
   -1.7122   -8.4736    2.1127 C   0  0  0  0  0  0  0  0  0  0  0  0
   -0.6935   -7.8519    1.8373 C   0  0  0  0  0  0  0  0  0  0  0  0
    0.5404   -7.1742    1.5414 C   0  0  0  0  0  0  0  0  0  0  0  0
    0.6327   -6.2612    0.5066 N   0  0  0  0  0  0  0  0  0  0  0  0
    1.8851   -5.8258    0.5837 C   0  0  0  0  0  0  0  0  0  0  0  0
    2.6003   -6.3416    1.5996 N   0  0  0  0  0  0  0  0  0  0  0  0
    3.9829   -6.0046    1.9854 C   0  0  2  0  0  0  0  0  0  0  0  0
    4.1040   -4.5885    2.6038 C   0  0  0  0  0  0  0  0  0  0  0  0
    4.5032   -3.6414    1.4693 C   0  0  0  0  0  0  0  0  0  0  0  0
    5.0235   -4.2760    0.3452 C   0  0  0  0  0  0  0  0  0  0  0  0
    5.4622   -3.5516   -0.7776 C   0  0  0  0  0  0  0  0  0  0  0  0
    5.3847   -2.1973   -0.8469 N   0  0  0  0  0  0  0  0  0  0  0  0
    4.8415   -1.5755    0.2458 C   0  0  0  0  0  0  0  0  0  0  0  0
    4.6066   -0.2484    0.4837 N   0  0  0  0  0  0  0  0  0  0  0  0
    4.0313   -0.1092    1.7490 C   0  0  0  0  0  0  0  0  0  0  0  0
    3.9111   -1.3557    2.3395 C   0  0  0  0  0  0  0  0  0  0  0  0
    4.4195   -2.2581    1.3813 C   0  0  0  0  0  0  0  0  0  0  0  0
    4.9868   -6.0178    0.4751 S   0  0  0  0  0  0  0  0  0  0  0  0
    1.7694   -7.2778    2.1824 C   0  0  0  0  0  0  0  0  0  0  0  0
    2.2298   -8.0151    3.2091 O   0  0  0  0  0  0  0  0  0  0  0  0
    2.1497   -9.4141    2.9854 C   0  0  0  0  0  0  0  0  0  0  0  0
    4.8163    0.5073   -0.1604 H   0  0  0  0  0  0  0  0  0  0  0  0
   -2.5672   -9.0576    2.3396 H   0  0  0  0  0  0  0  0  0  0  0  0
    2.2770   -5.0650   -0.0698 H   0  0  0  0  0  0  0  0  0  0  0  0
    4.3716   -6.7900    2.6497 H   0  0  0  0  0  0  0  0  0  0  0  0
    3.2087   -4.2793    3.1644 H   0  0  0  0  0  0  0  0  0  0  0  0
    4.9433   -4.6065    3.2937 H   0  0  0  0  0  0  0  0  0  0  0  0
    5.8525   -4.0782   -1.6452 H   0  0  0  0  0  0  0  0  0  0  0  0
    3.7687    0.8776    2.1283 H   0  0  0  0  0  0  0  0  0  0  0  0
    3.5306   -1.6754    3.3007 H   0  0  0  0  0  0  0  0  0  0  0  0
    2.3865   -9.9587    3.9033 H   0  0  0  0  0  0  0  0  0  0  0  0
    2.8615   -9.6931    2.2069 H   0  0  0  0  0  0  0  0  0  0  0  0
    1.1576   -9.7384    2.6647 H   0  0  0  0  0  0  0  0  0  0  0  0
  1  2  3  0
  1 23  1  0
  2  3  1  0
  3 19  2  0
  3  4  1  0
  4  5  2  0
  5  6  1  0
  5 24  1  0
  6  7  1  0
  6 19  1  0
  7 18  1  0
  7  8  1  0
  7 25  1  1
  8  9  1  0
  8 26  1  0
  8 27  1  0
  9 17  1  0
  9 10  2  0
 10 11  1  0
 10 18  1  0
 11 12  2  0
 11 28  1  0
 12 13  1  0
 13 17  2  0
 13 14  1  0
 14 22  1  0
 14 15  1  0
 15 16  2  0
 15 29  1  0
 16 17  1  0
 16 30  1  0
 19 20  1  0
 20 21  1  0
 21 31  1  0
 21 32  1  0
 21 33  1  0
M  END
>  <i_m_ct_stereo_status>  (196) 
1

>  <s_m_source_file>  (196) 
/var/tmp/pbs.5076255.sched01/tmpi5tju4vo/80qzp1lgse.sdf

>  <i_m_source_file_index>  (196) 
7

>  <i_lp_mmshare_version>  (196) 
48012

>  <i_f3d_flags>  (196) 
0

>  <s_epik_input>  (196) 
W0NIXSNDYzFuW2NIXW4oYzFPW0NIM10pW0NASF0oW0NIMl0yKVNjKGMyMylbY0hdbmM0YzNbY0hdW2NIXVtuSF00

>  <s_epik_cmdline>  (196) 
J2VwaWtfcHl0aG9uJywgJy1waHQnLCAnMi4wJywgJy1waCcsICc3LjAnLCAnLXRuJywgJzgnLCAnLW1hJywgJzIwMCcsICctaW1hZScsICc8aW5maWxlLm1hZT4nLCAnLW9tYWUnLCAnPG91dGZpbGUubWFlPic=

>  <r_lp_tautomer_probability>  (196) 
1

>  <r_epik_Ionization_Penalty>  (196) 
0.00238392

>  <r_epik_Ionization_Penalty_Charging>  (196) 
0.00145894

>  <r_epik_Ionization_Penalty_Neutral>  (196) 
0.000924981

>  <r_epik_State_Penalty>  (196) 
-0

>  <r_epik_Charging_Adjusted_Penalty>  (196) 
0.00145894

>  <i_epik_Tot_Q>  (196) 
0

>  <i_epik_Tot_abs_Q>  (196) 
0

>  <s_epik_Chemistry_Notes>  (196) 
This compound contains an acetal/aminal-like group ( X-CH(R)-Y where X, Y are N, S, or O) that may be acid/base labile, releasing an aldehyde.

>  <s_lp_Force_Field>  (196) 
OPLS3e

>  <r_lp_Energy>  (196) 
20.8421

>  <b_lp_Chiralities_Consistent>  (196) 
1

>  <s_lp_Variant>  (196) 
61:0-1

>  <s_i_glide_gridfile>  (196) 
pfpi4k_grid

>  <i_i_glide_lignum>  (196) 
7

>  <i_i_glide_rotatable_bonds>  (196) 
3

>  <r_i_docking_score>  (196) 
-4.48517

>  <r_i_glide_ligand_efficiency>  (196) 
-0.21358

>  <r_i_glide_ligand_efficiency_sa>  (196) 
-0.58925

>  <r_i_glide_ligand_efficiency_ln>  (196) 
-1.10895

>  <r_i_glide_gscore>  (196) 
-4.48517

>  <r_i_glide_lipo>  (196) 
-0.476437

>  <r_i_glide_hbond>  (196) 
-0.542445

>  <r_i_glide_metal>  (196) 
-0

>  <r_i_glide_rewards>  (196) 
-1.39525

>  <r_i_glide_evdw>  (196) 
-24.2549

>  <r_i_glide_ecoul>  (196) 
-8.0148

>  <r_i_glide_erotb>  (196) 
0.417174

>  <r_i_glide_esite>  (196) 
-0.073253

>  <r_i_glide_emodel>  (196) 
-41.4707

>  <r_i_glide_energy>  (196) 
-32.2697

>  <r_i_glide_einternal>  (196) 
-0.211751

>  <r_i_glide_intrahb_reward>  (196) 
-0

>  <i_i_glide_confnum>  (196) 
1

>  <i_i_glide_posenum>  (196) 
1

>  <r_i_glide_eff_state_penalty>  (196) 
0

>  <ligand_id>  (196) 
61

>  <original_smiles>  (196) 
C#Cc1ncn(C2Cc3c(cnc4[nH]ccc34)S2)c1OC

>  <smiles>  (196) 
[H]C#Cc1nc([H])n(C2([H])Sc3c([H])nc4c(c([H])c([H])n4[H])c3C2([H])[H])c1OC([H])([H])[H]

$$$$
61:0:1
     RDKit          3D

 33 36  0  0  1  0  0  0  0  0999 V2000
    0.9636   -5.5392    8.7547 C   0  0  0  0  0  0  0  0  0  0  0  0
    0.8070   -6.5500    8.0863 C   0  0  0  0  0  0  0  0  0  0  0  0
    0.5961   -7.6887    7.2618 C   0  0  0  0  0  0  0  0  0  0  0  0
    0.2071   -8.9124    7.7890 N   0  0  0  0  0  0  0  0  0  0  0  0
    0.1039   -9.6980    6.7241 C   0  0  0  0  0  0  0  0  0  0  0  0
    0.3994   -9.1235    5.5517 N   0  0  0  0  0  0  0  0  0  0  0  0
    0.3699   -9.7692    4.2351 C   0  0  2  0  0  0  0  0  0  0  0  0
    1.7208   -9.6818    3.4689 C   0  0  0  0  0  0  0  0  0  0  0  0
    1.6154   -8.4970    2.5285 C   0  0  0  0  0  0  0  0  0  0  0  0
    0.3007   -8.1005    2.2785 C   0  0  0  0  0  0  0  0  0  0  0  0
    0.0212   -7.0177    1.4437 C   0  0  0  0  0  0  0  0  0  0  0  0
    0.9743   -6.2489    0.8724 N   0  0  0  0  0  0  0  0  0  0  0  0
    2.2647   -6.6290    1.1376 C   0  0  0  0  0  0  0  0  0  0  0  0
    3.4416   -6.0827    0.6874 N   0  0  0  0  0  0  0  0  0  0  0  0
    4.5031   -6.8318    1.1944 C   0  0  0  0  0  0  0  0  0  0  0  0
    4.0108   -7.8531    1.9895 C   0  0  0  0  0  0  0  0  0  0  0  0
    2.6038   -7.7135    1.9236 C   0  0  0  0  0  0  0  0  0  0  0  0
   -0.8936   -8.9653    3.1977 S   0  0  0  0  0  0  0  0  0  0  0  0
    0.6870   -7.7972    5.8870 C   0  0  0  0  0  0  0  0  0  0  0  0
    1.0123   -6.9086    4.9211 O   0  0  0  0  0  0  0  0  0  0  0  0
    0.0724   -5.8561    4.7862 C   0  0  0  0  0  0  0  0  0  0  0  0
    3.5215   -5.3199    0.0307 H   0  0  0  0  0  0  0  0  0  0  0  0
    1.1116   -4.6624    9.3450 H   0  0  0  0  0  0  0  0  0  0  0  0
   -0.1887  -10.7354    6.8011 H   0  0  0  0  0  0  0  0  0  0  0  0
    0.0829  -10.8138    4.3837 H   0  0  0  0  0  0  0  0  0  0  0  0
    2.5789   -9.6529    4.1426 H   0  0  0  0  0  0  0  0  0  0  0  0
    1.8101  -10.5667    2.8396 H   0  0  0  0  0  0  0  0  0  0  0  0
   -0.9864   -6.6964    1.2999 H   0  0  0  0  0  0  0  0  0  0  0  0
    5.5265   -6.5776    0.9358 H   0  0  0  0  0  0  0  0  0  0  0  0
    4.5072   -8.6331    2.5471 H   0  0  0  0  0  0  0  0  0  0  0  0
    0.3930   -5.1808    3.9901 H   0  0  0  0  0  0  0  0  0  0  0  0
   -0.0274   -5.2784    5.7055 H   0  0  0  0  0  0  0  0  0  0  0  0
   -0.9054   -6.2650    4.5236 H   0  0  0  0  0  0  0  0  0  0  0  0
  1  2  3  0
  1 23  1  0
  2  3  1  0
  3 19  2  0
  3  4  1  0
  4  5  2  0
  5  6  1  0
  5 24  1  0
  6  7  1  0
  6 19  1  0
  7 18  1  0
  7  8  1  0
  7 25  1  1
  8  9  1  0
  8 26  1  0
  8 27  1  0
  9 17  1  0
  9 10  2  0
 10 11  1  0
 10 18  1  0
 11 12  2  0
 11 28  1  0
 12 13  1  0
 13 17  2  0
 13 14  1  0
 14 22  1  0
 14 15  1  0
 15 16  2  0
 15 29  1  0
 16 17  1  0
 16 30  1  0
 19 20  1  0
 20 21  1  0
 21 31  1  0
 21 32  1  0
 21 33  1  0
M  END
>  <i_m_ct_stereo_status>  (197) 
1

>  <s_m_source_file>  (197) 
/var/tmp/pbs.5076255.sched01/tmpi5tju4vo/80qzp1lgse.sdf

>  <i_m_source_file_index>  (197) 
7

>  <i_lp_mmshare_version>  (197) 
48012

>  <i_f3d_flags>  (197) 
0

>  <s_epik_input>  (197) 
W0NIXSNDYzFuW2NIXW4oYzFPW0NIM10pW0NASF0oW0NIMl0yKVNjKGMyMylbY0hdbmM0YzNbY0hdW2NIXVtuSF00

>  <s_epik_cmdline>  (197) 
J2VwaWtfcHl0aG9uJywgJy1waHQnLCAnMi4wJywgJy1waCcsICc3LjAnLCAnLXRuJywgJzgnLCAnLW1hJywgJzIwMCcsICctaW1hZScsICc8aW5maWxlLm1hZT4nLCAnLW9tYWUnLCAnPG91dGZpbGUubWFlPic=

>  <r_lp_tautomer_probability>  (197) 
1

>  <r_epik_Ionization_Penalty>  (197) 
0.00238392

>  <r_epik_Ionization_Penalty_Charging>  (197) 
0.00145894

>  <r_epik_Ionization_Penalty_Neutral>  (197) 
0.000924981

>  <r_epik_State_Penalty>  (197) 
-0

>  <r_epik_Charging_Adjusted_Penalty>  (197) 
0.00145894

>  <i_epik_Tot_Q>  (197) 
0

>  <i_epik_Tot_abs_Q>  (197) 
0

>  <s_epik_Chemistry_Notes>  (197) 
This compound contains an acetal/aminal-like group ( X-CH(R)-Y where X, Y are N, S, or O) that may be acid/base labile, releasing an aldehyde.

>  <s_lp_Force_Field>  (197) 
OPLS3e

>  <r_lp_Energy>  (197) 
20.8421

>  <b_lp_Chiralities_Consistent>  (197) 
1

>  <s_lp_Variant>  (197) 
61:0-1

>  <s_i_glide_gridfile>  (197) 
pfpi4k_grid

>  <i_i_glide_lignum>  (197) 
7

>  <i_i_glide_rotatable_bonds>  (197) 
3

>  <r_i_docking_score>  (197) 
-3.30311

>  <r_i_glide_ligand_efficiency>  (197) 
-0.157291

>  <r_i_glide_ligand_efficiency_sa>  (197) 
-0.433953

>  <r_i_glide_ligand_efficiency_ln>  (197) 
-0.816686

>  <r_i_glide_gscore>  (197) 
-3.30311

>  <r_i_glide_lipo>  (197) 
-0.0916567

>  <r_i_glide_hbond>  (197) 
-0.16

>  <r_i_glide_metal>  (197) 
-0

>  <r_i_glide_rewards>  (197) 
-1.38854

>  <r_i_glide_evdw>  (197) 
-23.539

>  <r_i_glide_ecoul>  (197) 
-4.97073

>  <r_i_glide_erotb>  (197) 
0.417174

>  <r_i_glide_esite>  (197) 
-0.157529

>  <r_i_glide_emodel>  (197) 
-34.8642

>  <r_i_glide_energy>  (197) 
-28.5097

>  <r_i_glide_einternal>  (197) 
0.339851

>  <r_i_glide_intrahb_reward>  (197) 
-0

>  <i_i_glide_confnum>  (197) 
5

>  <i_i_glide_posenum>  (197) 
3

>  <r_i_glide_eff_state_penalty>  (197) 
0

>  <ligand_id>  (197) 
61

>  <original_smiles>  (197) 
C#Cc1ncn(C2Cc3c(cnc4[nH]ccc34)S2)c1OC

>  <smiles>  (197) 
[H]C#Cc1nc([H])n(C2([H])Sc3c([H])nc4c(c([H])c([H])n4[H])c3C2([H])[H])c1OC([H])([H])[H]

$$$$
61:0:2
     RDKit          3D

 33 36  0  0  1  0  0  0  0  0999 V2000
    3.8090   -0.9828   -4.7144 C   0  0  0  0  0  0  0  0  0  0  0  0
    3.8623   -1.6017   -3.6390 C   0  0  0  0  0  0  0  0  0  0  0  0
    3.9293   -2.3161   -2.4161 C   0  0  0  0  0  0  0  0  0  0  0  0
    2.8554   -3.0371   -1.9259 N   0  0  0  0  0  0  0  0  0  0  0  0
    3.2861   -3.5234   -0.7686 C   0  0  0  0  0  0  0  0  0  0  0  0
    4.5690   -3.2216   -0.4730 N   0  0  0  0  0  0  0  0  0  0  0  0
    5.3274   -3.6597    0.6933 C   0  0  2  0  0  0  0  0  0  0  0  0
    5.5120   -5.2082    0.6992 C   0  0  0  0  0  0  0  0  0  0  0  0
    4.4345   -5.7540    1.6178 C   0  0  0  0  0  0  0  0  0  0  0  0
    3.8717   -4.8040    2.4680 C   0  0  0  0  0  0  0  0  0  0  0  0
    2.8765   -5.1362    3.3930 C   0  0  0  0  0  0  0  0  0  0  0  0
    2.3494   -6.3835    3.4836 N   0  0  0  0  0  0  0  0  0  0  0  0
    2.8910   -7.3145    2.6282 C   0  0  0  0  0  0  0  0  0  0  0  0
    2.5797   -8.6438    2.4810 N   0  0  0  0  0  0  0  0  0  0  0  0
    3.3967   -9.1901    1.4901 C   0  0  0  0  0  0  0  0  0  0  0  0
    4.2294   -8.1980    0.9851 C   0  0  0  0  0  0  0  0  0  0  0  0
    3.9002   -7.0400    1.7250 C   0  0  0  0  0  0  0  0  0  0  0  0
    4.4248   -3.1873    2.1882 S   0  0  0  0  0  0  0  0  0  0  0  0
    4.9962   -2.4302   -1.5296 C   0  0  0  0  0  0  0  0  0  0  0  0
    6.2536   -1.9258   -1.5298 O   0  0  0  0  0  0  0  0  0  0  0  0
    7.2799   -2.8728   -1.8334 C   0  0  0  0  0  0  0  0  0  0  0  0
    1.8937   -9.1546    3.0181 H   0  0  0  0  0  0  0  0  0  0  0  0
    3.7267   -0.4506   -5.6228 H   0  0  0  0  0  0  0  0  0  0  0  0
    2.6822   -4.1488   -0.1299 H   0  0  0  0  0  0  0  0  0  0  0  0
    6.2658   -3.1000    0.7961 H   0  0  0  0  0  0  0  0  0  0  0  0
    5.5215   -5.6538   -0.3103 H   0  0  0  0  0  0  0  0  0  0  0  0
    6.4729   -5.4404    1.1546 H   0  0  0  0  0  0  0  0  0  0  0  0
    2.4757   -4.3586    4.0361 H   0  0  0  0  0  0  0  0  0  0  0  0
    3.3231  -10.2452    1.2317 H   0  0  0  0  0  0  0  0  0  0  0  0
    4.9862   -8.2128    0.2161 H   0  0  0  0  0  0  0  0  0  0  0  0
    8.2383   -2.3538   -1.8948 H   0  0  0  0  0  0  0  0  0  0  0  0
    7.0606   -3.3815   -2.7640 H   0  0  0  0  0  0  0  0  0  0  0  0
    7.3990   -3.6597   -1.0894 H   0  0  0  0  0  0  0  0  0  0  0  0
  1  2  3  0
  1 23  1  0
  2  3  1  0
  3 19  2  0
  3  4  1  0
  4  5  2  0
  5  6  1  0
  5 24  1  0
  6  7  1  0
  6 19  1  0
  7 18  1  0
  7  8  1  0
  7 25  1  1
  8  9  1  0
  8 26  1  0
  8 27  1  0
  9 17  1  0
  9 10  2  0
 10 11  1  0
 10 18  1  0
 11 12  2  0
 11 28  1  0
 12 13  1  0
 13 17  2  0
 13 14  1  0
 14 22  1  0
 14 15  1  0
 15 16  2  0
 15 29  1  0
 16 17  1  0
 16 30  1  0
 19 20  1  0
 20 21  1  0
 21 31  1  0
 21 32  1  0
 21 33  1  0
M  END
>  <i_m_ct_stereo_status>  (198) 
1

>  <s_m_source_file>  (198) 
/var/tmp/pbs.5076255.sched01/tmpi5tju4vo/80qzp1lgse.sdf

>  <i_m_source_file_index>  (198) 
7

>  <i_lp_mmshare_version>  (198) 
48012

>  <i_f3d_flags>  (198) 
0

>  <s_epik_input>  (198) 
W0NIXSNDYzFuW2NIXW4oYzFPW0NIM10pW0NASF0oW0NIMl0yKVNjKGMyMylbY0hdbmM0YzNbY0hdW2NIXVtuSF00

>  <s_epik_cmdline>  (198) 
J2VwaWtfcHl0aG9uJywgJy1waHQnLCAnMi4wJywgJy1waCcsICc3LjAnLCAnLXRuJywgJzgnLCAnLW1hJywgJzIwMCcsICctaW1hZScsICc8aW5maWxlLm1hZT4nLCAnLW9tYWUnLCAnPG91dGZpbGUubWFlPic=

>  <r_lp_tautomer_probability>  (198) 
1

>  <r_epik_Ionization_Penalty>  (198) 
0.00238392

>  <r_epik_Ionization_Penalty_Charging>  (198) 
0.00145894

>  <r_epik_Ionization_Penalty_Neutral>  (198) 
0.000924981

>  <r_epik_State_Penalty>  (198) 
-0

>  <r_epik_Charging_Adjusted_Penalty>  (198) 
0.00145894

>  <i_epik_Tot_Q>  (198) 
0

>  <i_epik_Tot_abs_Q>  (198) 
0

>  <s_epik_Chemistry_Notes>  (198) 
This compound contains an acetal/aminal-like group ( X-CH(R)-Y where X, Y are N, S, or O) that may be acid/base labile, releasing an aldehyde.

>  <s_lp_Force_Field>  (198) 
OPLS3e

>  <r_lp_Energy>  (198) 
20.8421

>  <b_lp_Chiralities_Consistent>  (198) 
1

>  <s_lp_Variant>  (198) 
61:0-1

>  <s_i_glide_gridfile>  (198) 
pfpi4k_grid

>  <i_i_glide_lignum>  (198) 
7

>  <i_i_glide_rotatable_bonds>  (198) 
3

>  <r_i_docking_score>  (198) 
-3.03051

>  <r_i_glide_ligand_efficiency>  (198) 
-0.14431

>  <r_i_glide_ligand_efficiency_sa>  (198) 
-0.39814

>  <r_i_glide_ligand_efficiency_ln>  (198) 
-0.749287

>  <r_i_glide_gscore>  (198) 
-3.03051

>  <r_i_glide_lipo>  (198) 
-0.495

>  <r_i_glide_hbond>  (198) 
-0.150156

>  <r_i_glide_metal>  (198) 
-0

>  <r_i_glide_rewards>  (198) 
-1.49185

>  <r_i_glide_evdw>  (198) 
-26.8894

>  <r_i_glide_ecoul>  (198) 
0.290662

>  <r_i_glide_erotb>  (198) 
0.417174

>  <r_i_glide_esite>  (198) 
-0.00980529

>  <r_i_glide_emodel>  (198) 
-32.3963

>  <r_i_glide_energy>  (198) 
-26.5987

>  <r_i_glide_einternal>  (198) 
0.225908

>  <r_i_glide_intrahb_reward>  (198) 
-0

>  <i_i_glide_confnum>  (198) 
1

>  <i_i_glide_posenum>  (198) 
7

>  <r_i_glide_eff_state_penalty>  (198) 
0

>  <ligand_id>  (198) 
61

>  <original_smiles>  (198) 
C#Cc1ncn(C2Cc3c(cnc4[nH]ccc34)S2)c1OC

>  <smiles>  (198) 
[H]C#Cc1nc([H])n(C2([H])Sc3c([H])nc4c(c([H])c([H])n4[H])c3C2([H])[H])c1OC([H])([H])[H]

$$$$
62:0:0
     RDKit          3D

 52 55  0  0  1  0  0  0  0  0999 V2000
    3.8323   -0.7907   -3.6396 C   0  0  0  0  0  0  0  0  0  0  0  0
    4.5330   -1.0447   -2.3132 C   0  0  0  0  0  0  0  0  0  0  0  0
    4.2507   -2.0216   -1.4306 C   0  0  0  0  0  0  0  0  0  0  0  0
    3.1762   -3.0650   -1.6174 C   0  0  0  0  0  0  0  0  0  0  0  0
    3.5498   -4.1637   -0.6344 C   0  0  0  0  0  0  0  0  0  0  0  0
    4.1420   -3.4081    0.5549 C   0  0  1  0  0  0  0  0  0  0  0  0
    4.8641   -4.3405    1.5673 C   0  0  2  0  0  0  0  0  0  0  0  0
    4.8751   -3.7621    3.0022 C   0  0  0  0  0  0  0  0  0  0  0  0
    5.7269   -4.5663    3.9546 C   0  0  0  0  0  0  0  0  0  0  0  0
    6.6446   -5.4725    3.5701 C   0  0  0  0  0  0  0  0  0  0  0  0
    7.3084   -6.3857    4.5853 C   0  0  0  0  0  0  0  0  0  0  0  0
    6.8037   -7.8043    4.3271 C   0  0  0  0  0  0  0  0  0  0  0  0
    6.3920   -8.5187    5.2368 O   0  0  0  0  0  0  0  0  0  0  0  0
    6.8594   -8.2991    2.8832 C   0  0  0  0  0  0  0  0  0  0  0  0
    6.3694   -7.2266    1.8808 C   0  0  0  0  0  0  0  0  0  0  0  0
    6.9488   -5.7970    2.1027 C   0  0  2  0  0  0  0  0  0  0  0  0
    8.4781   -5.8506    1.8461 C   0  0  0  0  0  0  0  0  0  0  0  0
    6.2749   -4.7759    1.1058 C   0  0  2  0  0  0  0  0  0  0  0  0
    7.0779   -3.4931    0.7681 C   0  0  0  0  0  0  0  0  0  0  0  0
    6.4213   -2.6973   -0.3736 C   0  0  0  0  0  0  0  0  0  0  0  0
    4.9652   -2.2549   -0.0957 C   0  0  1  0  0  0  0  0  0  0  0  0
    4.9322   -0.9680    0.7578 C   0  0  0  0  0  0  0  0  0  0  0  0
    3.4649    0.2357   -3.6673 H   0  0  0  0  0  0  0  0  0  0  0  0
    2.9836   -1.4552   -3.8132 H   0  0  0  0  0  0  0  0  0  0  0  0
    4.5386   -0.9105   -4.4607 H   0  0  0  0  0  0  0  0  0  0  0  0
    5.3320   -0.3592   -2.0826 H   0  0  0  0  0  0  0  0  0  0  0  0
    2.2178   -2.6408   -1.3243 H   0  0  0  0  0  0  0  0  0  0  0  0
    3.0964   -3.4220   -2.6443 H   0  0  0  0  0  0  0  0  0  0  0  0
    2.6992   -4.7892   -0.3599 H   0  0  0  0  0  0  0  0  0  0  0  0
    4.3001   -4.8025   -1.1003 H   0  0  0  0  0  0  0  0  0  0  0  0
    3.2902   -2.9594    1.0683 H   0  0  0  0  0  0  0  0  0  0  0  0
    4.2557   -5.2440    1.6305 H   0  0  0  0  0  0  0  0  0  0  0  0
    5.2361   -2.7384    3.0399 H   0  0  0  0  0  0  0  0  0  0  0  0
    3.8566   -3.7577    3.3930 H   0  0  0  0  0  0  0  0  0  0  0  0
    5.5347   -4.4102    5.0063 H   0  0  0  0  0  0  0  0  0  0  0  0
    8.3925   -6.3585    4.4920 H   0  0  0  0  0  0  0  0  0  0  0  0
    7.0613   -6.0849    5.6042 H   0  0  0  0  0  0  0  0  0  0  0  0
    7.8874   -8.5876    2.6625 H   0  0  0  0  0  0  0  0  0  0  0  0
    6.2581   -9.2020    2.7824 H   0  0  0  0  0  0  0  0  0  0  0  0
    6.6052   -7.5796    0.8805 H   0  0  0  0  0  0  0  0  0  0  0  0
    5.2803   -7.1977    1.9339 H   0  0  0  0  0  0  0  0  0  0  0  0
    8.6931   -6.0001    0.7868 H   0  0  0  0  0  0  0  0  0  0  0  0
    8.9746   -6.6618    2.3751 H   0  0  0  0  0  0  0  0  0  0  0  0
    8.9691   -4.9313    2.1704 H   0  0  0  0  0  0  0  0  0  0  0  0
    6.1703   -5.3077    0.1619 H   0  0  0  0  0  0  0  0  0  0  0  0
    7.1613   -2.8626    1.6514 H   0  0  0  0  0  0  0  0  0  0  0  0
    8.0912   -3.7248    0.4456 H   0  0  0  0  0  0  0  0  0  0  0  0
    7.0342   -1.8253   -0.5992 H   0  0  0  0  0  0  0  0  0  0  0  0
    6.4467   -3.3185   -1.2697 H   0  0  0  0  0  0  0  0  0  0  0  0
    5.4954   -1.0720    1.6814 H   0  0  0  0  0  0  0  0  0  0  0  0
    3.9112   -0.6927    1.0202 H   0  0  0  0  0  0  0  0  0  0  0  0
    5.3638   -0.1181    0.2329 H   0  0  0  0  0  0  0  0  0  0  0  0
  1  2  1  0
  1 23  1  0
  1 24  1  0
  1 25  1  0
  2  3  2  3
  2 26  1  0
  3 21  1  0
  3  4  1  0
  4  5  1  0
  4 27  1  0
  4 28  1  0
  5  6  1  0
  5 29  1  0
  5 30  1  0
  6 21  1  0
  6  7  1  0
  6 31  1  1
  7 18  1  0
  7  8  1  0
  7 32  1  1
  8  9  1  0
  8 33  1  0
  8 34  1  0
  9 10  2  0
  9 35  1  0
 10 16  1  0
 10 11  1  0
 11 12  1  0
 11 36  1  0
 11 37  1  0
 12 13  2  0
 12 14  1  0
 14 15  1  0
 14 38  1  0
 14 39  1  0
 15 16  1  0
 15 40  1  0
 15 41  1  0
 16 17  1  1
 16 18  1  0
 17 42  1  0
 17 43  1  0
 17 44  1  0
 18 19  1  0
 18 45  1  6
 19 20  1  0
 19 46  1  0
 19 47  1  0
 20 21  1  0
 20 48  1  0
 20 49  1  0
 21 22  1  1
 22 50  1  0
 22 51  1  0
 22 52  1  0
M  END
>  <i_m_ct_stereo_status>  (199) 
1

>  <s_m_source_file>  (199) 
/var/tmp/pbs.5076255.sched01/tmpi5tju4vo/80qzp1lgse.sdf

>  <i_m_source_file_index>  (199) 
8

>  <i_lp_mmshare_version>  (199) 
48012

>  <i_f3d_flags>  (199) 
0

>  <s_epik_input>  (199) 
W0NIM10vW0NIXT1DKFxbQ0gyXVtDSDJdMSlbQ0BdKFtDSDNdKShbQ0gyXVtDSDJdW0NASF0yMylbQ0BASF0xW0NAQEhdMltDSDJdW0NIXT1DKFtDQF0zNFtDSDNdKVtDSDJdQyg9TylbQ0gyXVtDSDJdNA==

>  <s_epik_cmdline>  (199) 
J2VwaWtfcHl0aG9uJywgJy1waHQnLCAnMi4wJywgJy1waCcsICc3LjAnLCAnLXRuJywgJzgnLCAnLW1hJywgJzIwMCcsICctaW1hZScsICc8aW5maWxlLm1hZT4nLCAnLW9tYWUnLCAnPG91dGZpbGUubWFlPic=

>  <r_lp_tautomer_probability>  (199) 
1

>  <r_epik_Ionization_Penalty>  (199) 
1.72604e-13

>  <r_epik_Ionization_Penalty_Charging>  (199) 
0

>  <r_epik_Ionization_Penalty_Neutral>  (199) 
1.72604e-13

>  <r_epik_State_Penalty>  (199) 
-0

>  <r_epik_Charging_Adjusted_Penalty>  (199) 
0

>  <i_epik_Tot_Q>  (199) 
0

>  <i_epik_Tot_abs_Q>  (199) 
0

>  <s_lp_Force_Field>  (199) 
OPLS3e

>  <r_lp_Energy>  (199) 
39.5647

>  <b_lp_Chiralities_Consistent>  (199) 
1

>  <s_lp_Variant>  (199) 
62:0-1

>  <s_i_glide_gridfile>  (199) 
pfpi4k_grid

>  <i_i_glide_lignum>  (199) 
8

>  <i_i_glide_rotatable_bonds>  (199) 
0

>  <r_i_docking_score>  (199) 
-3.37055

>  <r_i_glide_ligand_efficiency>  (199) 
-0.153207

>  <r_i_glide_ligand_efficiency_sa>  (199) 
-0.429292

>  <r_i_glide_ligand_efficiency_ln>  (199) 
-0.823885

>  <r_i_glide_gscore>  (199) 
-3.37055

>  <r_i_glide_lipo>  (199) 
-0.800822

>  <r_i_glide_hbond>  (199) 
0

>  <r_i_glide_metal>  (199) 
-0

>  <r_i_glide_rewards>  (199) 
-1.37474

>  <r_i_glide_evdw>  (199) 
-23.651

>  <r_i_glide_ecoul>  (199) 
-0.0829133

>  <r_i_glide_erotb>  (199) 
0

>  <r_i_glide_esite>  (199) 
0

>  <r_i_glide_emodel>  (199) 
-28.3617

>  <r_i_glide_energy>  (199) 
-23.7339

>  <r_i_glide_einternal>  (199) 
0

>  <r_i_glide_intrahb_reward>  (199) 
-0

>  <i_i_glide_confnum>  (199) 
2

>  <i_i_glide_posenum>  (199) 
11

>  <r_i_glide_eff_state_penalty>  (199) 
0

>  <ligand_id>  (199) 
62

>  <original_smiles>  (199) 
CC=C1CCC2C3CC=C4CC(=O)CCC4(C)C3CCC12C

>  <smiles>  (199) 
[H]C(=C1C([H])([H])C([H])([H])C2([H])C3([H])C([H])([H])C([H])=C4C([H])([H])C(=O)C([H])([H])C([H])([H])C4(C([H])([H])[H])C3([H])C([H])([H])C([H])([H])C12C([H])([H])[H])C([H])([H])[H]

$$$$
62:0:1
     RDKit          3D

 52 55  0  0  1  0  0  0  0  0999 V2000
    3.7862   -0.0471   -4.1743 C   0  0  0  0  0  0  0  0  0  0  0  0
    4.2384   -0.4356   -2.7733 C   0  0  0  0  0  0  0  0  0  0  0  0
    3.7777   -1.4632   -2.0413 C   0  0  0  0  0  0  0  0  0  0  0  0
    2.7438   -2.4381   -2.5177 C   0  0  0  0  0  0  0  0  0  0  0  0
    2.8481   -3.5887   -1.5441 C   0  0  0  0  0  0  0  0  0  0  0  0
    3.2436   -2.9629   -0.2168 C   0  0  1  0  0  0  0  0  0  0  0  0
    3.7395   -4.0147    0.8146 C   0  0  2  0  0  0  0  0  0  0  0  0
    3.5255   -3.5502    2.2751 C   0  0  0  0  0  0  0  0  0  0  0  0
    4.1768   -4.4646    3.2906 C   0  0  0  0  0  0  0  0  0  0  0  0
    5.1022   -5.3924    2.9891 C   0  0  0  0  0  0  0  0  0  0  0  0
    5.5365   -6.4220    4.0202 C   0  0  0  0  0  0  0  0  0  0  0  0
    5.0175   -7.7842    3.5564 C   0  0  0  0  0  0  0  0  0  0  0  0
    4.4218   -8.5375    4.3191 O   0  0  0  0  0  0  0  0  0  0  0  0
    5.3024   -8.1651    2.0982 C   0  0  0  0  0  0  0  0  0  0  0  0
    5.0366   -6.9907    1.1208 C   0  0  0  0  0  0  0  0  0  0  0  0
    5.6368   -5.6242    1.5669 C   0  0  2  0  0  0  0  0  0  0  0  0
    7.1832   -5.7490    1.5712 C   0  0  0  0  0  0  0  0  0  0  0  0
    5.1907   -4.4882    0.5663 C   0  0  2  0  0  0  0  0  0  0  0  0
    6.1011   -3.2342    0.4853 C   0  0  0  0  0  0  0  0  0  0  0  0
    5.6804   -2.3220   -0.6808 C   0  0  0  0  0  0  0  0  0  0  0  0
    4.2214   -1.8277   -0.6218 C   0  0  1  0  0  0  0  0  0  0  0  0
    4.0856   -0.6351    0.3400 C   0  0  0  0  0  0  0  0  0  0  0  0
    3.4728    0.9987   -4.1836 H   0  0  0  0  0  0  0  0  0  0  0  0
    2.9378   -0.6349   -4.5419 H   0  0  0  0  0  0  0  0  0  0  0  0
    4.6128   -0.1511   -4.8727 H   0  0  0  0  0  0  0  0  0  0  0  0
    5.0140    0.1659   -2.3380 H   0  0  0  0  0  0  0  0  0  0  0  0
    1.7944   -1.9494   -2.3710 H   0  0  0  0  0  0  0  0  0  0  0  0
    2.8387   -2.7224   -3.5648 H   0  0  0  0  0  0  0  0  0  0  0  0
    1.9250   -4.1673   -1.4910 H   0  0  0  0  0  0  0  0  0  0  0  0
    3.6514   -4.2434   -1.8917 H   0  0  0  0  0  0  0  0  0  0  0  0
    2.3384   -2.5062    0.1896 H   0  0  0  0  0  0  0  0  0  0  0  0
    3.0928   -4.8873    0.6908 H   0  0  0  0  0  0  0  0  0  0  0  0
    3.9208   -2.5564    2.4578 H   0  0  0  0  0  0  0  0  0  0  0  0
    2.4546   -3.5208    2.4868 H   0  0  0  0  0  0  0  0  0  0  0  0
    3.8049   -4.3800    4.2993 H   0  0  0  0  0  0  0  0  0  0  0  0
    6.6195   -6.4486    4.1193 H   0  0  0  0  0  0  0  0  0  0  0  0
    5.1261   -6.1844    5.0002 H   0  0  0  0  0  0  0  0  0  0  0  0
    6.3391   -8.4960    2.0353 H   0  0  0  0  0  0  0  0  0  0  0  0
    4.6887   -9.0252    1.8278 H   0  0  0  0  0  0  0  0  0  0  0  0
    5.4060   -7.2464    0.1309 H   0  0  0  0  0  0  0  0  0  0  0  0
    3.9573   -6.9040    1.0116 H   0  0  0  0  0  0  0  0  0  0  0  0
    7.5701   -5.8243    0.5539 H   0  0  0  0  0  0  0  0  0  0  0  0
    7.5429   -6.6274    2.1050 H   0  0  0  0  0  0  0  0  0  0  0  0
    7.6490   -4.8862    2.0512 H   0  0  0  0  0  0  0  0  0  0  0  0
    5.2319   -4.9433   -0.4217 H   0  0  0  0  0  0  0  0  0  0  0  0
    6.0796   -2.6790    1.4239 H   0  0  0  0  0  0  0  0  0  0  0  0
    7.1402   -3.5036    0.3137 H   0  0  0  0  0  0  0  0  0  0  0  0
    6.3528   -1.4665   -0.7277 H   0  0  0  0  0  0  0  0  0  0  0  0
    5.8403   -2.8756   -1.6080 H   0  0  0  0  0  0  0  0  0  0  0  0
    4.4786   -0.8373    1.3317 H   0  0  0  0  0  0  0  0  0  0  0  0
    3.0486   -0.3247    0.4505 H   0  0  0  0  0  0  0  0  0  0  0  0
    4.6322    0.2227   -0.0237 H   0  0  0  0  0  0  0  0  0  0  0  0
  1  2  1  0
  1 23  1  0
  1 24  1  0
  1 25  1  0
  2  3  2  3
  2 26  1  0
  3 21  1  0
  3  4  1  0
  4  5  1  0
  4 27  1  0
  4 28  1  0
  5  6  1  0
  5 29  1  0
  5 30  1  0
  6 21  1  0
  6  7  1  0
  6 31  1  1
  7 18  1  0
  7  8  1  0
  7 32  1  1
  8  9  1  0
  8 33  1  0
  8 34  1  0
  9 10  2  0
  9 35  1  0
 10 16  1  0
 10 11  1  0
 11 12  1  0
 11 36  1  0
 11 37  1  0
 12 13  2  0
 12 14  1  0
 14 15  1  0
 14 38  1  0
 14 39  1  0
 15 16  1  0
 15 40  1  0
 15 41  1  0
 16 17  1  1
 16 18  1  0
 17 42  1  0
 17 43  1  0
 17 44  1  0
 18 19  1  0
 18 45  1  6
 19 20  1  0
 19 46  1  0
 19 47  1  0
 20 21  1  0
 20 48  1  0
 20 49  1  0
 21 22  1  1
 22 50  1  0
 22 51  1  0
 22 52  1  0
M  END
>  <i_m_ct_stereo_status>  (200) 
1

>  <s_m_source_file>  (200) 
/var/tmp/pbs.5076255.sched01/tmpi5tju4vo/80qzp1lgse.sdf

>  <i_m_source_file_index>  (200) 
8

>  <i_lp_mmshare_version>  (200) 
48012

>  <i_f3d_flags>  (200) 
0

>  <s_epik_input>  (200) 
W0NIM10vW0NIXT1DKFxbQ0gyXVtDSDJdMSlbQ0BdKFtDSDNdKShbQ0gyXVtDSDJdW0NASF0yMylbQ0BASF0xW0NAQEhdMltDSDJdW0NIXT1DKFtDQF0zNFtDSDNdKVtDSDJdQyg9TylbQ0gyXVtDSDJdNA==

>  <s_epik_cmdline>  (200) 
J2VwaWtfcHl0aG9uJywgJy1waHQnLCAnMi4wJywgJy1waCcsICc3LjAnLCAnLXRuJywgJzgnLCAnLW1hJywgJzIwMCcsICctaW1hZScsICc8aW5maWxlLm1hZT4nLCAnLW9tYWUnLCAnPG91dGZpbGUubWFlPic=

>  <r_lp_tautomer_probability>  (200) 
1

>  <r_epik_Ionization_Penalty>  (200) 
1.72604e-13

>  <r_epik_Ionization_Penalty_Charging>  (200) 
0

>  <r_epik_Ionization_Penalty_Neutral>  (200) 
1.72604e-13

>  <r_epik_State_Penalty>  (200) 
-0

>  <r_epik_Charging_Adjusted_Penalty>  (200) 
0

>  <i_epik_Tot_Q>  (200) 
0

>  <i_epik_Tot_abs_Q>  (200) 
0

>  <s_lp_Force_Field>  (200) 
OPLS3e

>  <r_lp_Energy>  (200) 
39.5647

>  <b_lp_Chiralities_Consistent>  (200) 
1

>  <s_lp_Variant>  (200) 
62:0-1

>  <s_i_glide_gridfile>  (200) 
pfpi4k_grid

>  <i_i_glide_lignum>  (200) 
8

>  <i_i_glide_rotatable_bonds>  (200) 
0

>  <r_i_docking_score>  (200) 
-3.35155

>  <r_i_glide_ligand_efficiency>  (200) 
-0.152343

>  <r_i_glide_ligand_efficiency_sa>  (200) 
-0.426871

>  <r_i_glide_ligand_efficiency_ln>  (200) 
-0.81924

>  <r_i_glide_gscore>  (200) 
-3.35155

>  <r_i_glide_lipo>  (200) 
-0.889724

>  <r_i_glide_hbond>  (200) 
0

>  <r_i_glide_metal>  (200) 
-0

>  <r_i_glide_rewards>  (200) 
-1.37412

>  <r_i_glide_evdw>  (200) 
-20.9141

>  <r_i_glide_ecoul>  (200) 
-0.279982

>  <r_i_glide_erotb>  (200) 
0

>  <r_i_glide_esite>  (200) 
0

>  <r_i_glide_emodel>  (200) 
-25.767

>  <r_i_glide_energy>  (200) 
-21.1941

>  <r_i_glide_einternal>  (200) 
0

>  <r_i_glide_intrahb_reward>  (200) 
-0

>  <i_i_glide_confnum>  (200) 
2

>  <i_i_glide_posenum>  (200) 
26

>  <r_i_glide_eff_state_penalty>  (200) 
0

>  <ligand_id>  (200) 
62

>  <original_smiles>  (200) 
CC=C1CCC2C3CC=C4CC(=O)CCC4(C)C3CCC12C

>  <smiles>  (200) 
[H]C(=C1C([H])([H])C([H])([H])C2([H])C3([H])C([H])([H])C([H])=C4C([H])([H])C(=O)C([H])([H])C([H])([H])C4(C([H])([H])[H])C3([H])C([H])([H])C([H])([H])C12C([H])([H])[H])C([H])([H])[H]

$$$$
62:0:2
     RDKit          3D

 52 55  0  0  1  0  0  0  0  0999 V2000
    4.1337   -1.6317   -4.2468 C   0  0  0  0  0  0  0  0  0  0  0  0
    4.6433   -2.1490   -2.9105 C   0  0  0  0  0  0  0  0  0  0  0  0
    3.8952   -2.7512   -2.0018 C   0  0  0  0  0  0  0  0  0  0  0  0
    2.4211   -3.0117   -2.1637 C   0  0  0  0  0  0  0  0  0  0  0  0
    2.0636   -3.8811   -0.9572 C   0  0  0  0  0  0  0  0  0  0  0  0
    3.0287   -3.5054    0.1562 C   0  0  1  0  0  0  0  0  0  0  0  0
    3.1112   -4.6146    1.2628 C   0  0  2  0  0  0  0  0  0  0  0  0
    3.5298   -4.0403    2.6332 C   0  0  0  0  0  0  0  0  0  0  0  0
    3.7911   -5.0990    3.6765 C   0  0  0  0  0  0  0  0  0  0  0  0
    3.9814   -6.4003    3.4037 C   0  0  0  0  0  0  0  0  0  0  0  0
    4.0196   -7.4302    4.5244 C   0  0  0  0  0  0  0  0  0  0  0  0
    2.7672   -8.2852    4.3879 C   0  0  0  0  0  0  0  0  0  0  0  0
    2.0332   -8.5097    5.3641 O   0  0  0  0  0  0  0  0  0  0  0  0
    2.4524   -8.8586    3.0077 C   0  0  0  0  0  0  0  0  0  0  0  0
    2.6460   -7.8140    1.8757 C   0  0  0  0  0  0  0  0  0  0  0  0
    3.9615   -6.9826    1.9807 C   0  0  2  0  0  0  0  0  0  0  0  0
    5.1558   -7.9496    1.7616 C   0  0  0  0  0  0  0  0  0  0  0  0
    3.9800   -5.8474    0.8821 C   0  0  2  0  0  0  0  0  0  0  0  0
    5.3736   -5.3297    0.4489 C   0  0  0  0  0  0  0  0  0  0  0  0
    5.2579   -4.4091   -0.7750 C   0  0  0  0  0  0  0  0  0  0  0  0
    4.3493   -3.1774   -0.5988 C   0  0  1  0  0  0  0  0  0  0  0  0
    5.1224   -2.0398    0.1100 C   0  0  0  0  0  0  0  0  0  0  0  0
    4.4395   -0.6004   -4.4227 H   0  0  0  0  0  0  0  0  0  0  0  0
    3.0397   -1.6917   -4.3727 H   0  0  0  0  0  0  0  0  0  0  0  0
    4.6057   -2.2414   -4.9702 H   0  0  0  0  0  0  0  0  0  0  0  0
    5.7017   -2.0297   -2.7197 H   0  0  0  0  0  0  0  0  0  0  0  0
    2.0113   -2.0222   -1.9902 H   0  0  0  0  0  0  0  0  0  0  0  0
    2.1449   -3.4372   -3.1543 H   0  0  0  0  0  0  0  0  0  0  0  0
    1.0237   -3.7338   -0.7125 H   0  0  0  0  0  0  0  0  0  0  0  0
    2.2317   -4.9515   -1.1026 H   0  0  0  0  0  0  0  0  0  0  0  0
    2.6440   -2.5890    0.6170 H   0  0  0  0  0  0  0  0  0  0  0  0
    2.0925   -4.9874    1.4031 H   0  0  0  0  0  0  0  0  0  0  0  0
    4.4231   -3.4286    2.5675 H   0  0  0  0  0  0  0  0  0  0  0  0
    2.7294   -3.4015    3.0017 H   0  0  0  0  0  0  0  0  0  0  0  0
    3.7801   -4.7568    4.6995 H   0  0  0  0  0  0  0  0  0  0  0  0
    4.9052   -8.0603    4.4524 H   0  0  0  0  0  0  0  0  0  0  0  0
    4.0422   -6.9465    5.4996 H   0  0  0  0  0  0  0  0  0  0  0  0
    3.0990   -9.7219    2.8462 H   0  0  0  0  0  0  0  0  0  0  0  0
    1.4324   -9.2401    2.9944 H   0  0  0  0  0  0  0  0  0  0  0  0
    2.5829   -8.3227    0.9123 H   0  0  0  0  0  0  0  0  0  0  0  0
    1.7913   -7.1408    1.9204 H   0  0  0  0  0  0  0  0  0  0  0  0
    5.1936   -8.2946    0.7288 H   0  0  0  0  0  0  0  0  0  0  0  0
    5.0980   -8.8413    2.3824 H   0  0  0  0  0  0  0  0  0  0  0  0
    6.1056   -7.4727    2.0024 H   0  0  0  0  0  0  0  0  0  0  0  0
    3.5513   -6.3009   -0.0072 H   0  0  0  0  0  0  0  0  0  0  0  0
    5.8735   -4.8027    1.2633 H   0  0  0  0  0  0  0  0  0  0  0  0
    6.0306   -6.1473    0.1494 H   0  0  0  0  0  0  0  0  0  0  0  0
    6.2497   -4.0801   -1.0925 H   0  0  0  0  0  0  0  0  0  0  0  0
    4.8775   -5.0082   -1.5978 H   0  0  0  0  0  0  0  0  0  0  0  0
    5.5562   -2.3660    1.0569 H   0  0  0  0  0  0  0  0  0  0  0  0
    4.4694   -1.1918    0.3246 H   0  0  0  0  0  0  0  0  0  0  0  0
    5.9524   -1.6639   -0.4882 H   0  0  0  0  0  0  0  0  0  0  0  0
  1  2  1  0
  1 23  1  0
  1 24  1  0
  1 25  1  0
  2  3  2  3
  2 26  1  0
  3 21  1  0
  3  4  1  0
  4  5  1  0
  4 27  1  0
  4 28  1  0
  5  6  1  0
  5 29  1  0
  5 30  1  0
  6 21  1  0
  6  7  1  0
  6 31  1  1
  7 18  1  0
  7  8  1  0
  7 32  1  1
  8  9  1  0
  8 33  1  0
  8 34  1  0
  9 10  2  0
  9 35  1  0
 10 16  1  0
 10 11  1  0
 11 12  1  0
 11 36  1  0
 11 37  1  0
 12 13  2  0
 12 14  1  0
 14 15  1  0
 14 38  1  0
 14 39  1  0
 15 16  1  0
 15 40  1  0
 15 41  1  0
 16 17  1  6
 16 18  1  0
 17 42  1  0
 17 43  1  0
 17 44  1  0
 18 19  1  0
 18 45  1  6
 19 20  1  0
 19 46  1  0
 19 47  1  0
 20 21  1  0
 20 48  1  0
 20 49  1  0
 21 22  1  1
 22 50  1  0
 22 51  1  0
 22 52  1  0
M  END
>  <i_m_ct_stereo_status>  (201) 
1

>  <s_m_source_file>  (201) 
/var/tmp/pbs.5076255.sched01/tmpi5tju4vo/80qzp1lgse.sdf

>  <i_m_source_file_index>  (201) 
8

>  <i_lp_mmshare_version>  (201) 
48012

>  <i_f3d_flags>  (201) 
0

>  <s_epik_input>  (201) 
W0NIM10vW0NIXT1DKFxbQ0gyXVtDSDJdMSlbQ0BdKFtDSDNdKShbQ0gyXVtDSDJdW0NASF0yMylbQ0BASF0xW0NAQEhdMltDSDJdW0NIXT1DKFtDQF0zNFtDSDNdKVtDSDJdQyg9TylbQ0gyXVtDSDJdNA==

>  <s_epik_cmdline>  (201) 
J2VwaWtfcHl0aG9uJywgJy1waHQnLCAnMi4wJywgJy1waCcsICc3LjAnLCAnLXRuJywgJzgnLCAnLW1hJywgJzIwMCcsICctaW1hZScsICc8aW5maWxlLm1hZT4nLCAnLW9tYWUnLCAnPG91dGZpbGUubWFlPic=

>  <r_lp_tautomer_probability>  (201) 
1

>  <r_epik_Ionization_Penalty>  (201) 
1.72604e-13

>  <r_epik_Ionization_Penalty_Charging>  (201) 
0

>  <r_epik_Ionization_Penalty_Neutral>  (201) 
1.72604e-13

>  <r_epik_State_Penalty>  (201) 
-0

>  <r_epik_Charging_Adjusted_Penalty>  (201) 
0

>  <i_epik_Tot_Q>  (201) 
0

>  <i_epik_Tot_abs_Q>  (201) 
0

>  <s_lp_Force_Field>  (201) 
OPLS3e

>  <r_lp_Energy>  (201) 
39.5647

>  <b_lp_Chiralities_Consistent>  (201) 
1

>  <s_lp_Variant>  (201) 
62:0-1

>  <s_i_glide_gridfile>  (201) 
pfpi4k_grid

>  <i_i_glide_lignum>  (201) 
8

>  <i_i_glide_rotatable_bonds>  (201) 
0

>  <r_i_docking_score>  (201) 
-2.27699

>  <r_i_glide_ligand_efficiency>  (201) 
-0.103499

>  <r_i_glide_ligand_efficiency_sa>  (201) 
-0.290009

>  <r_i_glide_ligand_efficiency_ln>  (201) 
-0.556579

>  <r_i_glide_gscore>  (201) 
-2.27699

>  <r_i_glide_lipo>  (201) 
-0.419076

>  <r_i_glide_hbond>  (201) 
0

>  <r_i_glide_metal>  (201) 
-0

>  <r_i_glide_rewards>  (201) 
-1.37412

>  <r_i_glide_evdw>  (201) 
-12.6934

>  <r_i_glide_ecoul>  (201) 
1.01602

>  <r_i_glide_erotb>  (201) 
0

>  <r_i_glide_esite>  (201) 
-0.00152234

>  <r_i_glide_emodel>  (201) 
-13.8878

>  <r_i_glide_energy>  (201) 
-11.6774

>  <r_i_glide_einternal>  (201) 
0

>  <r_i_glide_intrahb_reward>  (201) 
-0

>  <i_i_glide_confnum>  (201) 
2

>  <i_i_glide_posenum>  (201) 
40

>  <r_i_glide_eff_state_penalty>  (201) 
0

>  <ligand_id>  (201) 
62

>  <original_smiles>  (201) 
CC=C1CCC2C3CC=C4CC(=O)CCC4(C)C3CCC12C

>  <smiles>  (201) 
[H]C(=C1C([H])([H])C([H])([H])C2([H])C3([H])C([H])([H])C([H])=C4C([H])([H])C(=O)C([H])([H])C([H])([H])C4(C([H])([H])[H])C3([H])C([H])([H])C([H])([H])C12C([H])([H])[H])C([H])([H])[H]

$$$$
62:1:0
     RDKit          3D

 52 55  0  0  1  0  0  0  0  0999 V2000
    4.4918   -6.4288    5.0563 C   0  0  0  0  0  0  0  0  0  0  0  0
    5.7035   -6.4185    4.1475 C   0  0  0  0  0  0  0  0  0  0  0  0
    6.0101   -5.5725    3.1432 C   0  0  0  0  0  0  0  0  0  0  0  0
    7.2572   -5.7769    2.3114 C   0  0  0  0  0  0  0  0  0  0  0  0
    6.9349   -5.1046    0.9876 C   0  0  0  0  0  0  0  0  0  0  0  0
    6.1335   -3.8777    1.4276 C   0  0  1  0  0  0  0  0  0  0  0  0
    5.4596   -3.1325    0.2484 C   0  0  2  0  0  0  0  0  0  0  0  0
    5.2667   -1.6223    0.5289 C   0  0  0  0  0  0  0  0  0  0  0  0
    4.4589   -0.9313   -0.5472 C   0  0  0  0  0  0  0  0  0  0  0  0
    3.7139   -1.5809   -1.4589 C   0  0  0  0  0  0  0  0  0  0  0  0
    3.1170   -0.8742   -2.6590 C   0  0  0  0  0  0  0  0  0  0  0  0
    3.7896   -1.3648   -3.9063 C   0  0  0  0  0  0  0  0  0  0  0  0
    4.2272   -0.5893   -4.7361 O   0  0  0  0  0  0  0  0  0  0  0  0
    3.8797   -2.8663   -4.0605 C   0  0  0  0  0  0  0  0  0  0  0  0
    4.3397   -3.5340   -2.7626 C   0  0  0  0  0  0  0  0  0  0  0  0
    3.5469   -3.0995   -1.4927 C   0  0  2  0  0  0  0  0  0  0  0  0
    2.0506   -3.4842   -1.6473 C   0  0  0  0  0  0  0  0  0  0  0  0
    4.1483   -3.8054   -0.2191 C   0  0  2  0  0  0  0  0  0  0  0  0
    3.2151   -3.9323    1.0126 C   0  0  0  0  0  0  0  0  0  0  0  0
    3.8389   -4.8355    2.0859 C   0  0  0  0  0  0  0  0  0  0  0  0
    5.2217   -4.3679    2.6008 C   0  0  1  0  0  0  0  0  0  0  0  0
    5.0506   -3.2827    3.6919 C   0  0  0  0  0  0  0  0  0  0  0  0
    3.9769   -7.3853    4.9551 H   0  0  0  0  0  0  0  0  0  0  0  0
    3.7729   -5.6397    4.8463 H   0  0  0  0  0  0  0  0  0  0  0  0
    4.8115   -6.3330    6.0952 H   0  0  0  0  0  0  0  0  0  0  0  0
    6.4052   -7.2148    4.3434 H   0  0  0  0  0  0  0  0  0  0  0  0
    8.0890   -5.2671    2.7996 H   0  0  0  0  0  0  0  0  0  0  0  0
    7.5311   -6.8291    2.2108 H   0  0  0  0  0  0  0  0  0  0  0  0
    7.8226   -4.8472    0.4073 H   0  0  0  0  0  0  0  0  0  0  0  0
    6.3199   -5.7744    0.3866 H   0  0  0  0  0  0  0  0  0  0  0  0
    6.8633   -3.1815    1.8390 H   0  0  0  0  0  0  0  0  0  0  0  0
    6.1617   -3.1842   -0.5856 H   0  0  0  0  0  0  0  0  0  0  0  0
    4.7661   -1.4241    1.4753 H   0  0  0  0  0  0  0  0  0  0  0  0
    6.2427   -1.1314    0.5598 H   0  0  0  0  0  0  0  0  0  0  0  0
    4.5470    0.1357   -0.5817 H   0  0  0  0  0  0  0  0  0  0  0  0
    2.0602   -1.1076   -2.7215 H   0  0  0  0  0  0  0  0  0  0  0  0
    3.2973    0.1935   -2.6618 H   0  0  0  0  0  0  0  0  0  0  0  0
    2.9079   -3.2268   -4.4055 H   0  0  0  0  0  0  0  0  0  0  0  0
    4.6294   -3.0833   -4.8016 H   0  0  0  0  0  0  0  0  0  0  0  0
    4.2638   -4.6068   -2.9335 H   0  0  0  0  0  0  0  0  0  0  0  0
    5.4046   -3.3077   -2.6399 H   0  0  0  0  0  0  0  0  0  0  0  0
    1.8760   -4.5514   -1.5327 H   0  0  0  0  0  0  0  0  0  0  0  0
    1.6201   -3.1914   -2.6016 H   0  0  0  0  0  0  0  0  0  0  0  0
    1.4384   -3.0536   -0.8656 H   0  0  0  0  0  0  0  0  0  0  0  0
    4.3774   -4.8277   -0.5316 H   0  0  0  0  0  0  0  0  0  0  0  0
    2.9804   -2.9506    1.4266 H   0  0  0  0  0  0  0  0  0  0  0  0
    2.2631   -4.3839    0.7409 H   0  0  0  0  0  0  0  0  0  0  0  0
    3.1356   -4.9076    2.9110 H   0  0  0  0  0  0  0  0  0  0  0  0
    3.9286   -5.8401    1.6734 H   0  0  0  0  0  0  0  0  0  0  0  0
    4.4463   -2.4450    3.3582 H   0  0  0  0  0  0  0  0  0  0  0  0
    6.0064   -2.8758    3.9986 H   0  0  0  0  0  0  0  0  0  0  0  0
    4.5923   -3.6604    4.6012 H   0  0  0  0  0  0  0  0  0  0  0  0
  1  2  1  0
  1 23  1  0
  1 24  1  0
  1 25  1  0
  2  3  2  3
  2 26  1  0
  3 21  1  0
  3  4  1  0
  4  5  1  0
  4 27  1  0
  4 28  1  0
  5  6  1  0
  5 29  1  0
  5 30  1  0
  6 21  1  0
  6  7  1  0
  6 31  1  1
  7 18  1  0
  7  8  1  0
  7 32  1  6
  8  9  1  0
  8 33  1  0
  8 34  1  0
  9 10  2  0
  9 35  1  0
 10 16  1  0
 10 11  1  0
 11 12  1  0
 11 36  1  0
 11 37  1  0
 12 13  2  0
 12 14  1  0
 14 15  1  0
 14 38  1  0
 14 39  1  0
 15 16  1  0
 15 40  1  0
 15 41  1  0
 16 17  1  6
 16 18  1  0
 17 42  1  0
 17 43  1  0
 17 44  1  0
 18 19  1  0
 18 45  1  6
 19 20  1  0
 19 46  1  0
 19 47  1  0
 20 21  1  0
 20 48  1  0
 20 49  1  0
 21 22  1  1
 22 50  1  0
 22 51  1  0
 22 52  1  0
M  END
>  <i_m_ct_stereo_status>  (202) 
1

>  <s_m_source_file>  (202) 
/var/tmp/pbs.5076255.sched01/tmpi5tju4vo/80qzp1lgse.sdf

>  <i_m_source_file_index>  (202) 
9

>  <i_lp_mmshare_version>  (202) 
48012

>  <i_f3d_flags>  (202) 
0

>  <s_epik_input>  (202) 
W0NIM10vW0NIXT1DKFxbQ0gyXVtDSDJdMSlbQ0BdKFtDSDNdKShbQ0gyXVtDSDJdW0NASF0yMylbQ0BASF0xW0NAQEhdMltDSDJdW0NIXT1DKFtDQF0zNFtDSDNdKVtDSDJdQyg9TylbQ0gyXVtDSDJdNA==

>  <s_epik_cmdline>  (202) 
J2VwaWtfcHl0aG9uJywgJy1waHQnLCAnMi4wJywgJy1waCcsICc3LjAnLCAnLXRuJywgJzgnLCAnLW1hJywgJzIwMCcsICctaW1hZScsICc8aW5maWxlLm1hZT4nLCAnLW9tYWUnLCAnPG91dGZpbGUubWFlPic=

>  <r_lp_tautomer_probability>  (202) 
1

>  <r_epik_Ionization_Penalty>  (202) 
1.72604e-13

>  <r_epik_Ionization_Penalty_Charging>  (202) 
0

>  <r_epik_Ionization_Penalty_Neutral>  (202) 
1.72604e-13

>  <r_epik_State_Penalty>  (202) 
-0

>  <r_epik_Charging_Adjusted_Penalty>  (202) 
0

>  <i_epik_Tot_Q>  (202) 
0

>  <i_epik_Tot_abs_Q>  (202) 
0

>  <s_lp_Force_Field>  (202) 
OPLS3e

>  <r_lp_Energy>  (202) 
40.9662

>  <b_lp_Chiralities_Consistent>  (202) 
1

>  <s_lp_Variant>  (202) 
62:0-2

>  <s_i_glide_gridfile>  (202) 
pfpi4k_grid

>  <i_i_glide_lignum>  (202) 
9

>  <i_i_glide_rotatable_bonds>  (202) 
0

>  <r_i_docking_score>  (202) 
-3.2662

>  <r_i_glide_ligand_efficiency>  (202) 
-0.148463

>  <r_i_glide_ligand_efficiency_sa>  (202) 
-0.416

>  <r_i_glide_ligand_efficiency_ln>  (202) 
-0.798377

>  <r_i_glide_gscore>  (202) 
-3.2662

>  <r_i_glide_lipo>  (202) 
-0.510884

>  <r_i_glide_hbond>  (202) 
-0.110185

>  <r_i_glide_metal>  (202) 
-0

>  <r_i_glide_rewards>  (202) 
-1.50748

>  <r_i_glide_evdw>  (202) 
-16.934

>  <r_i_glide_ecoul>  (202) 
-1.93963

>  <r_i_glide_erotb>  (202) 
0

>  <r_i_glide_esite>  (202) 
0

>  <r_i_glide_emodel>  (202) 
-21.1777

>  <r_i_glide_energy>  (202) 
-18.8736

>  <r_i_glide_einternal>  (202) 
0

>  <r_i_glide_intrahb_reward>  (202) 
-0

>  <i_i_glide_confnum>  (202) 
1

>  <i_i_glide_posenum>  (202) 
1

>  <r_i_glide_eff_state_penalty>  (202) 
0

>  <ligand_id>  (202) 
62

>  <original_smiles>  (202) 
CC=C1CCC2C3CC=C4CC(=O)CCC4(C)C3CCC12C

>  <smiles>  (202) 
[H]C(=C1C([H])([H])C([H])([H])C2([H])C3([H])C([H])([H])C([H])=C4C([H])([H])C(=O)C([H])([H])C([H])([H])C4(C([H])([H])[H])C3([H])C([H])([H])C([H])([H])C12C([H])([H])[H])C([H])([H])[H]

$$$$
62:1:1
     RDKit          3D

 52 55  0  0  1  0  0  0  0  0999 V2000
    3.4139   -0.4407   -3.7884 C   0  0  0  0  0  0  0  0  0  0  0  0
    4.4565   -1.4994   -3.5219 C   0  0  0  0  0  0  0  0  0  0  0  0
    4.5516   -2.4066   -2.5261 C   0  0  0  0  0  0  0  0  0  0  0  0
    5.7309   -3.3380   -2.3941 C   0  0  0  0  0  0  0  0  0  0  0  0
    5.7549   -3.7044   -0.9152 C   0  0  0  0  0  0  0  0  0  0  0  0
    4.2688   -3.8342   -0.5873 C   0  0  1  0  0  0  0  0  0  0  0  0
    3.9833   -3.9724    0.9370 C   0  0  2  0  0  0  0  0  0  0  0  0
    2.6824   -4.7531    1.2299 C   0  0  0  0  0  0  0  0  0  0  0  0
    2.2870   -4.7221    2.6913 C   0  0  0  0  0  0  0  0  0  0  0  0
    2.7938   -3.8645    3.5933 C   0  0  0  0  0  0  0  0  0  0  0  0
    2.5440   -4.0449    5.0796 C   0  0  0  0  0  0  0  0  0  0  0  0
    3.8649   -4.4502    5.7329 C   0  0  0  0  0  0  0  0  0  0  0  0
    3.9462   -5.4014    6.5042 O   0  0  0  0  0  0  0  0  0  0  0  0
    5.0875   -3.5869    5.3861 C   0  0  0  0  0  0  0  0  0  0  0  0
    5.1561   -3.2546    3.8747 C   0  0  0  0  0  0  0  0  0  0  0  0
    3.8260   -2.7827    3.2376 C   0  0  2  0  0  0  0  0  0  0  0  0
    3.4550   -1.4189    3.8720 C   0  0  0  0  0  0  0  0  0  0  0  0
    4.0203   -2.6188    1.6841 C   0  0  2  0  0  0  0  0  0  0  0  0
    3.0497   -1.6538    0.9653 C   0  0  0  0  0  0  0  0  0  0  0  0
    3.5121   -1.4054   -0.4824 C   0  0  0  0  0  0  0  0  0  0  0  0
    3.5895   -2.6692   -1.3673 C   0  0  1  0  0  0  0  0  0  0  0  0
    2.2153   -3.0964   -1.9356 C   0  0  0  0  0  0  0  0  0  0  0  0
    3.9018    0.5361   -3.7760 H   0  0  0  0  0  0  0  0  0  0  0  0
    2.6021   -0.4205   -3.0660 H   0  0  0  0  0  0  0  0  0  0  0  0
    3.0058   -0.5960   -4.7880 H   0  0  0  0  0  0  0  0  0  0  0  0
    5.2188   -1.4846   -4.2724 H   0  0  0  0  0  0  0  0  0  0  0  0
    5.5241   -4.2208   -3.0023 H   0  0  0  0  0  0  0  0  0  0  0  0
    6.6650   -2.8933   -2.7369 H   0  0  0  0  0  0  0  0  0  0  0  0
    6.2944   -4.6269   -0.7029 H   0  0  0  0  0  0  0  0  0  0  0  0
    6.2146   -2.8970   -0.3431 H   0  0  0  0  0  0  0  0  0  0  0  0
    3.9538   -4.7693   -1.0496 H   0  0  0  0  0  0  0  0  0  0  0  0
    4.7904   -4.5878    1.3402 H   0  0  0  0  0  0  0  0  0  0  0  0
    1.8387   -4.3688    0.6644 H   0  0  0  0  0  0  0  0  0  0  0  0
    2.8232   -5.7960    0.9423 H   0  0  0  0  0  0  0  0  0  0  0  0
    1.6085   -5.4980    3.0115 H   0  0  0  0  0  0  0  0  0  0  0  0
    2.1764   -3.1245    5.5302 H   0  0  0  0  0  0  0  0  0  0  0  0
    1.7925   -4.8163    5.2519 H   0  0  0  0  0  0  0  0  0  0  0  0
    5.0368   -2.6746    5.9807 H   0  0  0  0  0  0  0  0  0  0  0  0
    5.9937   -4.1068    5.6977 H   0  0  0  0  0  0  0  0  0  0  0  0
    5.8965   -2.4748    3.7072 H   0  0  0  0  0  0  0  0  0  0  0  0
    5.5272   -4.1446    3.3650 H   0  0  0  0  0  0  0  0  0  0  0  0
    4.1426   -0.6392    3.5360 H   0  0  0  0  0  0  0  0  0  0  0  0
    3.5042   -1.4261    4.9599 H   0  0  0  0  0  0  0  0  0  0  0  0
    2.4419   -1.1198    3.6023 H   0  0  0  0  0  0  0  0  0  0  0  0
    5.0122   -2.1884    1.5509 H   0  0  0  0  0  0  0  0  0  0  0  0
    2.0331   -2.0423    0.9840 H   0  0  0  0  0  0  0  0  0  0  0  0
    3.0147   -0.6810    1.4498 H   0  0  0  0  0  0  0  0  0  0  0  0
    2.8408   -0.6906   -0.9386 H   0  0  0  0  0  0  0  0  0  0  0  0
    4.4791   -0.9023   -0.4599 H   0  0  0  0  0  0  0  0  0  0  0  0
    1.4767   -3.2339   -1.1561 H   0  0  0  0  0  0  0  0  0  0  0  0
    2.2654   -4.0218   -2.5024 H   0  0  0  0  0  0  0  0  0  0  0  0
    1.8123   -2.3677   -2.6269 H   0  0  0  0  0  0  0  0  0  0  0  0
  1  2  1  0
  1 23  1  0
  1 24  1  0
  1 25  1  0
  2  3  2  3
  2 26  1  0
  3 21  1  0
  3  4  1  0
  4  5  1  0
  4 27  1  0
  4 28  1  0
  5  6  1  0
  5 29  1  0
  5 30  1  0
  6 21  1  0
  6  7  1  0
  6 31  1  6
  7 18  1  0
  7  8  1  0
  7 32  1  1
  8  9  1  0
  8 33  1  0
  8 34  1  0
  9 10  2  0
  9 35  1  0
 10 16  1  0
 10 11  1  0
 11 12  1  0
 11 36  1  0
 11 37  1  0
 12 13  2  0
 12 14  1  0
 14 15  1  0
 14 38  1  0
 14 39  1  0
 15 16  1  0
 15 40  1  0
 15 41  1  0
 16 17  1  1
 16 18  1  0
 17 42  1  0
 17 43  1  0
 17 44  1  0
 18 19  1  0
 18 45  1  1
 19 20  1  0
 19 46  1  0
 19 47  1  0
 20 21  1  0
 20 48  1  0
 20 49  1  0
 21 22  1  6
 22 50  1  0
 22 51  1  0
 22 52  1  0
M  END
>  <i_m_ct_stereo_status>  (203) 
1

>  <s_m_source_file>  (203) 
/var/tmp/pbs.5076255.sched01/tmpi5tju4vo/80qzp1lgse.sdf

>  <i_m_source_file_index>  (203) 
9

>  <i_lp_mmshare_version>  (203) 
48012

>  <i_f3d_flags>  (203) 
0

>  <s_epik_input>  (203) 
W0NIM10vW0NIXT1DKFxbQ0gyXVtDSDJdMSlbQ0BdKFtDSDNdKShbQ0gyXVtDSDJdW0NASF0yMylbQ0BASF0xW0NAQEhdMltDSDJdW0NIXT1DKFtDQF0zNFtDSDNdKVtDSDJdQyg9TylbQ0gyXVtDSDJdNA==

>  <s_epik_cmdline>  (203) 
J2VwaWtfcHl0aG9uJywgJy1waHQnLCAnMi4wJywgJy1waCcsICc3LjAnLCAnLXRuJywgJzgnLCAnLW1hJywgJzIwMCcsICctaW1hZScsICc8aW5maWxlLm1hZT4nLCAnLW9tYWUnLCAnPG91dGZpbGUubWFlPic=

>  <r_lp_tautomer_probability>  (203) 
1

>  <r_epik_Ionization_Penalty>  (203) 
1.72604e-13

>  <r_epik_Ionization_Penalty_Charging>  (203) 
0

>  <r_epik_Ionization_Penalty_Neutral>  (203) 
1.72604e-13

>  <r_epik_State_Penalty>  (203) 
-0

>  <r_epik_Charging_Adjusted_Penalty>  (203) 
0

>  <i_epik_Tot_Q>  (203) 
0

>  <i_epik_Tot_abs_Q>  (203) 
0

>  <s_lp_Force_Field>  (203) 
OPLS3e

>  <r_lp_Energy>  (203) 
40.9662

>  <b_lp_Chiralities_Consistent>  (203) 
1

>  <s_lp_Variant>  (203) 
62:0-2

>  <s_i_glide_gridfile>  (203) 
pfpi4k_grid

>  <i_i_glide_lignum>  (203) 
9

>  <i_i_glide_rotatable_bonds>  (203) 
0

>  <r_i_docking_score>  (203) 
-3.11019

>  <r_i_glide_ligand_efficiency>  (203) 
-0.141372

>  <r_i_glide_ligand_efficiency_sa>  (203) 
-0.39613

>  <r_i_glide_ligand_efficiency_ln>  (203) 
-0.760243

>  <r_i_glide_gscore>  (203) 
-3.11019

>  <r_i_glide_lipo>  (203) 
-0.966758

>  <r_i_glide_hbond>  (203) 
0

>  <r_i_glide_metal>  (203) 
-0

>  <r_i_glide_rewards>  (203) 
-1.37412

>  <r_i_glide_evdw>  (203) 
-16.151

>  <r_i_glide_ecoul>  (203) 
0.254946

>  <r_i_glide_erotb>  (203) 
0

>  <r_i_glide_esite>  (203) 
0

>  <r_i_glide_emodel>  (203) 
-18.18

>  <r_i_glide_energy>  (203) 
-15.896

>  <r_i_glide_einternal>  (203) 
0

>  <r_i_glide_intrahb_reward>  (203) 
-0

>  <i_i_glide_confnum>  (203) 
1

>  <i_i_glide_posenum>  (203) 
2

>  <r_i_glide_eff_state_penalty>  (203) 
0

>  <ligand_id>  (203) 
62

>  <original_smiles>  (203) 
CC=C1CCC2C3CC=C4CC(=O)CCC4(C)C3CCC12C

>  <smiles>  (203) 
[H]C(=C1C([H])([H])C([H])([H])C2([H])C3([H])C([H])([H])C([H])=C4C([H])([H])C(=O)C([H])([H])C([H])([H])C4(C([H])([H])[H])C3([H])C([H])([H])C([H])([H])C12C([H])([H])[H])C([H])([H])[H]

$$$$
64:0:0
     RDKit          3D

 72 77  0  0  1  0  0  0  0  0999 V2000
    0.0544   -8.8862    6.8082 C   0  0  0  0  0  0  0  0  0  0  0  0
    0.1903   -8.4310    5.3413 C   0  0  2  0  0  0  0  0  0  0  0  0
   -0.1802   -9.5359    4.3353 C   0  0  0  0  0  0  0  0  0  0  0  0
    0.7802   -9.4488    3.1477 C   0  0  1  0  0  0  0  0  0  0  0  0
    0.1268   -8.6544    2.1808 O   0  0  0  0  0  0  0  0  0  0  0  0
    2.0488   -8.8217    3.7460 C   0  0  2  0  0  0  0  0  0  0  0  0
    2.8476   -9.9260    4.1083 O   0  0  0  0  0  0  0  0  0  0  0  0
    1.6055   -7.9914    4.9561 C   0  0  1  0  0  0  0  0  0  0  0  0
    1.8604   -6.7234    4.1072 C   0  0  1  0  0  0  0  0  0  0  0  0
    0.6822   -6.2734    3.4742 O   0  0  0  0  0  0  0  0  0  0  0  0
    2.4481   -5.4740    4.7542 C   0  0  0  0  0  0  0  0  0  0  0  0
    3.1956   -4.4973    3.7996 C   0  0  0  0  0  0  0  0  0  0  0  0
    2.9114   -4.5324    2.2609 C   0  0  2  0  0  0  0  0  0  0  0  0
    3.4574   -5.7528    1.4790 C   0  0  2  0  0  0  0  0  0  0  0  0
    3.1874   -5.3371    0.0426 C   0  0  0  0  0  0  0  0  0  0  0  0
    3.4619   -3.8300   -0.0611 C   0  0  1  0  0  0  0  0  0  0  0  0
    4.8201   -3.8360   -0.2928 O   0  0  0  0  0  0  0  0  0  0  0  0
    5.4815   -2.6898   -0.7313 C   0  0  2  0  0  0  0  0  0  0  0  0
    4.9235   -1.4139   -0.4340 O   0  0  0  0  0  0  0  0  0  0  0  0
    5.3095   -2.9172   -2.2047 C   0  0  0  0  0  0  0  0  0  0  0  0
    6.2139   -3.1004   -3.0094 O   0  0  0  0  0  0  0  0  0  0  0  0
    3.8423   -3.1219   -2.5859 C   0  0  0  0  0  0  0  0  0  0  0  0
    2.8458   -3.1275   -1.3617 C   0  0  1  0  0  0  0  0  0  0  0  0
    1.4885   -3.6211   -1.8958 C   0  0  0  0  0  0  0  0  0  0  0  0
    6.7334   -2.8238    0.1455 C   0  0  1  0  0  0  0  0  0  0  0  0
    7.5357   -1.6515    0.1770 O   0  0  0  0  0  0  0  0  0  0  0  0
    6.2078   -3.1931    1.5985 C   0  0  0  0  0  0  0  0  0  0  0  0
    4.7781   -2.7236    2.0532 C   0  0  0  0  0  0  0  0  0  0  0  0
    4.7385   -1.8499    2.9357 O   0  0  0  0  0  0  0  0  0  0  0  0
    3.4050   -3.2810    1.4458 C   0  0  2  0  0  0  0  0  0  0  0  0
    2.3623   -2.1527    1.5495 C   0  0  0  0  0  0  0  0  0  0  0  0
    2.8505   -7.1578    1.7573 C   0  0  0  0  0  0  0  0  0  0  0  0
    2.8266   -7.5638    3.2357 C   0  0  2  0  0  0  0  0  0  0  0  0
    4.2947   -7.6195    3.6985 C   0  0  0  0  0  0  0  0  0  0  0  0
    0.7279   -9.7058    7.0487 H   0  0  0  0  0  0  0  0  0  0  0  0
   -0.9555   -9.2312    7.0368 H   0  0  0  0  0  0  0  0  0  0  0  0
    0.2796   -8.0571    7.4792 H   0  0  0  0  0  0  0  0  0  0  0  0
   -0.5227   -7.6241    5.1882 H   0  0  0  0  0  0  0  0  0  0  0  0
   -0.0238  -10.5129    4.7997 H   0  0  0  0  0  0  0  0  0  0  0  0
   -1.2217   -9.4208    4.0181 H   0  0  0  0  0  0  0  0  0  0  0  0
    0.9612  -10.4425    2.7185 H   0  0  0  0  0  0  0  0  0  0  0  0
    0.1736   -9.1232    1.3491 H   0  0  0  0  0  0  0  0  0  0  0  0
    2.9084  -10.4776    3.3375 H   0  0  0  0  0  0  0  0  0  0  0  0
    2.3281   -8.0907    5.7650 H   0  0  0  0  0  0  0  0  0  0  0  0
    0.3289   -7.0741    3.0765 H   0  0  0  0  0  0  0  0  0  0  0  0
    1.6727   -4.9430    5.3086 H   0  0  0  0  0  0  0  0  0  0  0  0
    3.1628   -5.7817    5.5183 H   0  0  0  0  0  0  0  0  0  0  0  0
    2.9533   -3.5019    4.1648 H   0  0  0  0  0  0  0  0  0  0  0  0
    4.2659   -4.5964    3.9772 H   0  0  0  0  0  0  0  0  0  0  0  0
    1.8302   -4.5295    2.1411 H   0  0  0  0  0  0  0  0  0  0  0  0
    4.5414   -5.8031    1.5989 H   0  0  0  0  0  0  0  0  0  0  0  0
    3.8204   -5.9152   -0.6315 H   0  0  0  0  0  0  0  0  0  0  0  0
    2.1418   -5.5309   -0.1935 H   0  0  0  0  0  0  0  0  0  0  0  0
    4.0351   -1.3857   -0.7660 H   0  0  0  0  0  0  0  0  0  0  0  0
    3.5674   -2.3504   -3.3044 H   0  0  0  0  0  0  0  0  0  0  0  0
    3.8209   -4.0773   -3.1079 H   0  0  0  0  0  0  0  0  0  0  0  0
    2.6833   -2.0764   -1.1346 H   0  0  0  0  0  0  0  0  0  0  0  0
    1.4781   -4.6435   -2.2689 H   0  0  0  0  0  0  0  0  0  0  0  0
    1.1859   -2.9719   -2.7164 H   0  0  0  0  0  0  0  0  0  0  0  0
    0.7212   -3.5512   -1.1297 H   0  0  0  0  0  0  0  0  0  0  0  0
    7.3607   -3.6305   -0.2389 H   0  0  0  0  0  0  0  0  0  0  0  0
    7.1019   -0.9977    0.7126 H   0  0  0  0  0  0  0  0  0  0  0  0
    6.2462   -4.2768    1.7275 H   0  0  0  0  0  0  0  0  0  0  0  0
    6.9025   -2.7462    2.2913 H   0  0  0  0  0  0  0  0  0  0  0  0
    1.4198   -2.4477    1.1032 H   0  0  0  0  0  0  0  0  0  0  0  0
    2.6862   -1.2475    1.0385 H   0  0  0  0  0  0  0  0  0  0  0  0
    2.1687   -1.8931    2.5848 H   0  0  0  0  0  0  0  0  0  0  0  0
    1.8409   -7.1485    1.3620 H   0  0  0  0  0  0  0  0  0  0  0  0
    3.3738   -7.9157    1.1699 H   0  0  0  0  0  0  0  0  0  0  0  0
    4.8143   -6.6735    3.5823 H   0  0  0  0  0  0  0  0  0  0  0  0
    4.8631   -8.3726    3.1464 H   0  0  0  0  0  0  0  0  0  0  0  0
    4.3652   -7.8727    4.7566 H   0  0  0  0  0  0  0  0  0  0  0  0
  1  2  1  0
  1 35  1  0
  1 36  1  0
  1 37  1  0
  2  8  1  0
  2  3  1  0
  2 38  1  1
  3  4  1  0
  3 39  1  0
  3 40  1  0
  4  5  1  0
  4  6  1  0
  4 41  1  6
  5 42  1  0
  6 33  1  0
  6  7  1  1
  6  8  1  0
  7 43  1  0
  8  9  1  0
  8 44  1  1
  9 33  1  0
  9 10  1  6
  9 11  1  0
 10 45  1  0
 11 12  1  0
 11 46  1  0
 11 47  1  0
 12 13  1  0
 12 48  1  0
 12 49  1  0
 13 30  1  0
 13 14  1  0
 13 50  1  1
 14 15  1  0
 14 32  1  0
 14 51  1  6
 16 15  1  1
 15 52  1  0
 15 53  1  0
 16 23  1  0
 16 30  1  0
 16 17  1  0
 17 18  1  0
 18 19  1  1
 18 20  1  0
 18 25  1  0
 19 54  1  0
 20 21  2  0
 20 22  1  0
 22 23  1  0
 22 55  1  0
 22 56  1  0
 23 24  1  0
 23 57  1  1
 24 58  1  0
 24 59  1  0
 24 60  1  0
 25 26  1  0
 25 27  1  0
 25 61  1  6
 26 62  1  0
 27 28  1  0
 27 63  1  0
 27 64  1  0
 28 29  2  0
 28 30  1  0
 30 31  1  6
 31 65  1  0
 31 66  1  0
 31 67  1  0
 32 33  1  0
 32 68  1  0
 32 69  1  0
 33 34  1  1
 34 70  1  0
 34 71  1  0
 34 72  1  0
M  END
>  <i_m_ct_stereo_status>  (204) 
1

>  <s_m_source_file>  (204) 
/var/tmp/pbs.5076255.sched01/tmpi5tju4vo/80qzp1lgse.sdf

>  <i_m_source_file_index>  (204) 
11

>  <i_lp_mmshare_version>  (204) 
48012

>  <i_f3d_flags>  (204) 
0

>  <s_epik_input>  (204) 
W09IXVtDQEBIXTFbQ0gyXVtDQEBIXShbQ0gzXSlbQ0BIXShbQ0BAXTIoW09IXSlbQ0gyXVtDSDJdMylbQ0BdMShbT0hdKVtDQEBdMihbQ0gzXSlbQ0gyXVtDQEBIXShbQ0gyXTQpW0NAQEhdM1tDQEBdKFtDQF00NTYpKFtDSDNdKUMoPU8pW0NIMl1bQ0BIXShbT0hdKVtDQEBdKE81KShbT0hdKUMoPU8pW0NIMl1bQ0BIXTZbQ0gzXQ==

>  <s_epik_cmdline>  (204) 
J2VwaWtfcHl0aG9uJywgJy1waHQnLCAnMi4wJywgJy1waCcsICc3LjAnLCAnLXRuJywgJzgnLCAnLW1hJywgJzIwMCcsICctaW1hZScsICc8aW5maWxlLm1hZT4nLCAnLW9tYWUnLCAnPG91dGZpbGUubWFlPic=

>  <r_lp_tautomer_probability>  (204) 
1

>  <r_epik_Ionization_Penalty>  (204) 
2.98685e-05

>  <r_epik_Ionization_Penalty_Charging>  (204) 
0

>  <r_epik_Ionization_Penalty_Neutral>  (204) 
2.98685e-05

>  <r_epik_State_Penalty>  (204) 
-0

>  <r_epik_Charging_Adjusted_Penalty>  (204) 
0

>  <i_epik_Tot_Q>  (204) 
0

>  <i_epik_Tot_abs_Q>  (204) 
0

>  <s_lp_Force_Field>  (204) 
OPLS3e

>  <r_lp_Energy>  (204) 
117.086

>  <b_lp_Chiralities_Consistent>  (204) 
1

>  <s_lp_Variant>  (204) 
64:0-1

>  <s_i_glide_gridfile>  (204) 
pfpi4k_grid

>  <i_i_glide_lignum>  (204) 
11

>  <i_i_glide_rotatable_bonds>  (204) 
5

>  <r_i_docking_score>  (204) 
-3.37889

>  <r_i_glide_ligand_efficiency>  (204) 
-0.099379

>  <r_i_glide_ligand_efficiency_sa>  (204) 
-0.321949

>  <r_i_glide_ligand_efficiency_ln>  (204) 
-0.746491

>  <r_i_glide_gscore>  (204) 
-3.37889

>  <r_i_glide_lipo>  (204) 
-0.218155

>  <r_i_glide_hbond>  (204) 
0

>  <r_i_glide_metal>  (204) 
-0

>  <r_i_glide_rewards>  (204) 
-0.859495

>  <r_i_glide_evdw>  (204) 
-22.7832

>  <r_i_glide_ecoul>  (204) 
-7.71593

>  <r_i_glide_erotb>  (204) 
0

>  <r_i_glide_esite>  (204) 
-0.00468841

>  <r_i_glide_emodel>  (204) 
-37.4294

>  <r_i_glide_energy>  (204) 
-30.4991

>  <r_i_glide_einternal>  (204) 
4.44155

>  <r_i_glide_intrahb_reward>  (204) 
-0.5

>  <i_i_glide_confnum>  (204) 
2

>  <i_i_glide_posenum>  (204) 
29

>  <r_i_glide_eff_state_penalty>  (204) 
0

>  <ligand_id>  (204) 
64

>  <original_smiles>  (204) 
CC1CC(O)C2(O)C1C1(O)CCC3C(CC45OC(O)(C(=O)CC4C)C(O)CC(=O)C35C)CC12C

>  <smiles>  (204) 
[H]OC12OC3(C([H])([H])C4([H])C([H])([H])C5(C([H])([H])[H])C(O[H])(C([H])([H])C([H])([H])C4([H])C3(C([H])([H])[H])C(=O)C([H])([H])C1([H])O[H])C1([H])C([H])(C([H])([H])[H])C([H])([H])C([H])(O[H])C15O[H])C([H])(C([H])([H])[H])C([H])([H])C2=O

$$$$
64:0:1
     RDKit          3D

 72 77  0  0  1  0  0  0  0  0999 V2000
    0.0693   -8.6941    6.9950 C   0  0  0  0  0  0  0  0  0  0  0  0
    0.1688   -8.2796    5.5112 C   0  0  2  0  0  0  0  0  0  0  0  0
   -0.2281   -9.4233    4.5540 C   0  0  0  0  0  0  0  0  0  0  0  0
    0.6999   -9.3835    3.3376 C   0  0  1  0  0  0  0  0  0  0  0  0
    0.0302   -8.6235    2.3553 O   0  0  0  0  0  0  0  0  0  0  0  0
    1.9907   -8.7543    3.8838 C   0  0  2  0  0  0  0  0  0  0  0  0
    2.7879   -9.8653    4.2383 O   0  0  0  0  0  0  0  0  0  0  0  0
    1.5865   -7.8792    5.0795 C   0  0  1  0  0  0  0  0  0  0  0  0
    1.8464   -6.6427    4.1854 C   0  0  1  0  0  0  0  0  0  0  0  0
    0.6648   -6.1895    3.5575 O   0  0  0  0  0  0  0  0  0  0  0  0
    2.4756   -5.3829    4.7720 C   0  0  0  0  0  0  0  0  0  0  0  0
    3.2205   -4.4516    3.7692 C   0  0  0  0  0  0  0  0  0  0  0  0
    2.9054   -4.5329    2.2384 C   0  0  2  0  0  0  0  0  0  0  0  0
    3.4060   -5.7913    1.4884 C   0  0  2  0  0  0  0  0  0  0  0  0
    3.1156   -5.4166    0.0413 C   0  0  0  0  0  0  0  0  0  0  0  0
    3.4238   -3.9168   -0.1233 C   0  0  1  0  0  0  0  0  0  0  0  0
    4.7745   -3.9633   -0.3863 O   0  0  0  0  0  0  0  0  0  0  0  0
    5.4574   -2.8381   -0.8431 C   0  0  2  0  0  0  0  0  0  0  0  0
    4.9274   -1.5350   -0.6037 O   0  0  0  0  0  0  0  0  0  0  0  0
    5.2885   -3.0770   -2.3117 C   0  0  0  0  0  0  0  0  0  0  0  0
    6.2094   -3.1833   -3.1119 O   0  0  0  0  0  0  0  0  0  0  0  0
    3.8058   -3.2884   -2.6826 C   0  0  0  0  0  0  0  0  0  0  0  0
    2.8253   -3.2319   -1.4421 C   0  0  1  0  0  0  0  0  0  0  0  0
    1.4313   -3.6771   -1.9036 C   0  0  0  0  0  0  0  0  0  0  0  0
    6.7217   -2.9869    0.0043 C   0  0  1  0  0  0  0  0  0  0  0  0
    7.5582   -1.8470   -0.0220 O   0  0  0  0  0  0  0  0  0  0  0  0
    6.2233   -3.2969    1.4692 C   0  0  0  0  0  0  0  0  0  0  0  0
    4.8109   -2.7715    1.9374 C   0  0  0  0  0  0  0  0  0  0  0  0
    4.8070   -1.8456    2.7449 O   0  0  0  0  0  0  0  0  0  0  0  0
    3.4140   -3.3237    1.3668 C   0  0  2  0  0  0  0  0  0  0  0  0
    2.3862   -2.1716    1.4566 C   0  0  0  0  0  0  0  0  0  0  0  0
    2.7769   -7.1725    1.8291 C   0  0  0  0  0  0  0  0  0  0  0  0
    2.7769   -7.5259    3.3218 C   0  0  2  0  0  0  0  0  0  0  0  0
    4.2565   -7.5939    3.7552 C   0  0  0  0  0  0  0  0  0  0  0  0
    0.7705   -9.4879    7.2389 H   0  0  0  0  0  0  0  0  0  0  0  0
   -0.9167   -9.0842    7.2504 H   0  0  0  0  0  0  0  0  0  0  0  0
    0.2892   -7.8418    7.6362 H   0  0  0  0  0  0  0  0  0  0  0  0
   -0.5305   -7.4564    5.3464 H   0  0  0  0  0  0  0  0  0  0  0  0
   -0.0830  -10.3728    5.0679 H   0  0  0  0  0  0  0  0  0  0  0  0
   -1.2737   -9.3863    4.2467 H   0  0  0  0  0  0  0  0  0  0  0  0
    0.8483  -10.3932    2.9442 H   0  0  0  0  0  0  0  0  0  0  0  0
    0.1920   -9.0393    1.5134 H   0  0  0  0  0  0  0  0  0  0  0  0
    2.2491  -10.4291    4.7775 H   0  0  0  0  0  0  0  0  0  0  0  0
    2.3217   -7.9471    5.8819 H   0  0  0  0  0  0  0  0  0  0  0  0
    0.2754   -6.9826    3.1947 H   0  0  0  0  0  0  0  0  0  0  0  0
    1.7280   -4.8154    5.3281 H   0  0  0  0  0  0  0  0  0  0  0  0
    3.2044   -5.6807    5.5272 H   0  0  0  0  0  0  0  0  0  0  0  0
    3.0052   -3.4379    4.1047 H   0  0  0  0  0  0  0  0  0  0  0  0
    4.2929   -4.5665    3.9302 H   0  0  0  0  0  0  0  0  0  0  0  0
    1.8223   -4.5153    2.1401 H   0  0  0  0  0  0  0  0  0  0  0  0
    4.4907   -5.8612    1.5876 H   0  0  0  0  0  0  0  0  0  0  0  0
    3.7281   -6.0339   -0.6172 H   0  0  0  0  0  0  0  0  0  0  0  0
    2.0638   -5.5969   -0.1740 H   0  0  0  0  0  0  0  0  0  0  0  0
    4.8855   -1.3736    0.3331 H   0  0  0  0  0  0  0  0  0  0  0  0
    3.5085   -2.5427   -3.4119 H   0  0  0  0  0  0  0  0  0  0  0  0
    3.7429   -4.2516   -3.1868 H   0  0  0  0  0  0  0  0  0  0  0  0
    2.6834   -2.1724   -1.2302 H   0  0  0  0  0  0  0  0  0  0  0  0
    1.4083   -4.6887   -2.2718 H   0  0  0  0  0  0  0  0  0  0  0  0
    1.0949   -3.0525   -2.7247 H   0  0  0  0  0  0  0  0  0  0  0  0
    0.6819   -3.6130   -1.1267 H   0  0  0  0  0  0  0  0  0  0  0  0
    7.3094   -3.8217   -0.3756 H   0  0  0  0  0  0  0  0  0  0  0  0
    7.1935   -1.1749    0.5389 H   0  0  0  0  0  0  0  0  0  0  0  0
    6.2411   -4.3737    1.6373 H   0  0  0  0  0  0  0  0  0  0  0  0
    6.9756   -2.8573    2.1093 H   0  0  0  0  0  0  0  0  0  0  0  0
    1.4233   -2.4567    1.0490 H   0  0  0  0  0  0  0  0  0  0  0  0
    2.7088   -1.2906    0.9006 H   0  0  0  0  0  0  0  0  0  0  0  0
    2.2224   -1.8646    2.4884 H   0  0  0  0  0  0  0  0  0  0  0  0
    1.7585   -7.1579    1.4497 H   0  0  0  0  0  0  0  0  0  0  0  0
    3.2705   -7.9614    1.2592 H   0  0  0  0  0  0  0  0  0  0  0  0
    4.7934   -6.6660    3.5962 H   0  0  0  0  0  0  0  0  0  0  0  0
    4.7955   -8.3754    3.2198 H   0  0  0  0  0  0  0  0  0  0  0  0
    4.3537   -7.8133    4.8196 H   0  0  0  0  0  0  0  0  0  0  0  0
  1  2  1  0
  1 35  1  0
  1 36  1  0
  1 37  1  0
  2  8  1  0
  2  3  1  0
  2 38  1  1
  3  4  1  0
  3 39  1  0
  3 40  1  0
  4  5  1  0
  4  6  1  0
  4 41  1  6
  5 42  1  0
  6 33  1  0
  6  7  1  1
  6  8  1  0
  7 43  1  0
  8  9  1  0
  8 44  1  1
  9 33  1  0
  9 10  1  6
  9 11  1  0
 10 45  1  0
 11 12  1  0
 11 46  1  0
 11 47  1  0
 12 13  1  0
 12 48  1  0
 12 49  1  0
 13 30  1  0
 13 14  1  0
 13 50  1  1
 14 15  1  0
 14 32  1  0
 14 51  1  6
 16 15  1  1
 15 52  1  0
 15 53  1  0
 16 23  1  0
 16 30  1  0
 16 17  1  0
 17 18  1  0
 18 19  1  1
 18 20  1  0
 18 25  1  0
 19 54  1  0
 20 21  2  0
 20 22  1  0
 22 23  1  0
 22 55  1  0
 22 56  1  0
 23 24  1  0
 23 57  1  1
 24 58  1  0
 24 59  1  0
 24 60  1  0
 25 26  1  0
 25 27  1  0
 25 61  1  6
 26 62  1  0
 27 28  1  0
 27 63  1  0
 27 64  1  0
 28 29  2  0
 28 30  1  0
 30 31  1  6
 31 65  1  0
 31 66  1  0
 31 67  1  0
 32 33  1  0
 32 68  1  0
 32 69  1  0
 33 34  1  1
 34 70  1  0
 34 71  1  0
 34 72  1  0
M  END
>  <i_m_ct_stereo_status>  (205) 
1

>  <s_m_source_file>  (205) 
/var/tmp/pbs.5076255.sched01/tmpi5tju4vo/80qzp1lgse.sdf

>  <i_m_source_file_index>  (205) 
11

>  <i_lp_mmshare_version>  (205) 
48012

>  <i_f3d_flags>  (205) 
0

>  <s_epik_input>  (205) 
W09IXVtDQEBIXTFbQ0gyXVtDQEBIXShbQ0gzXSlbQ0BIXShbQ0BAXTIoW09IXSlbQ0gyXVtDSDJdMylbQ0BdMShbT0hdKVtDQEBdMihbQ0gzXSlbQ0gyXVtDQEBIXShbQ0gyXTQpW0NAQEhdM1tDQEBdKFtDQF00NTYpKFtDSDNdKUMoPU8pW0NIMl1bQ0BIXShbT0hdKVtDQEBdKE81KShbT0hdKUMoPU8pW0NIMl1bQ0BIXTZbQ0gzXQ==

>  <s_epik_cmdline>  (205) 
J2VwaWtfcHl0aG9uJywgJy1waHQnLCAnMi4wJywgJy1waCcsICc3LjAnLCAnLXRuJywgJzgnLCAnLW1hJywgJzIwMCcsICctaW1hZScsICc8aW5maWxlLm1hZT4nLCAnLW9tYWUnLCAnPG91dGZpbGUubWFlPic=

>  <r_lp_tautomer_probability>  (205) 
1

>  <r_epik_Ionization_Penalty>  (205) 
2.98685e-05

>  <r_epik_Ionization_Penalty_Charging>  (205) 
0

>  <r_epik_Ionization_Penalty_Neutral>  (205) 
2.98685e-05

>  <r_epik_State_Penalty>  (205) 
-0

>  <r_epik_Charging_Adjusted_Penalty>  (205) 
0

>  <i_epik_Tot_Q>  (205) 
0

>  <i_epik_Tot_abs_Q>  (205) 
0

>  <s_lp_Force_Field>  (205) 
OPLS3e

>  <r_lp_Energy>  (205) 
117.086

>  <b_lp_Chiralities_Consistent>  (205) 
1

>  <s_lp_Variant>  (205) 
64:0-1

>  <s_i_glide_gridfile>  (205) 
pfpi4k_grid

>  <i_i_glide_lignum>  (205) 
11

>  <i_i_glide_rotatable_bonds>  (205) 
5

>  <r_i_docking_score>  (205) 
-3.27361

>  <r_i_glide_ligand_efficiency>  (205) 
-0.0962825

>  <r_i_glide_ligand_efficiency_sa>  (205) 
-0.311918

>  <r_i_glide_ligand_efficiency_ln>  (205) 
-0.723231

>  <r_i_glide_gscore>  (205) 
-3.27361

>  <r_i_glide_lipo>  (205) 
-0.268977

>  <r_i_glide_hbond>  (205) 
0

>  <r_i_glide_metal>  (205) 
-0

>  <r_i_glide_rewards>  (205) 
-0.918712

>  <r_i_glide_evdw>  (205) 
-22.9151

>  <r_i_glide_ecoul>  (205) 
-6.26774

>  <r_i_glide_erotb>  (205) 
0

>  <r_i_glide_esite>  (205) 
0

>  <r_i_glide_emodel>  (205) 
-37.4551

>  <r_i_glide_energy>  (205) 
-29.1828

>  <r_i_glide_einternal>  (205) 
2.5131

>  <r_i_glide_intrahb_reward>  (205) 
-0.5

>  <i_i_glide_confnum>  (205) 
1

>  <i_i_glide_posenum>  (205) 
24

>  <r_i_glide_eff_state_penalty>  (205) 
0

>  <ligand_id>  (205) 
64

>  <original_smiles>  (205) 
CC1CC(O)C2(O)C1C1(O)CCC3C(CC45OC(O)(C(=O)CC4C)C(O)CC(=O)C35C)CC12C

>  <smiles>  (205) 
[H]OC12OC3(C([H])([H])C4([H])C([H])([H])C5(C([H])([H])[H])C(O[H])(C([H])([H])C([H])([H])C4([H])C3(C([H])([H])[H])C(=O)C([H])([H])C1([H])O[H])C1([H])C([H])(C([H])([H])[H])C([H])([H])C([H])(O[H])C15O[H])C([H])(C([H])([H])[H])C([H])([H])C2=O

$$$$
64:0:2
     RDKit          3D

 72 77  0  0  1  0  0  0  0  0999 V2000
    0.0645   -8.6925    6.9891 C   0  0  0  0  0  0  0  0  0  0  0  0
    0.1604   -8.2829    5.5070 C   0  0  2  0  0  0  0  0  0  0  0  0
   -0.2277   -9.4311    4.5539 C   0  0  0  0  0  0  0  0  0  0  0  0
    0.6956   -9.3856    3.3361 C   0  0  1  0  0  0  0  0  0  0  0  0
    0.0252   -8.6251    2.3519 O   0  0  0  0  0  0  0  0  0  0  0  0
    1.9819   -8.7506    3.8848 C   0  0  2  0  0  0  0  0  0  0  0  0
    2.7697   -9.8621    4.2643 O   0  0  0  0  0  0  0  0  0  0  0  0
    1.5749   -7.8757    5.0738 C   0  0  1  0  0  0  0  0  0  0  0  0
    1.8420   -6.6436    4.1801 C   0  0  1  0  0  0  0  0  0  0  0  0
    0.6604   -6.1858    3.5547 O   0  0  0  0  0  0  0  0  0  0  0  0
    2.4735   -5.3832    4.7680 C   0  0  0  0  0  0  0  0  0  0  0  0
    3.2176   -4.4504    3.7670 C   0  0  0  0  0  0  0  0  0  0  0  0
    2.9011   -4.5313    2.2351 C   0  0  2  0  0  0  0  0  0  0  0  0
    3.4008   -5.7891    1.4847 C   0  0  2  0  0  0  0  0  0  0  0  0
    3.1101   -5.4126    0.0384 C   0  0  0  0  0  0  0  0  0  0  0  0
    3.4183   -3.9148   -0.1256 C   0  0  1  0  0  0  0  0  0  0  0  0
    4.7703   -3.9615   -0.3934 O   0  0  0  0  0  0  0  0  0  0  0  0
    5.4574   -2.8402   -0.8460 C   0  0  2  0  0  0  0  0  0  0  0  0
    4.9242   -1.5345   -0.6054 O   0  0  0  0  0  0  0  0  0  0  0  0
    5.2857   -3.0726   -2.3140 C   0  0  0  0  0  0  0  0  0  0  0  0
    6.2056   -3.1737   -3.1139 O   0  0  0  0  0  0  0  0  0  0  0  0
    3.8038   -3.2883   -2.6871 C   0  0  0  0  0  0  0  0  0  0  0  0
    2.8256   -3.2250   -1.4465 C   0  0  1  0  0  0  0  0  0  0  0  0
    1.4274   -3.6750   -1.9020 C   0  0  0  0  0  0  0  0  0  0  0  0
    6.7146   -2.9893   -0.0016 C   0  0  1  0  0  0  0  0  0  0  0  0
    7.5532   -1.8480   -0.0270 O   0  0  0  0  0  0  0  0  0  0  0  0
    6.2202   -3.2977    1.4657 C   0  0  0  0  0  0  0  0  0  0  0  0
    4.8095   -2.7739    1.9317 C   0  0  0  0  0  0  0  0  0  0  0  0
    4.8063   -1.8431    2.7443 O   0  0  0  0  0  0  0  0  0  0  0  0
    3.4106   -3.3205    1.3653 C   0  0  2  0  0  0  0  0  0  0  0  0
    2.3843   -2.1696    1.4557 C   0  0  0  0  0  0  0  0  0  0  0  0
    2.7695   -7.1715    1.8219 C   0  0  0  0  0  0  0  0  0  0  0  0
    2.7705   -7.5290    3.3165 C   0  0  2  0  0  0  0  0  0  0  0  0
    4.2526   -7.5941    3.7479 C   0  0  0  0  0  0  0  0  0  0  0  0
    0.7677   -9.4858    7.2339 H   0  0  0  0  0  0  0  0  0  0  0  0
   -0.9199   -9.0834    7.2503 H   0  0  0  0  0  0  0  0  0  0  0  0
    0.2857   -7.8404    7.6296 H   0  0  0  0  0  0  0  0  0  0  0  0
   -0.5402   -7.4638    5.3374 H   0  0  0  0  0  0  0  0  0  0  0  0
   -0.0592  -10.3795    5.0698 H   0  0  0  0  0  0  0  0  0  0  0  0
   -1.2731   -9.3806    4.2476 H   0  0  0  0  0  0  0  0  0  0  0  0
    0.8370  -10.3950    2.9393 H   0  0  0  0  0  0  0  0  0  0  0  0
    0.1804   -9.0368    1.5113 H   0  0  0  0  0  0  0  0  0  0  0  0
    2.7570  -10.4711    3.5430 H   0  0  0  0  0  0  0  0  0  0  0  0
    2.3117   -7.9516    5.8725 H   0  0  0  0  0  0  0  0  0  0  0  0
    0.2589   -6.9806    3.2081 H   0  0  0  0  0  0  0  0  0  0  0  0
    1.7254   -4.8160    5.3250 H   0  0  0  0  0  0  0  0  0  0  0  0
    3.2008   -5.6817    5.5244 H   0  0  0  0  0  0  0  0  0  0  0  0
    3.0033   -3.4377    4.1027 H   0  0  0  0  0  0  0  0  0  0  0  0
    4.2895   -4.5670    3.9267 H   0  0  0  0  0  0  0  0  0  0  0  0
    1.8180   -4.5129    2.1385 H   0  0  0  0  0  0  0  0  0  0  0  0
    4.4852   -5.8593    1.5826 H   0  0  0  0  0  0  0  0  0  0  0  0
    3.7205   -6.0314   -0.6210 H   0  0  0  0  0  0  0  0  0  0  0  0
    2.0576   -5.5934   -0.1766 H   0  0  0  0  0  0  0  0  0  0  0  0
    4.8688   -1.3794    0.3277 H   0  0  0  0  0  0  0  0  0  0  0  0
    3.5015   -2.5361   -3.4157 H   0  0  0  0  0  0  0  0  0  0  0  0
    3.7336   -4.2523   -3.1883 H   0  0  0  0  0  0  0  0  0  0  0  0
    2.6793   -2.1682   -1.2306 H   0  0  0  0  0  0  0  0  0  0  0  0
    1.4129   -4.6889   -2.2787 H   0  0  0  0  0  0  0  0  0  0  0  0
    1.0905   -3.0473   -2.7261 H   0  0  0  0  0  0  0  0  0  0  0  0
    0.6816   -3.6156   -1.1286 H   0  0  0  0  0  0  0  0  0  0  0  0
    7.3043   -3.8252   -0.3819 H   0  0  0  0  0  0  0  0  0  0  0  0
    7.1658   -1.1652    0.4957 H   0  0  0  0  0  0  0  0  0  0  0  0
    6.2369   -4.3753    1.6322 H   0  0  0  0  0  0  0  0  0  0  0  0
    6.9747   -2.8604    2.1038 H   0  0  0  0  0  0  0  0  0  0  0  0
    1.4195   -2.4529    1.0484 H   0  0  0  0  0  0  0  0  0  0  0  0
    2.7066   -1.2882    0.8994 H   0  0  0  0  0  0  0  0  0  0  0  0
    2.2205   -1.8621    2.4875 H   0  0  0  0  0  0  0  0  0  0  0  0
    1.7521   -7.1533    1.4452 H   0  0  0  0  0  0  0  0  0  0  0  0
    3.2638   -7.9576    1.2488 H   0  0  0  0  0  0  0  0  0  0  0  0
    4.7901   -6.6662    3.5910 H   0  0  0  0  0  0  0  0  0  0  0  0
    4.7935   -8.3756    3.2132 H   0  0  0  0  0  0  0  0  0  0  0  0
    4.3467   -7.8131    4.8118 H   0  0  0  0  0  0  0  0  0  0  0  0
  1  2  1  0
  1 35  1  0
  1 36  1  0
  1 37  1  0
  2  8  1  0
  2  3  1  0
  2 38  1  1
  3  4  1  0
  3 39  1  0
  3 40  1  0
  4  5  1  0
  4  6  1  0
  4 41  1  6
  5 42  1  0
  6 33  1  0
  6  7  1  1
  6  8  1  0
  7 43  1  0
  8  9  1  0
  8 44  1  1
  9 33  1  0
  9 10  1  6
  9 11  1  0
 10 45  1  0
 11 12  1  0
 11 46  1  0
 11 47  1  0
 12 13  1  0
 12 48  1  0
 12 49  1  0
 13 30  1  0
 13 14  1  0
 13 50  1  1
 14 15  1  0
 14 32  1  0
 14 51  1  6
 16 15  1  1
 15 52  1  0
 15 53  1  0
 16 23  1  0
 16 30  1  0
 16 17  1  0
 17 18  1  0
 18 19  1  1
 18 20  1  0
 18 25  1  0
 19 54  1  0
 20 21  2  0
 20 22  1  0
 22 23  1  0
 22 55  1  0
 22 56  1  0
 23 24  1  0
 23 57  1  1
 24 58  1  0
 24 59  1  0
 24 60  1  0
 25 26  1  0
 25 27  1  0
 25 61  1  6
 26 62  1  0
 27 28  1  0
 27 63  1  0
 27 64  1  0
 28 29  2  0
 28 30  1  0
 30 31  1  6
 31 65  1  0
 31 66  1  0
 31 67  1  0
 32 33  1  0
 32 68  1  0
 32 69  1  0
 33 34  1  1
 34 70  1  0
 34 71  1  0
 34 72  1  0
M  END
>  <i_m_ct_stereo_status>  (206) 
1

>  <s_m_source_file>  (206) 
/var/tmp/pbs.5076255.sched01/tmpi5tju4vo/80qzp1lgse.sdf

>  <i_m_source_file_index>  (206) 
11

>  <i_lp_mmshare_version>  (206) 
48012

>  <i_f3d_flags>  (206) 
0

>  <s_epik_input>  (206) 
W09IXVtDQEBIXTFbQ0gyXVtDQEBIXShbQ0gzXSlbQ0BIXShbQ0BAXTIoW09IXSlbQ0gyXVtDSDJdMylbQ0BdMShbT0hdKVtDQEBdMihbQ0gzXSlbQ0gyXVtDQEBIXShbQ0gyXTQpW0NAQEhdM1tDQEBdKFtDQF00NTYpKFtDSDNdKUMoPU8pW0NIMl1bQ0BIXShbT0hdKVtDQEBdKE81KShbT0hdKUMoPU8pW0NIMl1bQ0BIXTZbQ0gzXQ==

>  <s_epik_cmdline>  (206) 
J2VwaWtfcHl0aG9uJywgJy1waHQnLCAnMi4wJywgJy1waCcsICc3LjAnLCAnLXRuJywgJzgnLCAnLW1hJywgJzIwMCcsICctaW1hZScsICc8aW5maWxlLm1hZT4nLCAnLW9tYWUnLCAnPG91dGZpbGUubWFlPic=

>  <r_lp_tautomer_probability>  (206) 
1

>  <r_epik_Ionization_Penalty>  (206) 
2.98685e-05

>  <r_epik_Ionization_Penalty_Charging>  (206) 
0

>  <r_epik_Ionization_Penalty_Neutral>  (206) 
2.98685e-05

>  <r_epik_State_Penalty>  (206) 
-0

>  <r_epik_Charging_Adjusted_Penalty>  (206) 
0

>  <i_epik_Tot_Q>  (206) 
0

>  <i_epik_Tot_abs_Q>  (206) 
0

>  <s_lp_Force_Field>  (206) 
OPLS3e

>  <r_lp_Energy>  (206) 
117.086

>  <b_lp_Chiralities_Consistent>  (206) 
1

>  <s_lp_Variant>  (206) 
64:0-1

>  <s_i_glide_gridfile>  (206) 
pfpi4k_grid

>  <i_i_glide_lignum>  (206) 
11

>  <i_i_glide_rotatable_bonds>  (206) 
5

>  <r_i_docking_score>  (206) 
-3.24208

>  <r_i_glide_ligand_efficiency>  (206) 
-0.0953553

>  <r_i_glide_ligand_efficiency_sa>  (206) 
-0.308914

>  <r_i_glide_ligand_efficiency_ln>  (206) 
-0.716267

>  <r_i_glide_gscore>  (206) 
-3.24208

>  <r_i_glide_lipo>  (206) 
-0.266268

>  <r_i_glide_hbond>  (206) 
0

>  <r_i_glide_metal>  (206) 
-0

>  <r_i_glide_rewards>  (206) 
-0.918532

>  <r_i_glide_evdw>  (206) 
-22.9413

>  <r_i_glide_ecoul>  (206) 
-6.0681

>  <r_i_glide_erotb>  (206) 
0

>  <r_i_glide_esite>  (206) 
0

>  <r_i_glide_emodel>  (206) 
-37.223

>  <r_i_glide_energy>  (206) 
-29.0094

>  <r_i_glide_einternal>  (206) 
2.48679

>  <r_i_glide_intrahb_reward>  (206) 
-0.5

>  <i_i_glide_confnum>  (206) 
1

>  <i_i_glide_posenum>  (206) 
40

>  <r_i_glide_eff_state_penalty>  (206) 
0

>  <ligand_id>  (206) 
64

>  <original_smiles>  (206) 
CC1CC(O)C2(O)C1C1(O)CCC3C(CC45OC(O)(C(=O)CC4C)C(O)CC(=O)C35C)CC12C

>  <smiles>  (206) 
[H]OC12OC3(C([H])([H])C4([H])C([H])([H])C5(C([H])([H])[H])C(O[H])(C([H])([H])C([H])([H])C4([H])C3(C([H])([H])[H])C(=O)C([H])([H])C1([H])O[H])C1([H])C([H])(C([H])([H])[H])C([H])([H])C([H])(O[H])C15O[H])C([H])(C([H])([H])[H])C([H])([H])C2=O

$$$$
65:0:0
     RDKit          3D

 64 68  0  0  1  0  0  0  0  0999 V2000
    7.0155   -3.0252   -1.9176 C   0  0  0  0  0  0  0  0  0  0  0  0
    6.0488   -3.0596   -0.9902 C   0  0  0  0  0  0  0  0  0  0  0  0
    6.2704   -3.3844    0.4098 C   0  0  0  0  0  0  0  0  0  0  0  0
    7.3606   -3.5857    0.9451 O   0  0  0  0  0  0  0  0  0  0  0  0
    4.9113   -3.4490    1.1436 C   0  0  1  0  0  0  0  0  0  0  0  0
    4.9458   -4.5118    2.2764 C   0  0  0  0  0  0  0  0  0  0  0  0
    4.4350   -4.0188    3.6405 C   0  0  0  0  0  0  0  0  0  0  0  0
    3.1064   -3.2157    3.5927 C   0  0  1  0  0  0  0  0  0  0  0  0
    2.0410   -4.1859    2.9969 C   0  0  0  0  0  0  0  0  0  0  0  0
    2.5780   -2.9720    5.0293 C   0  0  0  0  0  0  0  0  0  0  0  0
    2.9616   -3.6070    6.1514 C   0  0  0  0  0  0  0  0  0  0  0  0
    2.0761   -3.3032    7.3321 C   0  0  0  0  0  0  0  0  0  0  0  0
    0.8302   -2.7223    6.6331 C   0  0  1  0  0  0  0  0  0  0  0  0
   -0.1382   -3.8547    6.2305 C   0  0  0  0  0  0  0  0  0  0  0  0
    0.0524   -1.8955    7.4829 O   0  0  0  0  0  0  0  0  0  0  0  0
    1.4035   -2.0496    5.3434 C   0  0  1  0  0  0  0  0  0  0  0  0
    1.9892   -0.6407    5.5704 C   0  0  0  0  0  0  0  0  0  0  0  0
    2.0436   -0.1330    6.6926 O   0  0  0  0  0  0  0  0  0  0  0  0
    2.5087    0.1031    4.3315 C   0  0  1  0  0  0  0  0  0  0  0  0
    2.8980    1.4300    4.6585 O   0  0  0  0  0  0  0  0  0  0  0  0
    3.6981   -0.6040    3.6183 C   0  0  1  0  0  0  0  0  0  0  0  0
    4.9048   -0.7625    4.5899 C   0  0  0  0  0  0  0  0  0  0  0  0
    3.3359   -1.8749    2.7287 C   0  0  2  0  0  0  0  0  0  0  0  0
    2.0179   -1.5553    1.9538 C   0  0  0  0  0  0  0  0  0  0  0  0
    4.5269   -2.0108    1.6551 C   0  0  2  0  0  0  0  0  0  0  0  0
    4.5114   -0.9411    0.4867 C   0  0  1  0  0  0  0  0  0  0  0  0
    5.7559   -0.2634    0.4001 O   0  0  0  0  0  0  0  0  0  0  0  0
    4.0989   -1.4860   -0.9137 C   0  0  0  0  0  0  0  0  0  0  0  0
    4.5636   -2.9347   -1.1810 C   0  0  2  0  0  0  0  0  0  0  0  0
    4.0233   -3.8381   -0.0650 C   0  0  0  0  0  0  0  0  0  0  0  0
    6.7739   -2.8494   -2.9534 H   0  0  0  0  0  0  0  0  0  0  0  0
    8.0513   -3.1922   -1.6749 H   0  0  0  0  0  0  0  0  0  0  0  0
    4.3733   -5.3886    1.9730 H   0  0  0  0  0  0  0  0  0  0  0  0
    5.9540   -4.9059    2.4405 H   0  0  0  0  0  0  0  0  0  0  0  0
    4.3239   -4.9129    4.2554 H   0  0  0  0  0  0  0  0  0  0  0  0
    5.2147   -3.4213    4.1081 H   0  0  0  0  0  0  0  0  0  0  0  0
    2.2230   -4.4435    1.9606 H   0  0  0  0  0  0  0  0  0  0  0  0
    1.0250   -3.7955    3.0600 H   0  0  0  0  0  0  0  0  0  0  0  0
    2.0297   -5.1256    3.5485 H   0  0  0  0  0  0  0  0  0  0  0  0
    3.7458   -4.3343    6.2390 H   0  0  0  0  0  0  0  0  0  0  0  0
    1.8522   -4.1977    7.9183 H   0  0  0  0  0  0  0  0  0  0  0  0
    2.5744   -2.5787    7.9814 H   0  0  0  0  0  0  0  0  0  0  0  0
    0.3452   -4.5985    5.5940 H   0  0  0  0  0  0  0  0  0  0  0  0
   -0.9860   -3.4520    5.6789 H   0  0  0  0  0  0  0  0  0  0  0  0
   -0.5252   -4.3833    7.1050 H   0  0  0  0  0  0  0  0  0  0  0  0
    0.6252   -1.2094    7.8048 H   0  0  0  0  0  0  0  0  0  0  0  0
    0.6547   -2.0221    4.5539 H   0  0  0  0  0  0  0  0  0  0  0  0
    1.6661    0.2177    3.6553 H   0  0  0  0  0  0  0  0  0  0  0  0
    3.1454    1.8800    3.8625 H   0  0  0  0  0  0  0  0  0  0  0  0
    4.0451    0.1438    2.9048 H   0  0  0  0  0  0  0  0  0  0  0  0
    4.7368   -1.4916    5.3808 H   0  0  0  0  0  0  0  0  0  0  0  0
    5.1367    0.1834    5.0830 H   0  0  0  0  0  0  0  0  0  0  0  0
    5.8139   -1.0541    4.0794 H   0  0  0  0  0  0  0  0  0  0  0  0
    1.9896   -0.5507    1.5354 H   0  0  0  0  0  0  0  0  0  0  0  0
    1.1289   -1.6230    2.5740 H   0  0  0  0  0  0  0  0  0  0  0  0
    1.8498   -2.2326    1.1213 H   0  0  0  0  0  0  0  0  0  0  0  0
    5.4234   -1.7621    2.2124 H   0  0  0  0  0  0  0  0  0  0  0  0
    3.8477   -0.1164    0.7203 H   0  0  0  0  0  0  0  0  0  0  0  0
    5.6087    0.5631   -0.0507 H   0  0  0  0  0  0  0  0  0  0  0  0
    3.0154   -1.4695   -0.9909 H   0  0  0  0  0  0  0  0  0  0  0  0
    4.4590   -0.8212   -1.7004 H   0  0  0  0  0  0  0  0  0  0  0  0
    4.2591   -3.2852   -2.1701 H   0  0  0  0  0  0  0  0  0  0  0  0
    4.1777   -4.8856   -0.3387 H   0  0  0  0  0  0  0  0  0  0  0  0
    2.9536   -3.7104    0.0761 H   0  0  0  0  0  0  0  0  0  0  0  0
  1  2  2  0
  1 31  1  0
  1 32  1  0
  2 29  1  0
  2  3  1  0
  3  4  2  0
  3  5  1  0
  5 25  1  0
  5 30  1  0
  5  6  1  1
  6  7  1  0
  6 33  1  0
  6 34  1  0
  7  8  1  0
  7 35  1  0
  7 36  1  0
  8 23  1  0
  8  9  1  6
  8 10  1  0
  9 37  1  0
  9 38  1  0
  9 39  1  0
 10 16  1  0
 10 11  2  0
 11 12  1  0
 11 40  1  0
 12 13  1  0
 12 41  1  0
 12 42  1  0
 13 14  1  0
 13 15  1  1
 13 16  1  0
 14 43  1  0
 14 44  1  0
 14 45  1  0
 15 46  1  0
 16 17  1  0
 16 47  1  6
 17 18  2  0
 17 19  1  0
 19 20  1  0
 19 21  1  0
 19 48  1  6
 20 49  1  0
 21 22  1  0
 21 23  1  0
 21 50  1  6
 22 51  1  0
 22 52  1  0
 22 53  1  0
 23 24  1  6
 23 25  1  0
 24 54  1  0
 24 55  1  0
 24 56  1  0
 25 26  1  0
 25 57  1  1
 26 27  1  0
 26 28  1  0
 26 58  1  1
 27 59  1  0
 28 29  1  0
 28 60  1  0
 28 61  1  0
 29 30  1  0
 29 62  1  6
 30 63  1  0
 30 64  1  0
M  END
>  <i_m_ct_stereo_status>  (207) 
1

>  <s_m_source_file>  (207) 
/var/tmp/pbs.5076255.sched01/tmpi5tju4vo/80qzp1lgse.sdf

>  <i_m_source_file_index>  (207) 
12

>  <i_lp_mmshare_version>  (207) 
48012

>  <i_f3d_flags>  (207) 
0

>  <s_epik_input>  (207) 
Tz1DMUMoPVtDSDJdKVtDQEBIXShbQ0gyXTIpW0NIMl1bQ0BIXShbT0hdKVtDQEhdKFtDQF0xMjMpW0NAQF00KFtDSDNdKVtDQEBdKFtDSDNdKShbQ0gyXVtDSDJdMylDPTVbQ0BASF0oW0NAXShbQ0gzXSkoW09IXSlbQ0gyXVtDSF01KUMoPU8pW0NAQEhdKFtPSF0pW0NASF00W0NIM10=

>  <s_epik_cmdline>  (207) 
J2VwaWtfcHl0aG9uJywgJy1waHQnLCAnMi4wJywgJy1waCcsICc3LjAnLCAnLXRuJywgJzgnLCAnLW1hJywgJzIwMCcsICctaW1hZScsICc8aW5maWxlLm1hZT4nLCAnLW9tYWUnLCAnPG91dGZpbGUubWFlPic=

>  <r_lp_tautomer_probability>  (207) 
1

>  <r_epik_Ionization_Penalty>  (207) 
2.47835e-07

>  <r_epik_Ionization_Penalty_Charging>  (207) 
0

>  <r_epik_Ionization_Penalty_Neutral>  (207) 
2.47835e-07

>  <r_epik_State_Penalty>  (207) 
-0

>  <r_epik_Charging_Adjusted_Penalty>  (207) 
0

>  <i_epik_Tot_Q>  (207) 
0

>  <i_epik_Tot_abs_Q>  (207) 
0

>  <s_lp_Force_Field>  (207) 
OPLS3e

>  <r_lp_Energy>  (207) 
63.8447

>  <b_lp_Chiralities_Consistent>  (207) 
1

>  <s_lp_Variant>  (207) 
65:0-1

>  <s_i_glide_gridfile>  (207) 
pfpi4k_grid

>  <i_i_glide_lignum>  (207) 
12

>  <i_i_glide_rotatable_bonds>  (207) 
3

>  <r_i_docking_score>  (207) 
-4.23115

>  <r_i_glide_ligand_efficiency>  (207) 
-0.141038

>  <r_i_glide_ligand_efficiency_sa>  (207) 
-0.438239

>  <r_i_glide_ligand_efficiency_ln>  (207) 
-0.961363

>  <r_i_glide_gscore>  (207) 
-4.23115

>  <r_i_glide_lipo>  (207) 
-0.249147

>  <r_i_glide_hbond>  (207) 
-0.32

>  <r_i_glide_metal>  (207) 
-0

>  <r_i_glide_rewards>  (207) 
-1.19423

>  <r_i_glide_evdw>  (207) 
-25.0505

>  <r_i_glide_ecoul>  (207) 
-8.10161

>  <r_i_glide_erotb>  (207) 
0

>  <r_i_glide_esite>  (207) 
-1.17153e-05

>  <r_i_glide_emodel>  (207) 
-46.7505

>  <r_i_glide_energy>  (207) 
-33.1521

>  <r_i_glide_einternal>  (207) 
0.585861

>  <r_i_glide_intrahb_reward>  (207) 
-0.5

>  <i_i_glide_confnum>  (207) 
2

>  <i_i_glide_posenum>  (207) 
14

>  <r_i_glide_eff_state_penalty>  (207) 
0

>  <ligand_id>  (207) 
65

>  <original_smiles>  (207) 
C=C1C(=O)C23CCC4(C)C5=CCC(C)(O)C5C(=O)C(O)C(C)C4(C)C2C(O)CC1C3

>  <smiles>  (207) 
[H]OC1([H])C(=O)C2([H])C(=C([H])C([H])([H])C2(O[H])C([H])([H])[H])C2(C([H])([H])[H])C([H])([H])C([H])([H])C34C(=O)C(=C([H])[H])C([H])(C([H])([H])C([H])(O[H])C3([H])C2(C([H])([H])[H])C1([H])C([H])([H])[H])C4([H])[H]

$$$$
65:0:1
     RDKit          3D

 64 68  0  0  1  0  0  0  0  0999 V2000
    6.9517   -3.0303   -1.7002 C   0  0  0  0  0  0  0  0  0  0  0  0
    5.9692   -3.0464   -0.7870 C   0  0  0  0  0  0  0  0  0  0  0  0
    6.1388   -3.4229    0.6119 C   0  0  0  0  0  0  0  0  0  0  0  0
    7.2039   -3.6725    1.1712 O   0  0  0  0  0  0  0  0  0  0  0  0
    4.7660   -3.4251    1.3230 C   0  0  1  0  0  0  0  0  0  0  0  0
    4.7193   -4.5181    2.4280 C   0  0  0  0  0  0  0  0  0  0  0  0
    4.2175   -4.0356    3.7979 C   0  0  0  0  0  0  0  0  0  0  0  0
    2.9369   -3.1558    3.7531 C   0  0  1  0  0  0  0  0  0  0  0  0
    1.8285   -4.0435    3.1142 C   0  0  0  0  0  0  0  0  0  0  0  0
    2.3986   -2.9260    5.1860 C   0  0  0  0  0  0  0  0  0  0  0  0
    2.7260   -3.6151    6.2957 C   0  0  0  0  0  0  0  0  0  0  0  0
    1.8390   -3.2966    7.4708 C   0  0  0  0  0  0  0  0  0  0  0  0
    0.6414   -2.6241    6.7690 C   0  0  1  0  0  0  0  0  0  0  0  0
   -0.3857   -3.6835    6.3226 C   0  0  0  0  0  0  0  0  0  0  0  0
   -0.0987   -1.7775    7.6309 O   0  0  0  0  0  0  0  0  0  0  0  0
    1.2715   -1.9489    5.5106 C   0  0  1  0  0  0  0  0  0  0  0  0
    1.9379   -0.5838    5.7891 C   0  0  0  0  0  0  0  0  0  0  0  0
    2.0126   -0.1141    6.9254 O   0  0  0  0  0  0  0  0  0  0  0  0
    2.5216    0.1623    4.5827 C   0  0  1  0  0  0  0  0  0  0  0  0
    2.9670    1.4586    4.9528 O   0  0  0  0  0  0  0  0  0  0  0  0
    3.6834   -0.5870    3.8678 C   0  0  1  0  0  0  0  0  0  0  0  0
    4.8697   -0.8436    4.8500 C   0  0  0  0  0  0  0  0  0  0  0  0
    3.2573   -1.8074    2.9317 C   0  0  2  0  0  0  0  0  0  0  0  0
    1.9747   -1.3847    2.1429 C   0  0  0  0  0  0  0  0  0  0  0  0
    4.4561   -1.9835    1.8781 C   0  0  2  0  0  0  0  0  0  0  0  0
    4.5268   -0.8840    0.7417 C   0  0  1  0  0  0  0  0  0  0  0  0
    5.8139   -0.3019    0.6993 O   0  0  0  0  0  0  0  0  0  0  0  0
    4.1065   -1.3622   -0.6799 C   0  0  0  0  0  0  0  0  0  0  0  0
    4.4926   -2.8260   -0.9919 C   0  0  2  0  0  0  0  0  0  0  0  0
    3.8783   -3.7235    0.0901 C   0  0  0  0  0  0  0  0  0  0  0  0
    6.7545   -2.7982   -2.7336 H   0  0  0  0  0  0  0  0  0  0  0  0
    7.9726   -3.2628   -1.4412 H   0  0  0  0  0  0  0  0  0  0  0  0
    4.0991   -5.3496    2.0898 H   0  0  0  0  0  0  0  0  0  0  0  0
    5.6977   -4.9770    2.5922 H   0  0  0  0  0  0  0  0  0  0  0  0
    4.0432   -4.9389    4.3834 H   0  0  0  0  0  0  0  0  0  0  0  0
    5.0213   -3.4982    4.2983 H   0  0  0  0  0  0  0  0  0  0  0  0
    2.0137   -4.2782    2.0730 H   0  0  0  0  0  0  0  0  0  0  0  0
    0.8368   -3.5955    3.1752 H   0  0  0  0  0  0  0  0  0  0  0  0
    1.7548   -4.9982    3.6360 H   0  0  0  0  0  0  0  0  0  0  0  0
    3.4678   -4.3864    6.3733 H   0  0  0  0  0  0  0  0  0  0  0  0
    1.5549   -4.1939    8.0227 H   0  0  0  0  0  0  0  0  0  0  0  0
    2.3658   -2.6233    8.1505 H   0  0  0  0  0  0  0  0  0  0  0  0
    0.0636   -4.4322    5.6655 H   0  0  0  0  0  0  0  0  0  0  0  0
   -1.2015   -3.2132    5.7722 H   0  0  0  0  0  0  0  0  0  0  0  0
   -0.8142   -4.2174    7.1728 H   0  0  0  0  0  0  0  0  0  0  0  0
    0.5019   -1.1170    7.9542 H   0  0  0  0  0  0  0  0  0  0  0  0
    0.5408   -1.8581    4.7096 H   0  0  0  0  0  0  0  0  0  0  0  0
    1.6984    0.3469    3.8993 H   0  0  0  0  0  0  0  0  0  0  0  0
    3.6989    1.3709    5.5428 H   0  0  0  0  0  0  0  0  0  0  0  0
    4.0738    0.1647    3.1823 H   0  0  0  0  0  0  0  0  0  0  0  0
    4.6392   -1.5850    5.6156 H   0  0  0  0  0  0  0  0  0  0  0  0
    5.1410    0.0699    5.3792 H   0  0  0  0  0  0  0  0  0  0  0  0
    5.7865   -1.1676    4.3590 H   0  0  0  0  0  0  0  0  0  0  0  0
    2.0138   -0.3675    1.7605 H   0  0  0  0  0  0  0  0  0  0  0  0
    1.0722   -1.4192    2.7464 H   0  0  0  0  0  0  0  0  0  0  0  0
    1.7853   -2.0242    1.2843 H   0  0  0  0  0  0  0  0  0  0  0  0
    5.3508   -1.8067    2.4648 H   0  0  0  0  0  0  0  0  0  0  0  0
    3.9090   -0.0249    0.9803 H   0  0  0  0  0  0  0  0  0  0  0  0
    6.4687   -0.9703    0.8567 H   0  0  0  0  0  0  0  0  0  0  0  0
    3.0217   -1.2785   -0.7738 H   0  0  0  0  0  0  0  0  0  0  0  0
    4.5183   -0.6874   -1.4316 H   0  0  0  0  0  0  0  0  0  0  0  0
    4.1833   -3.1220   -1.9966 H   0  0  0  0  0  0  0  0  0  0  0  0
    3.9735   -4.7704   -0.2107 H   0  0  0  0  0  0  0  0  0  0  0  0
    2.8170   -3.5335    0.2187 H   0  0  0  0  0  0  0  0  0  0  0  0
  1  2  2  0
  1 31  1  0
  1 32  1  0
  2 29  1  0
  2  3  1  0
  3  4  2  0
  3  5  1  0
  5 25  1  0
  5 30  1  0
  5  6  1  1
  6  7  1  0
  6 33  1  0
  6 34  1  0
  7  8  1  0
  7 35  1  0
  7 36  1  0
  8 23  1  0
  8  9  1  6
  8 10  1  0
  9 37  1  0
  9 38  1  0
  9 39  1  0
 10 16  1  0
 10 11  2  0
 11 12  1  0
 11 40  1  0
 12 13  1  0
 12 41  1  0
 12 42  1  0
 13 14  1  0
 13 15  1  1
 13 16  1  0
 14 43  1  0
 14 44  1  0
 14 45  1  0
 15 46  1  0
 16 17  1  0
 16 47  1  6
 17 18  2  0
 17 19  1  0
 19 20  1  0
 19 21  1  0
 19 48  1  6
 20 49  1  0
 21 22  1  0
 21 23  1  0
 21 50  1  6
 22 51  1  0
 22 52  1  0
 22 53  1  0
 23 24  1  6
 23 25  1  0
 24 54  1  0
 24 55  1  0
 24 56  1  0
 25 26  1  0
 25 57  1  1
 26 27  1  0
 26 28  1  0
 26 58  1  1
 27 59  1  0
 28 29  1  0
 28 60  1  0
 28 61  1  0
 29 30  1  0
 29 62  1  6
 30 63  1  0
 30 64  1  0
M  END
>  <i_m_ct_stereo_status>  (208) 
1

>  <s_m_source_file>  (208) 
/var/tmp/pbs.5076255.sched01/tmpi5tju4vo/80qzp1lgse.sdf

>  <i_m_source_file_index>  (208) 
12

>  <i_lp_mmshare_version>  (208) 
48012

>  <i_f3d_flags>  (208) 
0

>  <s_epik_input>  (208) 
Tz1DMUMoPVtDSDJdKVtDQEBIXShbQ0gyXTIpW0NIMl1bQ0BIXShbT0hdKVtDQEhdKFtDQF0xMjMpW0NAQF00KFtDSDNdKVtDQEBdKFtDSDNdKShbQ0gyXVtDSDJdMylDPTVbQ0BASF0oW0NAXShbQ0gzXSkoW09IXSlbQ0gyXVtDSF01KUMoPU8pW0NAQEhdKFtPSF0pW0NASF00W0NIM10=

>  <s_epik_cmdline>  (208) 
J2VwaWtfcHl0aG9uJywgJy1waHQnLCAnMi4wJywgJy1waCcsICc3LjAnLCAnLXRuJywgJzgnLCAnLW1hJywgJzIwMCcsICctaW1hZScsICc8aW5maWxlLm1hZT4nLCAnLW9tYWUnLCAnPG91dGZpbGUubWFlPic=

>  <r_lp_tautomer_probability>  (208) 
1

>  <r_epik_Ionization_Penalty>  (208) 
2.47835e-07

>  <r_epik_Ionization_Penalty_Charging>  (208) 
0

>  <r_epik_Ionization_Penalty_Neutral>  (208) 
2.47835e-07

>  <r_epik_State_Penalty>  (208) 
-0

>  <r_epik_Charging_Adjusted_Penalty>  (208) 
0

>  <i_epik_Tot_Q>  (208) 
0

>  <i_epik_Tot_abs_Q>  (208) 
0

>  <s_lp_Force_Field>  (208) 
OPLS3e

>  <r_lp_Energy>  (208) 
63.8447

>  <b_lp_Chiralities_Consistent>  (208) 
1

>  <s_lp_Variant>  (208) 
65:0-1

>  <s_i_glide_gridfile>  (208) 
pfpi4k_grid

>  <i_i_glide_lignum>  (208) 
12

>  <i_i_glide_rotatable_bonds>  (208) 
3

>  <r_i_docking_score>  (208) 
-3.24855

>  <r_i_glide_ligand_efficiency>  (208) 
-0.108285

>  <r_i_glide_ligand_efficiency_sa>  (208) 
-0.336466

>  <r_i_glide_ligand_efficiency_ln>  (208) 
-0.738105

>  <r_i_glide_gscore>  (208) 
-3.24855

>  <r_i_glide_lipo>  (208) 
-0.225026

>  <r_i_glide_hbond>  (208) 
-0.0308793

>  <r_i_glide_metal>  (208) 
-0

>  <r_i_glide_rewards>  (208) 
-1.1896

>  <r_i_glide_evdw>  (208) 
-24.389

>  <r_i_glide_ecoul>  (208) 
-3.89043

>  <r_i_glide_erotb>  (208) 
0

>  <r_i_glide_esite>  (208) 
-2.83561e-05

>  <r_i_glide_emodel>  (208) 
-39.0655

>  <r_i_glide_energy>  (208) 
-28.2795

>  <r_i_glide_einternal>  (208) 
1.86209

>  <r_i_glide_intrahb_reward>  (208) 
-0.5

>  <i_i_glide_confnum>  (208) 
2

>  <i_i_glide_posenum>  (208) 
10

>  <r_i_glide_eff_state_penalty>  (208) 
0

>  <ligand_id>  (208) 
65

>  <original_smiles>  (208) 
C=C1C(=O)C23CCC4(C)C5=CCC(C)(O)C5C(=O)C(O)C(C)C4(C)C2C(O)CC1C3

>  <smiles>  (208) 
[H]OC1([H])C(=O)C2([H])C(=C([H])C([H])([H])C2(O[H])C([H])([H])[H])C2(C([H])([H])[H])C([H])([H])C([H])([H])C34C(=O)C(=C([H])[H])C([H])(C([H])([H])C([H])(O[H])C3([H])C2(C([H])([H])[H])C1([H])C([H])([H])[H])C4([H])[H]

$$$$
65:0:2
     RDKit          3D

 64 68  0  0  1  0  0  0  0  0999 V2000
    2.8391   -1.2732    8.7383 C   0  0  0  0  0  0  0  0  0  0  0  0
    2.3417   -2.3306    8.0832 C   0  0  0  0  0  0  0  0  0  0  0  0
    2.9487   -2.9583    6.9102 C   0  0  0  0  0  0  0  0  0  0  0  0
    4.0432   -2.6788    6.4138 O   0  0  0  0  0  0  0  0  0  0  0  0
    2.0126   -4.0637    6.3701 C   0  0  1  0  0  0  0  0  0  0  0  0
    2.1139   -4.1711    4.8225 C   0  0  0  0  0  0  0  0  0  0  0  0
    2.3409   -5.5908    4.2853 C   0  0  0  0  0  0  0  0  0  0  0  0
    1.4260   -6.6789    4.9133 C   0  0  1  0  0  0  0  0  0  0  0  0
   -0.0360   -6.2580    4.5832 C   0  0  0  0  0  0  0  0  0  0  0  0
    1.5770   -8.0090    4.1396 C   0  0  0  0  0  0  0  0  0  0  0  0
    2.1288   -8.1796    2.9241 C   0  0  0  0  0  0  0  0  0  0  0  0
    1.8984   -9.5590    2.3651 C   0  0  0  0  0  0  0  0  0  0  0  0
    0.7333  -10.0505    3.2482 C   0  0  1  0  0  0  0  0  0  0  0  0
   -0.6204   -9.5973    2.6567 C   0  0  0  0  0  0  0  0  0  0  0  0
    0.6393  -11.4602    3.2988 O   0  0  0  0  0  0  0  0  0  0  0  0
    0.9677   -9.3261    4.6095 C   0  0  1  0  0  0  0  0  0  0  0  0
    2.0261   -9.9980    5.5092 C   0  0  0  0  0  0  0  0  0  0  0  0
    2.6877  -10.9674    5.1330 O   0  0  0  0  0  0  0  0  0  0  0  0
    2.2470   -9.3774    6.8912 C   0  0  1  0  0  0  0  0  0  0  0  0
    3.1065  -10.1894    7.6715 O   0  0  0  0  0  0  0  0  0  0  0  0
    2.7992   -7.9202    6.8492 C   0  0  1  0  0  0  0  0  0  0  0  0
    4.1638   -7.8562    6.0934 C   0  0  0  0  0  0  0  0  0  0  0  0
    1.7394   -6.7832    6.4900 C   0  0  2  0  0  0  0  0  0  0  0  0
    0.4117   -7.1124    7.2439 C   0  0  0  0  0  0  0  0  0  0  0  0
    2.3322   -5.4207    7.1002 C   0  0  2  0  0  0  0  0  0  0  0  0
    2.2303   -5.2876    8.6748 C   0  0  1  0  0  0  0  0  0  0  0  0
    3.4942   -4.9580    9.2187 O   0  0  0  0  0  0  0  0  0  0  0  0
    1.1744   -4.2700    9.1928 C   0  0  0  0  0  0  0  0  0  0  0  0
    1.0158   -3.0209    8.2941 C   0  0  2  0  0  0  0  0  0  0  0  0
    0.6664   -3.4939    6.8762 C   0  0  0  0  0  0  0  0  0  0  0  0
    2.3223   -0.8227    9.5702 H   0  0  0  0  0  0  0  0  0  0  0  0
    3.7810   -0.8318    8.4564 H   0  0  0  0  0  0  0  0  0  0  0  0
    1.2150   -3.7552    4.3683 H   0  0  0  0  0  0  0  0  0  0  0  0
    2.9145   -3.5470    4.4229 H   0  0  0  0  0  0  0  0  0  0  0  0
    2.1817   -5.5272    3.2082 H   0  0  0  0  0  0  0  0  0  0  0  0
    3.3868   -5.8620    4.4219 H   0  0  0  0  0  0  0  0  0  0  0  0
   -0.3455   -5.3462    5.0792 H   0  0  0  0  0  0  0  0  0  0  0  0
   -0.7699   -7.0271    4.8298 H   0  0  0  0  0  0  0  0  0  0  0  0
   -0.1419   -6.0833    3.5132 H   0  0  0  0  0  0  0  0  0  0  0  0
    2.6160   -7.4318    2.3267 H   0  0  0  0  0  0  0  0  0  0  0  0
    1.6394   -9.5290    1.3089 H   0  0  0  0  0  0  0  0  0  0  0  0
    2.8034  -10.1587    2.4721 H   0  0  0  0  0  0  0  0  0  0  0  0
   -0.6680   -8.5168    2.5197 H   0  0  0  0  0  0  0  0  0  0  0  0
   -1.4529   -9.8657    3.3026 H   0  0  0  0  0  0  0  0  0  0  0  0
   -0.8070  -10.0664    1.6904 H   0  0  0  0  0  0  0  0  0  0  0  0
    1.4524  -11.8079    3.6427 H   0  0  0  0  0  0  0  0  0  0  0  0
    0.0309   -9.2026    5.1498 H   0  0  0  0  0  0  0  0  0  0  0  0
    1.2958   -9.4216    7.4159 H   0  0  0  0  0  0  0  0  0  0  0  0
    2.6943  -11.0486    7.7184 H   0  0  0  0  0  0  0  0  0  0  0  0
    3.0720   -7.7319    7.8858 H   0  0  0  0  0  0  0  0  0  0  0  0
    4.0697   -8.0380    5.0231 H   0  0  0  0  0  0  0  0  0  0  0  0
    4.8431   -8.6188    6.4762 H   0  0  0  0  0  0  0  0  0  0  0  0
    4.6951   -6.9112    6.2094 H   0  0  0  0  0  0  0  0  0  0  0  0
    0.5668   -7.4447    8.2661 H   0  0  0  0  0  0  0  0  0  0  0  0
   -0.1448   -7.9165    6.7746 H   0  0  0  0  0  0  0  0  0  0  0  0
   -0.2644   -6.2635    7.2882 H   0  0  0  0  0  0  0  0  0  0  0  0
    3.4000   -5.4915    6.9135 H   0  0  0  0  0  0  0  0  0  0  0  0
    2.0212   -6.2462    9.1397 H   0  0  0  0  0  0  0  0  0  0  0  0
    4.0744   -5.6902    9.0721 H   0  0  0  0  0  0  0  0  0  0  0  0
    0.2040   -4.7646    9.2534 H   0  0  0  0  0  0  0  0  0  0  0  0
    1.4236   -3.9725   10.2120 H   0  0  0  0  0  0  0  0  0  0  0  0
    0.2766   -2.3257    8.7003 H   0  0  0  0  0  0  0  0  0  0  0  0
    0.3605   -2.6380    6.2727 H   0  0  0  0  0  0  0  0  0  0  0  0
   -0.1677   -4.1871    6.8777 H   0  0  0  0  0  0  0  0  0  0  0  0
  1  2  2  0
  1 31  1  0
  1 32  1  0
  2 29  1  0
  2  3  1  0
  3  4  2  0
  3  5  1  0
  5 25  1  0
  5 30  1  0
  5  6  1  6
  6  7  1  0
  6 33  1  0
  6 34  1  0
  7  8  1  0
  7 35  1  0
  7 36  1  0
  8 23  1  0
  8  9  1  1
  8 10  1  0
  9 37  1  0
  9 38  1  0
  9 39  1  0
 10 16  1  0
 10 11  2  0
 11 12  1  0
 11 40  1  0
 12 13  1  0
 12 41  1  0
 12 42  1  0
 13 14  1  0
 13 15  1  1
 13 16  1  0
 14 43  1  0
 14 44  1  0
 14 45  1  0
 15 46  1  0
 16 17  1  0
 16 47  1  1
 17 18  2  0
 17 19  1  0
 19 20  1  0
 19 21  1  0
 19 48  1  1
 20 49  1  0
 21 22  1  0
 21 23  1  0
 21 50  1  1
 22 51  1  0
 22 52  1  0
 22 53  1  0
 23 24  1  1
 23 25  1  0
 24 54  1  0
 24 55  1  0
 24 56  1  0
 25 26  1  0
 25 57  1  1
 26 27  1  0
 26 28  1  0
 26 58  1  1
 27 59  1  0
 28 29  1  0
 28 60  1  0
 28 61  1  0
 29 30  1  0
 29 62  1  1
 30 63  1  0
 30 64  1  0
M  END
>  <i_m_ct_stereo_status>  (209) 
1

>  <s_m_source_file>  (209) 
/var/tmp/pbs.5076255.sched01/tmpi5tju4vo/80qzp1lgse.sdf

>  <i_m_source_file_index>  (209) 
12

>  <i_lp_mmshare_version>  (209) 
48012

>  <i_f3d_flags>  (209) 
0

>  <s_epik_input>  (209) 
Tz1DMUMoPVtDSDJdKVtDQEBIXShbQ0gyXTIpW0NIMl1bQ0BIXShbT0hdKVtDQEhdKFtDQF0xMjMpW0NAQF00KFtDSDNdKVtDQEBdKFtDSDNdKShbQ0gyXVtDSDJdMylDPTVbQ0BASF0oW0NAXShbQ0gzXSkoW09IXSlbQ0gyXVtDSF01KUMoPU8pW0NAQEhdKFtPSF0pW0NASF00W0NIM10=

>  <s_epik_cmdline>  (209) 
J2VwaWtfcHl0aG9uJywgJy1waHQnLCAnMi4wJywgJy1waCcsICc3LjAnLCAnLXRuJywgJzgnLCAnLW1hJywgJzIwMCcsICctaW1hZScsICc8aW5maWxlLm1hZT4nLCAnLW9tYWUnLCAnPG91dGZpbGUubWFlPic=

>  <r_lp_tautomer_probability>  (209) 
1

>  <r_epik_Ionization_Penalty>  (209) 
2.47835e-07

>  <r_epik_Ionization_Penalty_Charging>  (209) 
0

>  <r_epik_Ionization_Penalty_Neutral>  (209) 
2.47835e-07

>  <r_epik_State_Penalty>  (209) 
-0

>  <r_epik_Charging_Adjusted_Penalty>  (209) 
0

>  <i_epik_Tot_Q>  (209) 
0

>  <i_epik_Tot_abs_Q>  (209) 
0

>  <s_lp_Force_Field>  (209) 
OPLS3e

>  <r_lp_Energy>  (209) 
63.8447

>  <b_lp_Chiralities_Consistent>  (209) 
1

>  <s_lp_Variant>  (209) 
65:0-1

>  <s_i_glide_gridfile>  (209) 
pfpi4k_grid

>  <i_i_glide_lignum>  (209) 
12

>  <i_i_glide_rotatable_bonds>  (209) 
3

>  <r_i_docking_score>  (209) 
-2.78702

>  <r_i_glide_ligand_efficiency>  (209) 
-0.0929006

>  <r_i_glide_ligand_efficiency_sa>  (209) 
-0.288664

>  <r_i_glide_ligand_efficiency_ln>  (209) 
-0.633241

>  <r_i_glide_gscore>  (209) 
-2.78702

>  <r_i_glide_lipo>  (209) 
-0.141252

>  <r_i_glide_hbond>  (209) 
0

>  <r_i_glide_metal>  (209) 
-0

>  <r_i_glide_rewards>  (209) 
-1.08272

>  <r_i_glide_evdw>  (209) 
-19.8962

>  <r_i_glide_ecoul>  (209) 
-3.4089

>  <r_i_glide_erotb>  (209) 
0

>  <r_i_glide_esite>  (209) 
-0.0569006

>  <r_i_glide_emodel>  (209) 
-33.1435

>  <r_i_glide_energy>  (209) 
-23.3051

>  <r_i_glide_einternal>  (209) 
2.02437

>  <r_i_glide_intrahb_reward>  (209) 
-0.5

>  <i_i_glide_confnum>  (209) 
1

>  <i_i_glide_posenum>  (209) 
12

>  <r_i_glide_eff_state_penalty>  (209) 
0

>  <ligand_id>  (209) 
65

>  <original_smiles>  (209) 
C=C1C(=O)C23CCC4(C)C5=CCC(C)(O)C5C(=O)C(O)C(C)C4(C)C2C(O)CC1C3

>  <smiles>  (209) 
[H]OC1([H])C(=O)C2([H])C(=C([H])C([H])([H])C2(O[H])C([H])([H])[H])C2(C([H])([H])[H])C([H])([H])C([H])([H])C34C(=O)C(=C([H])[H])C([H])(C([H])([H])C([H])(O[H])C3([H])C2(C([H])([H])[H])C1([H])C([H])([H])[H])C4([H])[H]

$$$$
68:0:0
     RDKit          3D

 24 24  0  0  1  0  0  0  0  0999 V2000
    2.2198   -3.1098   -3.9081 N   0  0  0  0  0  0  0  0  0  0  0  0
    3.0386   -2.3657   -3.0795 C   0  0  0  0  0  0  0  0  0  0  0  0
    3.8492   -0.9938   -3.7395 S   0  0  0  0  0  0  0  0  0  0  0  0
    4.6995   -0.6485   -2.3369 N   0  0  0  0  0  0  0  0  0  0  0  0
    4.3288   -1.4751   -1.3879 C   0  0  0  0  0  0  0  0  0  0  0  0
    4.9037   -1.3055   -0.1186 N   0  0  0  0  0  0  0  0  0  0  0  0
    3.3777   -2.4885   -1.7535 C   0  0  0  0  0  0  0  0  0  0  0  0
    2.8221   -3.4976   -0.8594 C   0  0  0  0  0  0  0  0  0  0  0  0
    1.7952   -4.1326   -1.1006 O   0  0  0  0  0  0  0  0  0  0  0  0
    3.5706   -3.6929    0.2613 O   0  0  0  0  0  0  0  0  0  0  0  0
    3.2165   -4.6308    1.2561 C   0  0  0  0  0  0  0  0  0  0  0  0
    3.4472   -6.0759    0.7651 C   0  0  0  0  0  0  0  0  0  0  0  0
    2.7375   -6.9978    1.5810 O   0  0  0  0  0  0  0  0  0  0  0  0
    1.3073   -7.0409    1.4387 N   0  0  0  0  0  0  0  0  0  0  0  0
    0.8000   -6.3086    0.6184 O   0  0  0  0  0  0  0  0  0  0  0  0
    0.7742   -7.8148    2.1988 O   0  0  0  0  0  0  0  0  0  0  0  0
    1.6193   -3.8816   -3.6073 H   0  0  0  0  0  0  0  0  0  0  0  0
    4.6313   -1.9240    0.6321 H   0  0  0  0  0  0  0  0  0  0  0  0
    5.5210   -0.5435    0.1114 H   0  0  0  0  0  0  0  0  0  0  0  0
    3.8169   -4.4563    2.1525 H   0  0  0  0  0  0  0  0  0  0  0  0
    2.1892   -4.4664    1.5868 H   0  0  0  0  0  0  0  0  0  0  0  0
    3.1365   -6.2305   -0.2659 H   0  0  0  0  0  0  0  0  0  0  0  0
    4.5164   -6.3115    0.7728 H   0  0  0  0  0  0  0  0  0  0  0  0
    2.0302   -2.8208   -4.8669 H   0  0  0  0  0  0  0  0  0  0  0  0
  1  2  1  0
  1 17  1  0
  1 24  1  0
  2  7  2  0
  2  3  1  0
  3  4  1  0
  4  5  2  0
  5  6  1  0
  5  7  1  0
  6 18  1  0
  6 19  1  0
  7  8  1  0
  8  9  2  0
  8 10  1  0
 10 11  1  0
 11 12  1  0
 11 20  1  0
 11 21  1  0
 12 13  1  0
 12 22  1  0
 12 23  1  0
 13 14  1  0
 14 15  2  0
 14 16  1  0
M  CHG  2  14   1  16  -1
M  END
>  <i_m_ct_stereo_status>  (210) 
1

>  <s_m_source_file>  (210) 
/var/tmp/pbs.5076255.sched01/tmpi5tju4vo/80qzp1lgse.sdf

>  <i_m_source_file_index>  (210) 
15

>  <i_lp_mmshare_version>  (210) 
48012

>  <i_f3d_flags>  (210) 
0

>  <s_epik_input>  (210) 
W0hdL049YzFcc1tuSF1jKFtOSDJdKWMxQyg9TylPW0NIMl1bQ0gyXU9bTitdKD1PKVtPLV0=

>  <s_epik_cmdline>  (210) 
J2VwaWtfcHl0aG9uJywgJy1waHQnLCAnMi4wJywgJy1waCcsICc3LjAnLCAnLXRuJywgJzgnLCAnLW1hJywgJzIwMCcsICctaW1hZScsICc8aW5maWxlLm1hZT4nLCAnLW9tYWUnLCAnPG91dGZpbGUubWFlPic=

>  <r_lp_tautomer_probability>  (210) 
1

>  <r_epik_Ionization_Penalty>  (210) 
5.92312e-05

>  <r_epik_Ionization_Penalty_Charging>  (210) 
0

>  <r_epik_Ionization_Penalty_Neutral>  (210) 
5.92312e-05

>  <r_epik_State_Penalty>  (210) 
-0

>  <r_epik_Charging_Adjusted_Penalty>  (210) 
0

>  <i_epik_Tot_Q>  (210) 
0

>  <i_epik_Tot_abs_Q>  (210) 
2

>  <s_epik_Chemistry_Notes>  (210) 
This compound has an ester and may undergo hydrolysis at high or low pH.

>  <s_lp_Force_Field>  (210) 
OPLS3e

>  <r_lp_Energy>  (210) 
8.86682

>  <b_lp_Chiralities_Consistent>  (210) 
1

>  <s_lp_Variant>  (210) 
68:0-1

>  <s_i_glide_gridfile>  (210) 
pfpi4k_grid

>  <i_i_glide_lignum>  (210) 
15

>  <i_i_glide_rotatable_bonds>  (210) 
6

>  <r_i_docking_score>  (210) 
-4.07795

>  <r_i_glide_ligand_efficiency>  (210) 
-0.254872

>  <r_i_glide_ligand_efficiency_sa>  (210) 
-0.642237

>  <r_i_glide_ligand_efficiency_ln>  (210) 
-1.08094

>  <r_i_glide_gscore>  (210) 
-4.07795

>  <r_i_glide_lipo>  (210) 
-0.268746

>  <r_i_glide_hbond>  (210) 
-0.589815

>  <r_i_glide_metal>  (210) 
-0

>  <r_i_glide_rewards>  (210) 
-2.2167

>  <r_i_glide_evdw>  (210) 
-26.5368

>  <r_i_glide_ecoul>  (210) 
-5.90949

>  <r_i_glide_erotb>  (210) 
1.41727

>  <r_i_glide_esite>  (210) 
-0.206696

>  <r_i_glide_emodel>  (210) 
-43.4196

>  <r_i_glide_energy>  (210) 
-32.4463

>  <r_i_glide_einternal>  (210) 
3.59253

>  <r_i_glide_intrahb_reward>  (210) 
-0.5

>  <i_i_glide_confnum>  (210) 
3

>  <i_i_glide_posenum>  (210) 
28

>  <r_i_glide_eff_state_penalty>  (210) 
0

>  <ligand_id>  (210) 
68

>  <original_smiles>  (210) 
N=c1s[nH]c(N)c1C(=O)OCCO[N+](=O)[O-]

>  <smiles>  (210) 
[H]N([H])c1nsc(N([H])[H])c1C(=O)OC([H])([H])C([H])([H])O[N+](=O)[O-]

$$$$
68:0:1
     RDKit          3D

 24 24  0  0  1  0  0  0  0  0999 V2000
    2.5993   -3.4437   -2.9365 N   0  0  0  0  0  0  0  0  0  0  0  0
    3.4163   -2.4510   -2.4365 C   0  0  0  0  0  0  0  0  0  0  0  0
    3.5349   -0.9881   -3.3441 S   0  0  0  0  0  0  0  0  0  0  0  0
    4.6118   -0.2783   -2.3044 N   0  0  0  0  0  0  0  0  0  0  0  0
    4.8789   -1.0940   -1.3018 C   0  0  0  0  0  0  0  0  0  0  0  0
    5.7885   -0.6595   -0.3082 N   0  0  0  0  0  0  0  0  0  0  0  0
    4.2255   -2.3732   -1.3174 C   0  0  0  0  0  0  0  0  0  0  0  0
    4.4108   -3.4211   -0.3105 C   0  0  0  0  0  0  0  0  0  0  0  0
    5.2311   -3.3738    0.6183 O   0  0  0  0  0  0  0  0  0  0  0  0
    3.6040   -4.4841   -0.4774 O   0  0  0  0  0  0  0  0  0  0  0  0
    3.7024   -5.6330    0.3522 C   0  0  0  0  0  0  0  0  0  0  0  0
    2.9510   -5.4139    1.6737 C   0  0  0  0  0  0  0  0  0  0  0  0
    1.5464   -5.5684    1.4676 O   0  0  0  0  0  0  0  0  0  0  0  0
    1.0182   -6.9025    1.4552 N   0  0  0  0  0  0  0  0  0  0  0  0
    1.7930   -7.8115    1.6527 O   0  0  0  0  0  0  0  0  0  0  0  0
   -0.1728   -6.9298    1.2523 O   0  0  0  0  0  0  0  0  0  0  0  0
    2.5777   -4.3876   -2.5370 H   0  0  0  0  0  0  0  0  0  0  0  0
    5.9633   -1.2259    0.5171 H   0  0  0  0  0  0  0  0  0  0  0  0
    6.0525    0.3133   -0.2507 H   0  0  0  0  0  0  0  0  0  0  0  0
    3.2827   -6.4798   -0.1778 H   0  0  0  0  0  0  0  0  0  0  0  0
    4.7385   -5.9022    0.5381 H   0  0  0  0  0  0  0  0  0  0  0  0
    3.3107   -6.0918    2.4507 H   0  0  0  0  0  0  0  0  0  0  0  0
    3.1291   -4.4077    2.0658 H   0  0  0  0  0  0  0  0  0  0  0  0
    2.0842   -3.3743   -3.7956 H   0  0  0  0  0  0  0  0  0  0  0  0
  1  2  1  0
  1 17  1  0
  1 24  1  0
  2  7  2  0
  2  3  1  0
  3  4  1  0
  4  5  2  0
  5  6  1  0
  5  7  1  0
  6 18  1  0
  6 19  1  0
  7  8  1  0
  8  9  2  0
  8 10  1  0
 10 11  1  0
 11 12  1  0
 11 20  1  0
 11 21  1  0
 12 13  1  0
 12 22  1  0
 12 23  1  0
 13 14  1  0
 14 15  2  0
 14 16  1  0
M  CHG  2  14   1  16  -1
M  END
>  <i_m_ct_stereo_status>  (211) 
1

>  <s_m_source_file>  (211) 
/var/tmp/pbs.5076255.sched01/tmpi5tju4vo/80qzp1lgse.sdf

>  <i_m_source_file_index>  (211) 
15

>  <i_lp_mmshare_version>  (211) 
48012

>  <i_f3d_flags>  (211) 
0

>  <s_epik_input>  (211) 
W0hdL049YzFcc1tuSF1jKFtOSDJdKWMxQyg9TylPW0NIMl1bQ0gyXU9bTitdKD1PKVtPLV0=

>  <s_epik_cmdline>  (211) 
J2VwaWtfcHl0aG9uJywgJy1waHQnLCAnMi4wJywgJy1waCcsICc3LjAnLCAnLXRuJywgJzgnLCAnLW1hJywgJzIwMCcsICctaW1hZScsICc8aW5maWxlLm1hZT4nLCAnLW9tYWUnLCAnPG91dGZpbGUubWFlPic=

>  <r_lp_tautomer_probability>  (211) 
1

>  <r_epik_Ionization_Penalty>  (211) 
5.92312e-05

>  <r_epik_Ionization_Penalty_Charging>  (211) 
0

>  <r_epik_Ionization_Penalty_Neutral>  (211) 
5.92312e-05

>  <r_epik_State_Penalty>  (211) 
-0

>  <r_epik_Charging_Adjusted_Penalty>  (211) 
0

>  <i_epik_Tot_Q>  (211) 
0

>  <i_epik_Tot_abs_Q>  (211) 
2

>  <s_epik_Chemistry_Notes>  (211) 
This compound has an ester and may undergo hydrolysis at high or low pH.

>  <s_lp_Force_Field>  (211) 
OPLS3e

>  <r_lp_Energy>  (211) 
8.86682

>  <b_lp_Chiralities_Consistent>  (211) 
1

>  <s_lp_Variant>  (211) 
68:0-1

>  <s_i_glide_gridfile>  (211) 
pfpi4k_grid

>  <i_i_glide_lignum>  (211) 
15

>  <i_i_glide_rotatable_bonds>  (211) 
6

>  <r_i_docking_score>  (211) 
-3.79195

>  <r_i_glide_ligand_efficiency>  (211) 
-0.236997

>  <r_i_glide_ligand_efficiency_sa>  (211) 
-0.597194

>  <r_i_glide_ligand_efficiency_ln>  (211) 
-1.00513

>  <r_i_glide_gscore>  (211) 
-3.79195

>  <r_i_glide_lipo>  (211) 
-0.145833

>  <r_i_glide_hbond>  (211) 
-0.646712

>  <r_i_glide_metal>  (211) 
-0

>  <r_i_glide_rewards>  (211) 
-2.2685

>  <r_i_glide_evdw>  (211) 
-20.1829

>  <r_i_glide_ecoul>  (211) 
-6.03799

>  <r_i_glide_erotb>  (211) 
1.41727

>  <r_i_glide_esite>  (211) 
-0.23333

>  <r_i_glide_emodel>  (211) 
-37.8606

>  <r_i_glide_energy>  (211) 
-26.2209

>  <r_i_glide_einternal>  (211) 
1.92459

>  <r_i_glide_intrahb_reward>  (211) 
-0.5

>  <i_i_glide_confnum>  (211) 
1

>  <i_i_glide_posenum>  (211) 
39

>  <r_i_glide_eff_state_penalty>  (211) 
0

>  <ligand_id>  (211) 
68

>  <original_smiles>  (211) 
N=c1s[nH]c(N)c1C(=O)OCCO[N+](=O)[O-]

>  <smiles>  (211) 
[H]N([H])c1nsc(N([H])[H])c1C(=O)OC([H])([H])C([H])([H])O[N+](=O)[O-]

$$$$
68:0:2
     RDKit          3D

 24 24  0  0  1  0  0  0  0  0999 V2000
    3.0110   -2.2496   -1.8009 N   0  0  0  0  0  0  0  0  0  0  0  0
    4.3573   -2.3431   -1.5205 C   0  0  0  0  0  0  0  0  0  0  0  0
    5.3461   -3.2941   -2.5749 S   0  0  0  0  0  0  0  0  0  0  0  0
    6.7550   -3.0008   -1.7383 N   0  0  0  0  0  0  0  0  0  0  0  0
    6.4921   -2.2303   -0.7103 C   0  0  0  0  0  0  0  0  0  0  0  0
    7.5726   -1.8553    0.0955 N   0  0  0  0  0  0  0  0  0  0  0  0
    5.1336   -1.7939   -0.5252 C   0  0  0  0  0  0  0  0  0  0  0  0
    4.6614   -0.9023    0.5462 C   0  0  0  0  0  0  0  0  0  0  0  0
    5.4025   -0.2933    1.3243 O   0  0  0  0  0  0  0  0  0  0  0  0
    3.3185   -0.8067    0.6276 O   0  0  0  0  0  0  0  0  0  0  0  0
    2.6888   -0.0422    1.6490 C   0  0  0  0  0  0  0  0  0  0  0  0
    2.6266   -0.8741    2.9400 C   0  0  0  0  0  0  0  0  0  0  0  0
    1.6533   -0.3099    3.8276 O   0  0  0  0  0  0  0  0  0  0  0  0
    0.5109   -1.1100    4.1739 N   0  0  0  0  0  0  0  0  0  0  0  0
    0.4787   -2.2471    3.7504 O   0  0  0  0  0  0  0  0  0  0  0  0
   -0.2868   -0.5396    4.8748 O   0  0  0  0  0  0  0  0  0  0  0  0
    2.3417   -1.7119   -1.2478 H   0  0  0  0  0  0  0  0  0  0  0  0
    7.4373   -1.2610    0.9047 H   0  0  0  0  0  0  0  0  0  0  0  0
    8.4998   -2.2152   -0.0758 H   0  0  0  0  0  0  0  0  0  0  0  0
    3.1840    0.9197    1.8030 H   0  0  0  0  0  0  0  0  0  0  0  0
    1.6774    0.1816    1.3084 H   0  0  0  0  0  0  0  0  0  0  0  0
    2.4427   -1.9110    2.6537 H   0  0  0  0  0  0  0  0  0  0  0  0
    3.6011   -0.8649    3.4337 H   0  0  0  0  0  0  0  0  0  0  0  0
    2.5672   -2.7338   -2.5660 H   0  0  0  0  0  0  0  0  0  0  0  0
  1  2  1  0
  1 17  1  0
  1 24  1  0
  2  7  2  0
  2  3  1  0
  3  4  1  0
  4  5  2  0
  5  6  1  0
  5  7  1  0
  6 18  1  0
  6 19  1  0
  7  8  1  0
  8  9  2  0
  8 10  1  0
 10 11  1  0
 11 12  1  0
 11 20  1  0
 11 21  1  0
 12 13  1  0
 12 22  1  0
 12 23  1  0
 13 14  1  0
 14 15  2  0
 14 16  1  0
M  CHG  2  14   1  16  -1
M  END
>  <i_m_ct_stereo_status>  (212) 
1

>  <s_m_source_file>  (212) 
/var/tmp/pbs.5076255.sched01/tmpi5tju4vo/80qzp1lgse.sdf

>  <i_m_source_file_index>  (212) 
15

>  <i_lp_mmshare_version>  (212) 
48012

>  <i_f3d_flags>  (212) 
0

>  <s_epik_input>  (212) 
W0hdL049YzFcc1tuSF1jKFtOSDJdKWMxQyg9TylPW0NIMl1bQ0gyXU9bTitdKD1PKVtPLV0=

>  <s_epik_cmdline>  (212) 
J2VwaWtfcHl0aG9uJywgJy1waHQnLCAnMi4wJywgJy1waCcsICc3LjAnLCAnLXRuJywgJzgnLCAnLW1hJywgJzIwMCcsICctaW1hZScsICc8aW5maWxlLm1hZT4nLCAnLW9tYWUnLCAnPG91dGZpbGUubWFlPic=

>  <r_lp_tautomer_probability>  (212) 
1

>  <r_epik_Ionization_Penalty>  (212) 
5.92312e-05

>  <r_epik_Ionization_Penalty_Charging>  (212) 
0

>  <r_epik_Ionization_Penalty_Neutral>  (212) 
5.92312e-05

>  <r_epik_State_Penalty>  (212) 
-0

>  <r_epik_Charging_Adjusted_Penalty>  (212) 
0

>  <i_epik_Tot_Q>  (212) 
0

>  <i_epik_Tot_abs_Q>  (212) 
2

>  <s_epik_Chemistry_Notes>  (212) 
This compound has an ester and may undergo hydrolysis at high or low pH.

>  <s_lp_Force_Field>  (212) 
OPLS3e

>  <r_lp_Energy>  (212) 
8.86682

>  <b_lp_Chiralities_Consistent>  (212) 
1

>  <s_lp_Variant>  (212) 
68:0-1

>  <s_i_glide_gridfile>  (212) 
pfpi4k_grid

>  <i_i_glide_lignum>  (212) 
15

>  <i_i_glide_rotatable_bonds>  (212) 
6

>  <r_i_docking_score>  (212) 
-3.33385

>  <r_i_glide_ligand_efficiency>  (212) 
-0.208366

>  <r_i_glide_ligand_efficiency_sa>  (212) 
-0.525048

>  <r_i_glide_ligand_efficiency_ln>  (212) 
-0.883703

>  <r_i_glide_gscore>  (212) 
-3.33385

>  <r_i_glide_lipo>  (212) 
-0.230061

>  <r_i_glide_hbond>  (212) 
-0.306272

>  <r_i_glide_metal>  (212) 
-0

>  <r_i_glide_rewards>  (212) 
-2.32135

>  <r_i_glide_evdw>  (212) 
-23.0119

>  <r_i_glide_ecoul>  (212) 
-4.12566

>  <r_i_glide_erotb>  (212) 
1.41727

>  <r_i_glide_esite>  (212) 
-0.123997

>  <r_i_glide_emodel>  (212) 
-37.155

>  <r_i_glide_energy>  (212) 
-27.1376

>  <r_i_glide_einternal>  (212) 
3.3646

>  <r_i_glide_intrahb_reward>  (212) 
-0.5

>  <i_i_glide_confnum>  (212) 
5

>  <i_i_glide_posenum>  (212) 
2

>  <r_i_glide_eff_state_penalty>  (212) 
0

>  <ligand_id>  (212) 
68

>  <original_smiles>  (212) 
N=c1s[nH]c(N)c1C(=O)OCCO[N+](=O)[O-]

>  <smiles>  (212) 
[H]N([H])c1nsc(N([H])[H])c1C(=O)OC([H])([H])C([H])([H])O[N+](=O)[O-]

$$$$
69:0:0
     RDKit          3D

 45 50  0  0  1  0  0  0  0  0999 V2000
    1.5108   -4.0090    6.0191 C   0  0  0  0  0  0  0  0  0  0  0  0
    2.6662   -3.8106    5.1999 O   0  0  0  0  0  0  0  0  0  0  0  0
    2.5557   -3.0368    3.9806 C   0  0  1  0  0  0  0  0  0  0  0  0
    1.0770   -2.5483    3.5975 C   0  0  0  0  0  0  0  0  0  0  0  0
    1.2087   -1.1148    3.0902 C   0  0  0  0  0  0  0  0  0  0  0  0
    2.4755   -0.9065    2.8736 C   0  0  0  0  0  0  0  0  0  0  0  0
    2.9520    0.3827    2.1892 C   0  0  1  0  0  0  0  0  0  0  0  0
    3.8769    0.0365    1.0231 C   0  0  0  0  0  0  0  0  0  0  0  0
    1.6472    1.1323    1.7196 C   0  0  0  0  0  0  0  0  0  0  0  0
    0.6209    1.2526    2.8434 N   0  0  1  0  0  0  0  0  0  0  0  0
   -0.7623    1.4612    2.3618 C   0  0  0  0  0  0  0  0  0  0  0  0
    0.7332    0.1500    3.8516 C   0  0  1  0  0  0  0  0  0  0  0  0
    1.3711    0.3167    5.2915 C   0  0  0  0  0  0  0  0  0  0  0  0
    2.9659    0.3215    5.4759 C   0  0  1  0  0  0  0  0  0  0  0  0
    4.3219   -0.3781    4.7544 C   0  0  1  0  0  0  0  0  0  0  0  0
    3.2367   -1.0509    5.3849 C   0  0  2  0  0  0  0  0  0  0  0  0
    3.1198   -1.6995    4.0702 C   0  0  1  0  0  0  0  0  0  0  0  0
    4.5807   -1.8047    3.9483 C   0  0  1  0  0  0  0  0  0  0  0  0
    3.8941   -3.0473    3.1346 C   0  0  1  0  0  0  0  0  0  0  0  0
    4.6842   -4.3358    3.0981 C   0  0  0  0  0  0  0  0  0  0  0  0
    5.1023   -4.8849    2.0832 O   0  0  0  0  0  0  0  0  0  0  0  0
    1.7001   -4.6629    6.8769 H   0  0  0  0  0  0  0  0  0  0  0  0
    0.7049   -4.4743    5.4577 H   0  0  0  0  0  0  0  0  0  0  0  0
    1.1651   -3.0587    6.4136 H   0  0  0  0  0  0  0  0  0  0  0  0
    0.6537   -3.1927    2.8224 H   0  0  0  0  0  0  0  0  0  0  0  0
    0.3447   -2.4283    4.4006 H   0  0  0  0  0  0  0  0  0  0  0  0
    3.4823    1.0334    2.8879 H   0  0  0  0  0  0  0  0  0  0  0  0
    4.7849   -0.4729    1.3744 H   0  0  0  0  0  0  0  0  0  0  0  0
    4.1843    0.9484    0.5002 H   0  0  0  0  0  0  0  0  0  0  0  0
    3.3765   -0.6298    0.3032 H   0  0  0  0  0  0  0  0  0  0  0  0
    1.8815    2.1355    1.3454 H   0  0  0  0  0  0  0  0  0  0  0  0
    1.1959    0.5505    0.9028 H   0  0  0  0  0  0  0  0  0  0  0  0
   -1.1430    0.6012    1.8210 H   0  0  0  0  0  0  0  0  0  0  0  0
   -0.7647    2.3205    1.7026 H   0  0  0  0  0  0  0  0  0  0  0  0
   -1.4197    1.6795    3.2004 H   0  0  0  0  0  0  0  0  0  0  0  0
    1.5174    0.8947    3.9129 H   0  0  0  0  0  0  0  0  0  0  0  0
    0.9667    1.1999    5.7899 H   0  0  0  0  0  0  0  0  0  0  0  0
    0.9738   -0.4936    5.8954 H   0  0  0  0  0  0  0  0  0  0  0  0
    3.2099    0.7823    6.4405 H   0  0  0  0  0  0  0  0  0  0  0  0
    5.2240   -0.0616    5.3024 H   0  0  0  0  0  0  0  0  0  0  0  0
    3.5201   -1.6216    6.2803 H   0  0  0  0  0  0  0  0  0  0  0  0
    5.1321   -2.3831    4.6776 H   0  0  0  0  0  0  0  0  0  0  0  0
    3.7108   -2.7478    2.0960 H   0  0  0  0  0  0  0  0  0  0  0  0
    4.9284   -4.7789    4.0563 H   0  0  0  0  0  0  0  0  0  0  0  0
    0.8720    2.1030    3.3397 H   0  0  0  0  0  0  0  0  0  0  0  0
  1  2  1  0
  1 22  1  0
  1 23  1  0
  1 24  1  0
  3  2  1  1
  3 17  1  0
  3 19  1  0
  3  4  1  0
  4  5  1  0
  4 25  1  0
  4 26  1  0
  5 12  1  0
  5  6  2  0
 17  6  1  6
  6  7  1  0
  7  8  1  0
  7  9  1  0
  7 27  1  1
  8 28  1  0
  8 29  1  0
  8 30  1  0
  9 10  1  0
  9 31  1  0
  9 32  1  0
 10 11  1  0
 10 12  1  0
 10 45  1  1
 11 33  1  0
 11 34  1  0
 11 35  1  0
 12 13  1  0
 12 36  1  1
 13 14  1  0
 13 37  1  0
 13 38  1  0
 14 16  1  0
 14 15  1  0
 14 39  1  1
 15 18  1  0
 15 16  1  0
 15 40  1  1
 16 17  1  0
 16 41  1  1
 17 18  1  0
 18 19  1  0
 18 42  1  1
 19 20  1  0
 19 43  1  6
 20 21  2  0
 20 44  1  0
M  CHG  1  10   1
M  END
>  <i_m_ct_stereo_status>  (213) 
1

>  <s_m_source_file>  (213) 
/var/tmp/pbs.5076255.sched01/tmpi5tju4vo/80qzp1lgse.sdf

>  <i_m_source_file_index>  (213) 
16

>  <i_lp_mmshare_version>  (213) 
48012

>  <i_f3d_flags>  (213) 
0

>  <s_epik_input>  (213) 
W0NIM11PW0NAXTEoQzIzNClbQ0gyXUM1PUMyW0NAQEhdKFtDSDNdKVtDSDJdTihbQ0gzXSlbQ0BIXTVbQ0gyXVtDQEBIXTZbQ0BASF0oW0NASF0zNilbQ0BASF00W0NASF0xW0NIXT1P

>  <s_epik_cmdline>  (213) 
J2VwaWtfcHl0aG9uJywgJy1waHQnLCAnMi4wJywgJy1waCcsICc3LjAnLCAnLXRuJywgJzgnLCAnLW1hJywgJzIwMCcsICctaW1hZScsICc8aW5maWxlLm1hZT4nLCAnLW9tYWUnLCAnPG91dGZpbGUubWFlPic=

>  <r_lp_tautomer_probability>  (213) 
0.9999

>  <r_epik_Ionization_Penalty>  (213) 
0.00692409

>  <r_epik_Ionization_Penalty_Charging>  (213) 
0.00692196

>  <r_epik_Ionization_Penalty_Neutral>  (213) 
2.13157e-06

>  <r_epik_State_Penalty>  (213) 
0.00514543

>  <r_epik_Charging_Adjusted_Penalty>  (213) 
0.0120674

>  <i_epik_Tot_Q>  (213) 
1

>  <i_epik_Tot_abs_Q>  (213) 
1

>  <s_lp_Force_Field>  (213) 
OPLS3e

>  <r_lp_Energy>  (213) 
279.766

>  <b_lp_Chiralities_Consistent>  (213) 
1

>  <s_lp_Variant>  (213) 
69:0-1

>  <s_i_glide_gridfile>  (213) 
pfpi4k_grid

>  <i_i_glide_lignum>  (213) 
16

>  <i_i_glide_rotatable_bonds>  (213) 
2

>  <r_i_docking_score>  (213) 
-2.89194

>  <r_i_glide_ligand_efficiency>  (213) 
-0.137712

>  <r_i_glide_ligand_efficiency_sa>  (213) 
-0.379936

>  <r_i_glide_ligand_efficiency_ln>  (213) 
-0.715027

>  <r_i_glide_gscore>  (213) 
-2.89194

>  <r_i_glide_lipo>  (213) 
-0.183209

>  <r_i_glide_hbond>  (213) 
0

>  <r_i_glide_metal>  (213) 
-0

>  <r_i_glide_rewards>  (213) 
-1.46983

>  <r_i_glide_evdw>  (213) 
-13.0011

>  <r_i_glide_ecoul>  (213) 
-3.66408

>  <r_i_glide_erotb>  (213) 
0

>  <r_i_glide_esite>  (213) 
-0.0392328

>  <r_i_glide_emodel>  (213) 
-10.6425

>  <r_i_glide_energy>  (213) 
-16.6652

>  <r_i_glide_einternal>  (213) 
18.0472

>  <r_i_glide_intrahb_reward>  (213) 
-0

>  <i_i_glide_confnum>  (213) 
2

>  <i_i_glide_posenum>  (213) 
35

>  <r_i_glide_eff_state_penalty>  (213) 
0

>  <ligand_id>  (213) 
69

>  <original_smiles>  (213) 
COC12CC3=C4C(C)CN(C)C3CC3C5C3C41C5C2C=O

>  <smiles>  (213) 
[H]C(=O)C1([H])C2([H])C3([H])C4([H])C([H])([H])C5([H])C6=C(C([H])(C([H])([H])[H])C([H])([H])[N+]5([H])C([H])([H])[H])C2(C43[H])C1(OC([H])([H])[H])C6([H])[H]

$$$$
69:0:1
     RDKit          3D

 45 50  0  0  1  0  0  0  0  0999 V2000
   -1.5748   -3.4376    7.0262 C   0  0  0  0  0  0  0  0  0  0  0  0
   -0.5519   -2.4546    6.8066 O   0  0  0  0  0  0  0  0  0  0  0  0
   -0.4353   -1.9897    5.4500 C   0  0  1  0  0  0  0  0  0  0  0  0
   -1.6021   -0.9738    5.0917 C   0  0  0  0  0  0  0  0  0  0  0  0
   -0.9938    0.2057    4.2812 C   0  0  0  0  0  0  0  0  0  0  0  0
    0.1924   -0.1822    3.9542 C   0  0  0  0  0  0  0  0  0  0  0  0
    1.0884    0.6764    3.0026 C   0  0  1  0  0  0  0  0  0  0  0  0
    1.7251   -0.2046    1.9376 C   0  0  0  0  0  0  0  0  0  0  0  0
    0.1611    1.7808    2.4033 C   0  0  0  0  0  0  0  0  0  0  0  0
   -0.6349    2.5118    3.4640 N   0  0  1  0  0  0  0  0  0  0  0  0
   -1.8403    3.1777    2.9452 C   0  0  0  0  0  0  0  0  0  0  0  0
   -0.8883    1.6860    4.6924 C   0  0  1  0  0  0  0  0  0  0  0  0
   -0.1214    1.8536    6.0735 C   0  0  0  0  0  0  0  0  0  0  0  0
    1.3321    1.2181    6.2477 C   0  0  1  0  0  0  0  0  0  0  0  0
    2.2497   -0.0661    5.6406 C   0  0  1  0  0  0  0  0  0  0  0  0
    1.0408   -0.1317    6.4283 C   0  0  2  0  0  0  0  0  0  0  0  0
    0.5993   -0.9401    5.2831 C   0  0  1  0  0  0  0  0  0  0  0  0
    1.9041   -1.6044    5.1450 C   0  0  1  0  0  0  0  0  0  0  0  0
    0.7649   -2.6263    4.5939 C   0  0  1  0  0  0  0  0  0  0  0  0
    1.0755   -4.1314    4.7329 C   0  0  0  0  0  0  0  0  0  0  0  0
    0.3333   -5.0300    5.0736 O   0  0  0  0  0  0  0  0  0  0  0  0
   -1.5584   -3.6881    8.0875 H   0  0  0  0  0  0  0  0  0  0  0  0
   -1.4310   -4.3529    6.4739 H   0  0  0  0  0  0  0  0  0  0  0  0
   -2.5665   -3.0407    6.8006 H   0  0  0  0  0  0  0  0  0  0  0  0
   -2.3563   -1.4535    4.4818 H   0  0  0  0  0  0  0  0  0  0  0  0
   -2.0947   -0.5521    5.9669 H   0  0  0  0  0  0  0  0  0  0  0  0
    1.8847    1.1929    3.5528 H   0  0  0  0  0  0  0  0  0  0  0  0
    2.3944   -0.9431    2.3762 H   0  0  0  0  0  0  0  0  0  0  0  0
    2.3102    0.3987    1.2429 H   0  0  0  0  0  0  0  0  0  0  0  0
    0.9709   -0.7335    1.3566 H   0  0  0  0  0  0  0  0  0  0  0  0
    0.7530    2.5006    1.8260 H   0  0  0  0  0  0  0  0  0  0  0  0
   -0.5405    1.3247    1.6937 H   0  0  0  0  0  0  0  0  0  0  0  0
   -2.5842    2.4520    2.5894 H   0  0  0  0  0  0  0  0  0  0  0  0
   -1.6011    3.8425    2.1083 H   0  0  0  0  0  0  0  0  0  0  0  0
   -2.3034    3.8033    3.7191 H   0  0  0  0  0  0  0  0  0  0  0  0
    0.1224    2.0638    4.5985 H   0  0  0  0  0  0  0  0  0  0  0  0
   -0.0998    2.8984    6.3829 H   0  0  0  0  0  0  0  0  0  0  0  0
   -0.7720    1.3944    6.8164 H   0  0  0  0  0  0  0  0  0  0  0  0
    1.8413    1.7273    7.0687 H   0  0  0  0  0  0  0  0  0  0  0  0
    3.2555    0.0287    6.0683 H   0  0  0  0  0  0  0  0  0  0  0  0
    1.1530   -0.5977    7.4200 H   0  0  0  0  0  0  0  0  0  0  0  0
    2.2580   -2.2035    5.9954 H   0  0  0  0  0  0  0  0  0  0  0  0
    0.5890   -2.4610    3.5320 H   0  0  0  0  0  0  0  0  0  0  0  0
    2.1245   -4.4016    4.4661 H   0  0  0  0  0  0  0  0  0  0  0  0
   -0.0227    3.2777    3.7553 H   0  0  0  0  0  0  0  0  0  0  0  0
  1  2  1  0
  1 22  1  0
  1 23  1  0
  1 24  1  0
  3  2  1  1
  3 17  1  0
  3 19  1  0
  3  4  1  0
  4  5  1  0
  4 25  1  0
  4 26  1  0
  5 12  1  0
  5  6  2  0
 17  6  1  6
  6  7  1  0
  7  8  1  0
  7  9  1  0
  7 27  1  1
  8 28  1  0
  8 29  1  0
  8 30  1  0
  9 10  1  0
  9 31  1  0
  9 32  1  0
 10 11  1  0
 10 12  1  0
 10 45  1  1
 11 33  1  0
 11 34  1  0
 11 35  1  0
 12 13  1  0
 12 36  1  1
 13 14  1  0
 13 37  1  0
 13 38  1  0
 14 16  1  0
 14 15  1  0
 14 39  1  1
 15 18  1  0
 15 16  1  0
 15 40  1  1
 16 17  1  0
 16 41  1  1
 17 18  1  0
 18 19  1  0
 18 42  1  1
 19 20  1  0
 19 43  1  6
 20 21  2  0
 20 44  1  0
M  CHG  1  10   1
M  END
>  <i_m_ct_stereo_status>  (214) 
1

>  <s_m_source_file>  (214) 
/var/tmp/pbs.5076255.sched01/tmpi5tju4vo/80qzp1lgse.sdf

>  <i_m_source_file_index>  (214) 
16

>  <i_lp_mmshare_version>  (214) 
48012

>  <i_f3d_flags>  (214) 
0

>  <s_epik_input>  (214) 
W0NIM11PW0NAXTEoQzIzNClbQ0gyXUM1PUMyW0NAQEhdKFtDSDNdKVtDSDJdTihbQ0gzXSlbQ0BIXTVbQ0gyXVtDQEBIXTZbQ0BASF0oW0NASF0zNilbQ0BASF00W0NASF0xW0NIXT1P

>  <s_epik_cmdline>  (214) 
J2VwaWtfcHl0aG9uJywgJy1waHQnLCAnMi4wJywgJy1waCcsICc3LjAnLCAnLXRuJywgJzgnLCAnLW1hJywgJzIwMCcsICctaW1hZScsICc8aW5maWxlLm1hZT4nLCAnLW9tYWUnLCAnPG91dGZpbGUubWFlPic=

>  <r_lp_tautomer_probability>  (214) 
0.9999

>  <r_epik_Ionization_Penalty>  (214) 
0.00692409

>  <r_epik_Ionization_Penalty_Charging>  (214) 
0.00692196

>  <r_epik_Ionization_Penalty_Neutral>  (214) 
2.13157e-06

>  <r_epik_State_Penalty>  (214) 
0.00514543

>  <r_epik_Charging_Adjusted_Penalty>  (214) 
0.0120674

>  <i_epik_Tot_Q>  (214) 
1

>  <i_epik_Tot_abs_Q>  (214) 
1

>  <s_lp_Force_Field>  (214) 
OPLS3e

>  <r_lp_Energy>  (214) 
279.766

>  <b_lp_Chiralities_Consistent>  (214) 
1

>  <s_lp_Variant>  (214) 
69:0-1

>  <s_i_glide_gridfile>  (214) 
pfpi4k_grid

>  <i_i_glide_lignum>  (214) 
16

>  <i_i_glide_rotatable_bonds>  (214) 
2

>  <r_i_docking_score>  (214) 
-2.73158

>  <r_i_glide_ligand_efficiency>  (214) 
-0.130075

>  <r_i_glide_ligand_efficiency_sa>  (214) 
-0.358867

>  <r_i_glide_ligand_efficiency_ln>  (214) 
-0.675377

>  <r_i_glide_gscore>  (214) 
-2.73158

>  <r_i_glide_lipo>  (214) 
-0.0207931

>  <r_i_glide_hbond>  (214) 
0

>  <r_i_glide_metal>  (214) 
-0

>  <r_i_glide_rewards>  (214) 
-1.46454

>  <r_i_glide_evdw>  (214) 
-14.3964

>  <r_i_glide_ecoul>  (214) 
-3.15829

>  <r_i_glide_erotb>  (214) 
0

>  <r_i_glide_esite>  (214) 
-0.0526784

>  <r_i_glide_emodel>  (214) 
-20.2974

>  <r_i_glide_energy>  (214) 
-17.5547

>  <r_i_glide_einternal>  (214) 
0.382793

>  <r_i_glide_intrahb_reward>  (214) 
-0

>  <i_i_glide_confnum>  (214) 
1

>  <i_i_glide_posenum>  (214) 
40

>  <r_i_glide_eff_state_penalty>  (214) 
0

>  <ligand_id>  (214) 
69

>  <original_smiles>  (214) 
COC12CC3=C4C(C)CN(C)C3CC3C5C3C41C5C2C=O

>  <smiles>  (214) 
[H]C(=O)C1([H])C2([H])C3([H])C4([H])C([H])([H])C5([H])C6=C(C([H])(C([H])([H])[H])C([H])([H])[N+]5([H])C([H])([H])[H])C2(C43[H])C1(OC([H])([H])[H])C6([H])[H]

$$$$
71:0:0
     RDKit          3D

 83 87  0  0  1  0  0  0  0  0999 V2000
    7.6302   -5.3241    6.8354 C   0  0  0  0  0  0  0  0  0  0  0  0
    6.1374   -5.1610    6.4913 C   0  0  0  0  0  0  0  0  0  0  0  0
    5.3226   -6.0359    7.4733 C   0  0  0  0  0  0  0  0  0  0  0  0
    5.7572   -3.6743    6.6367 C   0  0  0  0  0  0  0  0  0  0  0  0
    4.3580   -3.3456    6.0936 C   0  0  0  0  0  0  0  0  0  0  0  0
    4.2258   -3.7578    4.6223 C   0  0  0  0  0  0  0  0  0  0  0  0
    3.9843   -2.9204    3.5698 C   0  0  0  0  0  0  0  0  0  0  0  0
    3.6783   -1.3885    3.7452 C   0  0  0  0  0  0  0  0  0  0  0  0
    2.5748   -1.1591    4.8258 C   0  0  0  0  0  0  0  0  0  0  0  0
    4.9968   -0.6650    4.1381 C   0  0  0  0  0  0  0  0  0  0  0  0
    3.0978   -0.7105    2.4676 C   0  0  1  0  0  0  0  0  0  0  0  0
    3.0418    0.7039    2.5692 O   0  0  0  0  0  0  0  0  0  0  0  0
    3.8343   -1.0955    1.2040 C   0  0  0  0  0  0  0  0  0  0  0  0
    3.6015   -2.5813    0.9994 C   0  0  0  0  0  0  0  0  0  0  0  0
    4.1602   -3.5083    2.1412 C   0  0  1  0  0  0  0  0  0  0  0  0
    5.6934   -3.5701    1.8742 C   0  0  0  0  0  0  0  0  0  0  0  0
    3.5101   -4.9660    2.0668 C   0  0  2  0  0  0  0  0  0  0  0  0
    3.7155   -5.5190    0.6145 C   0  0  0  0  0  0  0  0  0  0  0  0
    2.0084   -4.8851    2.3600 C   0  0  0  0  0  0  0  0  0  0  0  0
    1.2948   -5.6795    3.1818 C   0  0  0  0  0  0  0  0  0  0  0  0
    1.8232   -6.8844    3.9578 C   0  0  1  0  0  0  0  0  0  0  0  0
    0.7583   -8.0449    4.1381 C   0  0  0  0  0  0  0  0  0  0  0  0
    1.1474   -8.9815    5.3179 C   0  0  0  0  0  0  0  0  0  0  0  0
   -0.6357   -7.4900    4.5524 C   0  0  0  0  0  0  0  0  0  0  0  0
    0.6220   -8.9004    2.8479 C   0  0  1  0  0  0  0  0  0  0  0  0
   -0.0986   -8.2214    1.8342 O   0  0  0  0  0  0  0  0  0  0  0  0
    1.9821   -9.3223    2.2583 C   0  0  0  0  0  0  0  0  0  0  0  0
    2.9376   -8.1222    2.0788 C   0  0  0  0  0  0  0  0  0  0  0  0
    3.2264   -7.2891    3.3712 C   0  0  2  0  0  0  0  0  0  0  0  0
    4.0532   -8.2127    4.3075 C   0  0  0  0  0  0  0  0  0  0  0  0
    4.1166   -5.9697    3.1211 C   0  0  2  0  0  0  0  0  0  0  0  0
    4.4915   -5.2604    4.4843 C   0  0  1  0  0  0  0  0  0  0  0  0
    5.9120   -5.5863    5.0193 C   0  0  0  0  0  0  0  0  0  0  0  0
    7.8442   -5.0063    7.8552 H   0  0  0  0  0  0  0  0  0  0  0  0
    8.2436   -4.7213    6.1689 H   0  0  0  0  0  0  0  0  0  0  0  0
    7.9533   -6.3604    6.7319 H   0  0  0  0  0  0  0  0  0  0  0  0
    4.2451   -5.9204    7.3445 H   0  0  0  0  0  0  0  0  0  0  0  0
    5.5437   -5.7754    8.5095 H   0  0  0  0  0  0  0  0  0  0  0  0
    5.5517   -7.0953    7.3398 H   0  0  0  0  0  0  0  0  0  0  0  0
    5.8406   -3.3604    7.6762 H   0  0  0  0  0  0  0  0  0  0  0  0
    6.4791   -3.0684    6.0847 H   0  0  0  0  0  0  0  0  0  0  0  0
    3.5899   -3.8519    6.6772 H   0  0  0  0  0  0  0  0  0  0  0  0
    4.2113   -2.2943    6.2839 H   0  0  0  0  0  0  0  0  0  0  0  0
    1.7944   -0.4700    4.5007 H   0  0  0  0  0  0  0  0  0  0  0  0
    2.9627   -0.7153    5.7414 H   0  0  0  0  0  0  0  0  0  0  0  0
    2.0537   -2.0843    5.0787 H   0  0  0  0  0  0  0  0  0  0  0  0
    4.8329    0.3780    4.4024 H   0  0  0  0  0  0  0  0  0  0  0  0
    5.7237   -0.6876    3.3277 H   0  0  0  0  0  0  0  0  0  0  0  0
    5.4888   -1.1249    4.9908 H   0  0  0  0  0  0  0  0  0  0  0  0
    2.0612   -1.0297    2.3372 H   0  0  0  0  0  0  0  0  0  0  0  0
    3.9135    1.0629    2.5049 H   0  0  0  0  0  0  0  0  0  0  0  0
    3.4176   -0.5555    0.3531 H   0  0  0  0  0  0  0  0  0  0  0  0
    4.8928   -0.8482    1.2411 H   0  0  0  0  0  0  0  0  0  0  0  0
    2.5355   -2.7145    0.8425 H   0  0  0  0  0  0  0  0  0  0  0  0
    4.0449   -2.8222    0.0363 H   0  0  0  0  0  0  0  0  0  0  0  0
    6.2002   -4.3231    2.4673 H   0  0  0  0  0  0  0  0  0  0  0  0
    6.1769   -2.6211    2.1077 H   0  0  0  0  0  0  0  0  0  0  0  0
    5.9383   -3.7895    0.8360 H   0  0  0  0  0  0  0  0  0  0  0  0
    4.2851   -6.4471    0.5958 H   0  0  0  0  0  0  0  0  0  0  0  0
    4.2793   -4.8779   -0.0554 H   0  0  0  0  0  0  0  0  0  0  0  0
    2.7669   -5.6997    0.1045 H   0  0  0  0  0  0  0  0  0  0  0  0
    1.4730   -4.0767    1.9045 H   0  0  0  0  0  0  0  0  0  0  0  0
    0.2583   -5.4284    3.3151 H   0  0  0  0  0  0  0  0  0  0  0  0
    1.9478   -6.4841    4.9591 H   0  0  0  0  0  0  0  0  0  0  0  0
    0.2843   -9.5201    5.7138 H   0  0  0  0  0  0  0  0  0  0  0  0
    1.5921   -8.4292    6.1466 H   0  0  0  0  0  0  0  0  0  0  0  0
    1.8394   -9.7663    5.0277 H   0  0  0  0  0  0  0  0  0  0  0  0
   -1.3246   -8.2980    4.8067 H   0  0  0  0  0  0  0  0  0  0  0  0
   -1.1338   -6.9291    3.7618 H   0  0  0  0  0  0  0  0  0  0  0  0
   -0.5549   -6.8379    5.4229 H   0  0  0  0  0  0  0  0  0  0  0  0
    0.0459   -9.8000    3.0768 H   0  0  0  0  0  0  0  0  0  0  0  0
   -0.1829   -8.8111    1.0937 H   0  0  0  0  0  0  0  0  0  0  0  0
    2.4358  -10.0965    2.8747 H   0  0  0  0  0  0  0  0  0  0  0  0
    1.8256   -9.8004    1.2919 H   0  0  0  0  0  0  0  0  0  0  0  0
    3.8689   -8.4625    1.6247 H   0  0  0  0  0  0  0  0  0  0  0  0
    2.4299   -7.5055    1.3446 H   0  0  0  0  0  0  0  0  0  0  0  0
    5.0845   -8.2753    3.9621 H   0  0  0  0  0  0  0  0  0  0  0  0
    3.7251   -9.2437    4.3246 H   0  0  0  0  0  0  0  0  0  0  0  0
    4.0555   -7.8717    5.3419 H   0  0  0  0  0  0  0  0  0  0  0  0
    5.0629   -6.3107    2.6985 H   0  0  0  0  0  0  0  0  0  0  0  0
    3.8108   -5.6628    5.2214 H   0  0  0  0  0  0  0  0  0  0  0  0
    6.6463   -5.0712    4.4027 H   0  0  0  0  0  0  0  0  0  0  0  0
    6.1453   -6.6411    4.9181 H   0  0  0  0  0  0  0  0  0  0  0  0
  1  2  1  0
  1 34  1  0
  1 35  1  0
  1 36  1  0
  2 33  1  0
  2  3  1  0
  2  4  1  0
  3 37  1  0
  3 38  1  0
  3 39  1  0
  4  5  1  0
  4 40  1  0
  4 41  1  0
  5  6  1  0
  5 42  1  0
  5 43  1  0
  6 32  1  0
  6  7  2  0
  7 15  1  0
  7  8  1  0
  8  9  1  0
  8 10  1  0
  8 11  1  0
  9 44  1  0
  9 45  1  0
  9 46  1  0
 10 47  1  0
 10 48  1  0
 10 49  1  0
 11 12  1  0
 11 13  1  0
 11 50  1  6
 12 51  1  0
 13 14  1  0
 13 52  1  0
 13 53  1  0
 14 15  1  0
 14 54  1  0
 14 55  1  0
 15 16  1  6
 15 17  1  0
 16 56  1  0
 16 57  1  0
 16 58  1  0
 17 31  1  0
 17 18  1  6
 17 19  1  0
 18 59  1  0
 18 60  1  0
 18 61  1  0
 19 20  2  0
 19 62  1  0
 20 21  1  0
 20 63  1  0
 21 29  1  0
 21 22  1  0
 21 64  1  1
 22 23  1  0
 22 24  1  0
 22 25  1  0
 23 65  1  0
 23 66  1  0
 23 67  1  0
 24 68  1  0
 24 69  1  0
 24 70  1  0
 25 26  1  0
 25 27  1  0
 25 71  1  1
 26 72  1  0
 27 28  1  0
 27 73  1  0
 27 74  1  0
 28 29  1  0
 28 75  1  0
 28 76  1  0
 29 30  1  1
 29 31  1  0
 30 77  1  0
 30 78  1  0
 30 79  1  0
 31 32  1  0
 31 80  1  6
 32 33  1  0
 32 81  1  1
 33 82  1  0
 33 83  1  0
M  END
>  <i_m_ct_stereo_status>  (215) 
1

>  <s_m_source_file>  (215) 
/var/tmp/pbs.5076255.sched01/tmpi5tju4vo/80qzp1lgse.sdf

>  <i_m_source_file_index>  (215) 
18

>  <i_lp_mmshare_version>  (215) 
48012

>  <i_f3d_flags>  (215) 
0

>  <s_epik_input>  (215) 
W0NIMl0xW0NIMl1bQ0BIXShbT0hdKUMoW0NIM10pKFtDSDNdKUMoW0NAXTEyW0NIM10pPUMzW0NASF0oW0NIMl1DKFtDSDNdKShbQ0gzXSlbQ0gyXVtDSDJdMylbQ0BASF00W0NAQF0yKFtDSDNdKVtDSF09W0NIXVtDQEBIXTVbQ0BAXTQoW0NIM10pW0NIMl1bQ0gyXVtDQEhdKFtPSF0pQzUoW0NIM10pW0NIM10=

>  <s_epik_cmdline>  (215) 
J2VwaWtfcHl0aG9uJywgJy1waHQnLCAnMi4wJywgJy1waCcsICc3LjAnLCAnLXRuJywgJzgnLCAnLW1hJywgJzIwMCcsICctaW1hZScsICc8aW5maWxlLm1hZT4nLCAnLW9tYWUnLCAnPG91dGZpbGUubWFlPic=

>  <r_lp_tautomer_probability>  (215) 
1

>  <r_epik_Ionization_Penalty>  (215) 
3.36456e-06

>  <r_epik_Ionization_Penalty_Charging>  (215) 
0

>  <r_epik_Ionization_Penalty_Neutral>  (215) 
3.36456e-06

>  <r_epik_State_Penalty>  (215) 
-0

>  <r_epik_Charging_Adjusted_Penalty>  (215) 
0

>  <i_epik_Tot_Q>  (215) 
0

>  <i_epik_Tot_abs_Q>  (215) 
0

>  <s_lp_Force_Field>  (215) 
OPLS3e

>  <r_lp_Energy>  (215) 
98.2928

>  <b_lp_Chiralities_Consistent>  (215) 
1

>  <s_lp_Variant>  (215) 
71:0-1

>  <s_i_glide_gridfile>  (215) 
pfpi4k_grid

>  <i_i_glide_lignum>  (215) 
18

>  <i_i_glide_rotatable_bonds>  (215) 
2

>  <r_i_docking_score>  (215) 
-3.17446

>  <r_i_glide_ligand_efficiency>  (215) 
-0.0961958

>  <r_i_glide_ligand_efficiency_sa>  (215) 
-0.308551

>  <r_i_glide_ligand_efficiency_ln>  (215) 
-0.705983

>  <r_i_glide_gscore>  (215) 
-3.17446

>  <r_i_glide_lipo>  (215) 
-0.244444

>  <r_i_glide_hbond>  (215) 
-0.442833

>  <r_i_glide_metal>  (215) 
-0

>  <r_i_glide_rewards>  (215) 
-0.308676

>  <r_i_glide_evdw>  (215) 
-25.6612

>  <r_i_glide_ecoul>  (215) 
-5.96964

>  <r_i_glide_erotb>  (215) 
0

>  <r_i_glide_esite>  (215) 
0

>  <r_i_glide_emodel>  (215) 
-38.5236

>  <r_i_glide_energy>  (215) 
-31.6309

>  <r_i_glide_einternal>  (215) 
0.400752

>  <r_i_glide_intrahb_reward>  (215) 
-0

>  <i_i_glide_confnum>  (215) 
2

>  <i_i_glide_posenum>  (215) 
38

>  <r_i_glide_eff_state_penalty>  (215) 
0

>  <ligand_id>  (215) 
71

>  <original_smiles>  (215) 
CC1(C)CCC2=C3C(C)(C)C(O)CCC3(C)C3(C)C=CC4C(C)(C)C(O)CCC4(C)C3C2C1

>  <smiles>  (215) 
[H]OC1([H])C([H])([H])C([H])([H])C2(C([H])([H])[H])C(=C3C([H])([H])C([H])([H])C(C([H])([H])[H])(C([H])([H])[H])C([H])([H])C3([H])C3([H])C2(C([H])([H])[H])C([H])=C([H])C2([H])C(C([H])([H])[H])(C([H])([H])[H])C([H])(O[H])C([H])([H])C([H])([H])C23C([H])([H])[H])C1(C([H])([H])[H])C([H])([H])[H]

$$$$
71:0:1
     RDKit          3D

 83 87  0  0  1  0  0  0  0  0999 V2000
    6.2885   -4.3115    7.2583 C   0  0  0  0  0  0  0  0  0  0  0  0
    4.9712   -4.5100    6.4812 C   0  0  0  0  0  0  0  0  0  0  0  0
    3.8686   -4.8821    7.5026 C   0  0  0  0  0  0  0  0  0  0  0  0
    4.6211   -3.1964    5.7566 C   0  0  0  0  0  0  0  0  0  0  0  0
    3.4589   -3.3384    4.7628 C   0  0  0  0  0  0  0  0  0  0  0  0
    3.7475   -4.4283    3.7220 C   0  0  0  0  0  0  0  0  0  0  0  0
    3.8632   -4.2435    2.3798 C   0  0  0  0  0  0  0  0  0  0  0  0
    3.5808   -2.8698    1.6698 C   0  0  0  0  0  0  0  0  0  0  0  0
    2.2221   -2.2630    2.1401 C   0  0  0  0  0  0  0  0  0  0  0  0
    4.7521   -1.9013    1.9931 C   0  0  0  0  0  0  0  0  0  0  0  0
    3.4270   -2.9743    0.1215 C   0  0  1  0  0  0  0  0  0  0  0  0
    3.4147   -1.7120   -0.5254 O   0  0  0  0  0  0  0  0  0  0  0  0
    4.4967   -3.8362   -0.5130 C   0  0  0  0  0  0  0  0  0  0  0  0
    4.2823   -5.2448    0.0087 C   0  0  0  0  0  0  0  0  0  0  0  0
    4.4346   -5.4293    1.5531 C   0  0  1  0  0  0  0  0  0  0  0  0
    5.9751   -5.4372    1.7840 C   0  0  0  0  0  0  0  0  0  0  0  0
    3.7682   -6.8020    2.0276 C   0  0  2  0  0  0  0  0  0  0  0  0
    4.3810   -7.9663    1.1772 C   0  0  0  0  0  0  0  0  0  0  0  0
    2.2487   -6.7732    1.7948 C   0  0  0  0  0  0  0  0  0  0  0  0
    1.2962   -7.1367    2.6735 C   0  0  0  0  0  0  0  0  0  0  0  0
    1.5277   -7.7303    4.0660 C   0  0  1  0  0  0  0  0  0  0  0  0
    0.4173   -8.7693    4.5074 C   0  0  0  0  0  0  0  0  0  0  0  0
    0.3999   -8.9576    6.0516 C   0  0  0  0  0  0  0  0  0  0  0  0
   -1.0106   -8.2408    4.1883 C   0  0  0  0  0  0  0  0  0  0  0  0
    0.6311  -10.1622    3.8491 C   0  0  1  0  0  0  0  0  0  0  0  0
    0.2530  -10.1761    2.4880 O   0  0  0  0  0  0  0  0  0  0  0  0
    2.0843  -10.6575    3.9454 C   0  0  0  0  0  0  0  0  0  0  0  0
    3.0975   -9.5951    3.4619 C   0  0  0  0  0  0  0  0  0  0  0  0
    3.0226   -8.2063    4.1809 C   0  0  2  0  0  0  0  0  0  0  0  0
    3.4987   -8.4547    5.6402 C   0  0  0  0  0  0  0  0  0  0  0  0
    3.9969   -7.0856    3.5616 C   0  0  2  0  0  0  0  0  0  0  0  0
    3.9852   -5.7654    4.4317 C   0  0  1  0  0  0  0  0  0  0  0  0
    5.1715   -5.6230    5.4230 C   0  0  0  0  0  0  0  0  0  0  0  0
    6.2011   -3.5153    7.9982 H   0  0  0  0  0  0  0  0  0  0  0  0
    7.1027   -4.0426    6.5866 H   0  0  0  0  0  0  0  0  0  0  0  0
    6.5838   -5.2226    7.7814 H   0  0  0  0  0  0  0  0  0  0  0  0
    2.8819   -4.9689    7.0446 H   0  0  0  0  0  0  0  0  0  0  0  0
    3.7795   -4.1264    8.2860 H   0  0  0  0  0  0  0  0  0  0  0  0
    4.0799   -5.8389    7.9871 H   0  0  0  0  0  0  0  0  0  0  0  0
    4.4071   -2.4079    6.4782 H   0  0  0  0  0  0  0  0  0  0  0  0
    5.4961   -2.8631    5.1975 H   0  0  0  0  0  0  0  0  0  0  0  0
    2.5339   -3.5799    5.2827 H   0  0  0  0  0  0  0  0  0  0  0  0
    3.3059   -2.3532    4.3528 H   0  0  0  0  0  0  0  0  0  0  0  0
    1.6027   -1.9090    1.3147 H   0  0  0  0  0  0  0  0  0  0  0  0
    2.3430   -1.3876    2.7786 H   0  0  0  0  0  0  0  0  0  0  0  0
    1.6115   -3.0011    2.6639 H   0  0  0  0  0  0  0  0  0  0  0  0
    4.5626   -0.8886    1.6383 H   0  0  0  0  0  0  0  0  0  0  0  0
    5.6835   -2.2337    1.5389 H   0  0  0  0  0  0  0  0  0  0  0  0
    4.9571   -1.8260    3.0573 H   0  0  0  0  0  0  0  0  0  0  0  0
    2.4665   -3.4385   -0.1189 H   0  0  0  0  0  0  0  0  0  0  0  0
    2.4997   -1.4398   -0.6327 H   0  0  0  0  0  0  0  0  0  0  0  0
    4.3738   -3.8378   -1.5977 H   0  0  0  0  0  0  0  0  0  0  0  0
    5.5038   -3.4727   -0.3192 H   0  0  0  0  0  0  0  0  0  0  0  0
    3.3009   -5.5557   -0.3223 H   0  0  0  0  0  0  0  0  0  0  0  0
    4.9721   -5.8744   -0.5506 H   0  0  0  0  0  0  0  0  0  0  0  0
    6.2574   -5.7427    2.7850 H   0  0  0  0  0  0  0  0  0  0  0  0
    6.4060   -4.4472    1.6330 H   0  0  0  0  0  0  0  0  0  0  0  0
    6.5061   -6.1041    1.1043 H   0  0  0  0  0  0  0  0  0  0  0  0
    4.8932   -8.7113    1.7846 H   0  0  0  0  0  0  0  0  0  0  0  0
    5.1437   -7.6668    0.4692 H   0  0  0  0  0  0  0  0  0  0  0  0
    3.6266   -8.4904    0.5878 H   0  0  0  0  0  0  0  0  0  0  0  0
    1.9036   -6.3949    0.8502 H   0  0  0  0  0  0  0  0  0  0  0  0
    0.2762   -6.9943    2.3684 H   0  0  0  0  0  0  0  0  0  0  0  0
    1.3694   -6.8817    4.7255 H   0  0  0  0  0  0  0  0  0  0  0  0
   -0.5632   -9.3339    6.4067 H   0  0  0  0  0  0  0  0  0  0  0  0
    0.6019   -8.0279    6.5872 H   0  0  0  0  0  0  0  0  0  0  0  0
    1.1095   -9.7038    6.4002 H   0  0  0  0  0  0  0  0  0  0  0  0
   -1.7787   -8.8907    4.6056 H   0  0  0  0  0  0  0  0  0  0  0  0
   -1.2317   -8.2046    3.1228 H   0  0  0  0  0  0  0  0  0  0  0  0
   -1.1706   -7.2423    4.6003 H   0  0  0  0  0  0  0  0  0  0  0  0
   -0.0120  -10.8911    4.3419 H   0  0  0  0  0  0  0  0  0  0  0  0
    0.8894   -9.6951    1.9828 H   0  0  0  0  0  0  0  0  0  0  0  0
    2.3073  -10.9751    4.9587 H   0  0  0  0  0  0  0  0  0  0  0  0
    2.1972  -11.5610    3.3460 H   0  0  0  0  0  0  0  0  0  0  0  0
    4.1102  -10.0022    3.5137 H   0  0  0  0  0  0  0  0  0  0  0  0
    2.8600   -9.4824    2.4093 H   0  0  0  0  0  0  0  0  0  0  0  0
    4.5828   -8.5605    5.6727 H   0  0  0  0  0  0  0  0  0  0  0  0
    3.1398   -9.3766    6.0793 H   0  0  0  0  0  0  0  0  0  0  0  0
    3.2101   -7.6567    6.3215 H   0  0  0  0  0  0  0  0  0  0  0  0
    5.0121   -7.4788    3.6460 H   0  0  0  0  0  0  0  0  0  0  0  0
    3.1045   -5.8317    5.0526 H   0  0  0  0  0  0  0  0  0  0  0  0
    6.0768   -5.3907    4.8661 H   0  0  0  0  0  0  0  0  0  0  0  0
    5.3835   -6.5583    5.9325 H   0  0  0  0  0  0  0  0  0  0  0  0
  1  2  1  0
  1 34  1  0
  1 35  1  0
  1 36  1  0
  2 33  1  0
  2  3  1  0
  2  4  1  0
  3 37  1  0
  3 38  1  0
  3 39  1  0
  4  5  1  0
  4 40  1  0
  4 41  1  0
  5  6  1  0
  5 42  1  0
  5 43  1  0
  6 32  1  0
  6  7  2  0
  7 15  1  0
  7  8  1  0
  8  9  1  0
  8 10  1  0
  8 11  1  0
  9 44  1  0
  9 45  1  0
  9 46  1  0
 10 47  1  0
 10 48  1  0
 10 49  1  0
 11 12  1  0
 11 13  1  0
 11 50  1  1
 12 51  1  0
 13 14  1  0
 13 52  1  0
 13 53  1  0
 14 15  1  0
 14 54  1  0
 14 55  1  0
 15 16  1  6
 15 17  1  0
 16 56  1  0
 16 57  1  0
 16 58  1  0
 17 31  1  0
 17 18  1  6
 17 19  1  0
 18 59  1  0
 18 60  1  0
 18 61  1  0
 19 20  2  0
 19 62  1  0
 20 21  1  0
 20 63  1  0
 21 29  1  0
 21 22  1  0
 21 64  1  1
 22 23  1  0
 22 24  1  0
 22 25  1  0
 23 65  1  0
 23 66  1  0
 23 67  1  0
 24 68  1  0
 24 69  1  0
 24 70  1  0
 25 26  1  0
 25 27  1  0
 25 71  1  1
 26 72  1  0
 27 28  1  0
 27 73  1  0
 27 74  1  0
 28 29  1  0
 28 75  1  0
 28 76  1  0
 29 30  1  1
 29 31  1  0
 30 77  1  0
 30 78  1  0
 30 79  1  0
 31 32  1  0
 31 80  1  6
 32 33  1  0
 32 81  1  1
 33 82  1  0
 33 83  1  0
M  END
>  <i_m_ct_stereo_status>  (216) 
1

>  <s_m_source_file>  (216) 
/var/tmp/pbs.5076255.sched01/tmpi5tju4vo/80qzp1lgse.sdf

>  <i_m_source_file_index>  (216) 
18

>  <i_lp_mmshare_version>  (216) 
48012

>  <i_f3d_flags>  (216) 
0

>  <s_epik_input>  (216) 
W0NIMl0xW0NIMl1bQ0BIXShbT0hdKUMoW0NIM10pKFtDSDNdKUMoW0NAXTEyW0NIM10pPUMzW0NASF0oW0NIMl1DKFtDSDNdKShbQ0gzXSlbQ0gyXVtDSDJdMylbQ0BASF00W0NAQF0yKFtDSDNdKVtDSF09W0NIXVtDQEBIXTVbQ0BAXTQoW0NIM10pW0NIMl1bQ0gyXVtDQEhdKFtPSF0pQzUoW0NIM10pW0NIM10=

>  <s_epik_cmdline>  (216) 
J2VwaWtfcHl0aG9uJywgJy1waHQnLCAnMi4wJywgJy1waCcsICc3LjAnLCAnLXRuJywgJzgnLCAnLW1hJywgJzIwMCcsICctaW1hZScsICc8aW5maWxlLm1hZT4nLCAnLW9tYWUnLCAnPG91dGZpbGUubWFlPic=

>  <r_lp_tautomer_probability>  (216) 
1

>  <r_epik_Ionization_Penalty>  (216) 
3.36456e-06

>  <r_epik_Ionization_Penalty_Charging>  (216) 
0

>  <r_epik_Ionization_Penalty_Neutral>  (216) 
3.36456e-06

>  <r_epik_State_Penalty>  (216) 
-0

>  <r_epik_Charging_Adjusted_Penalty>  (216) 
0

>  <i_epik_Tot_Q>  (216) 
0

>  <i_epik_Tot_abs_Q>  (216) 
0

>  <s_lp_Force_Field>  (216) 
OPLS3e

>  <r_lp_Energy>  (216) 
98.2928

>  <b_lp_Chiralities_Consistent>  (216) 
1

>  <s_lp_Variant>  (216) 
71:0-1

>  <s_i_glide_gridfile>  (216) 
pfpi4k_grid

>  <i_i_glide_lignum>  (216) 
18

>  <i_i_glide_rotatable_bonds>  (216) 
2

>  <r_i_docking_score>  (216) 
-2.72599

>  <r_i_glide_ligand_efficiency>  (216) 
-0.0826058

>  <r_i_glide_ligand_efficiency_sa>  (216) 
-0.264961

>  <r_i_glide_ligand_efficiency_ln>  (216) 
-0.606246

>  <r_i_glide_gscore>  (216) 
-2.72599

>  <r_i_glide_lipo>  (216) 
-0.195137

>  <r_i_glide_hbond>  (216) 
-0.16

>  <r_i_glide_metal>  (216) 
-0

>  <r_i_glide_rewards>  (216) 
-0.308676

>  <r_i_glide_evdw>  (216) 
-30.0767

>  <r_i_glide_ecoul>  (216) 
-3.7223

>  <r_i_glide_erotb>  (216) 
0

>  <r_i_glide_esite>  (216) 
0

>  <r_i_glide_emodel>  (216) 
-39.0169

>  <r_i_glide_energy>  (216) 
-33.799

>  <r_i_glide_einternal>  (216) 
1.16856

>  <r_i_glide_intrahb_reward>  (216) 
-0

>  <i_i_glide_confnum>  (216) 
2

>  <i_i_glide_posenum>  (216) 
25

>  <r_i_glide_eff_state_penalty>  (216) 
0

>  <ligand_id>  (216) 
71

>  <original_smiles>  (216) 
CC1(C)CCC2=C3C(C)(C)C(O)CCC3(C)C3(C)C=CC4C(C)(C)C(O)CCC4(C)C3C2C1

>  <smiles>  (216) 
[H]OC1([H])C([H])([H])C([H])([H])C2(C([H])([H])[H])C(=C3C([H])([H])C([H])([H])C(C([H])([H])[H])(C([H])([H])[H])C([H])([H])C3([H])C3([H])C2(C([H])([H])[H])C([H])=C([H])C2([H])C(C([H])([H])[H])(C([H])([H])[H])C([H])(O[H])C([H])([H])C([H])([H])C23C([H])([H])[H])C1(C([H])([H])[H])C([H])([H])[H]

$$$$
71:0:2
     RDKit          3D

 83 87  0  0  1  0  0  0  0  0999 V2000
    6.2834   -4.0843    7.2446 C   0  0  0  0  0  0  0  0  0  0  0  0
    4.9680   -4.2900    6.4680 C   0  0  0  0  0  0  0  0  0  0  0  0
    3.8643   -4.6612    7.4886 C   0  0  0  0  0  0  0  0  0  0  0  0
    4.6150   -2.9812    5.7358 C   0  0  0  0  0  0  0  0  0  0  0  0
    3.4542   -3.1310    4.7410 C   0  0  0  0  0  0  0  0  0  0  0  0
    3.7489   -4.2243    3.7046 C   0  0  0  0  0  0  0  0  0  0  0  0
    3.8647   -4.0464    2.3606 C   0  0  0  0  0  0  0  0  0  0  0  0
    3.5795   -2.6761    1.6448 C   0  0  0  0  0  0  0  0  0  0  0  0
    2.2179   -2.0741    2.1108 C   0  0  0  0  0  0  0  0  0  0  0  0
    4.7478   -1.7027    1.9666 C   0  0  0  0  0  0  0  0  0  0  0  0
    3.4303   -2.7888    0.0975 C   0  0  1  0  0  0  0  0  0  0  0  0
    3.4143   -1.5276   -0.5531 O   0  0  0  0  0  0  0  0  0  0  0  0
    4.5007   -3.6496   -0.5334 C   0  0  0  0  0  0  0  0  0  0  0  0
    4.2890   -5.0571   -0.0097 C   0  0  0  0  0  0  0  0  0  0  0  0
    4.4400   -5.2338    1.5378 C   0  0  1  0  0  0  0  0  0  0  0  0
    5.9800   -5.2357    1.7734 C   0  0  0  0  0  0  0  0  0  0  0  0
    3.7782   -6.6054    2.0212 C   0  0  2  0  0  0  0  0  0  0  0  0
    4.3958   -7.7721    1.1783 C   0  0  0  0  0  0  0  0  0  0  0  0
    2.2594   -6.5810    1.7870 C   0  0  0  0  0  0  0  0  0  0  0  0
    1.3067   -6.9436    2.6671 C   0  0  0  0  0  0  0  0  0  0  0  0
    1.5361   -7.5325    4.0630 C   0  0  1  0  0  0  0  0  0  0  0  0
    0.4267   -8.5735    4.5085 C   0  0  0  0  0  0  0  0  0  0  0  0
    0.4090   -8.7548    6.0521 C   0  0  0  0  0  0  0  0  0  0  0  0
   -1.0029   -8.0506    4.1846 C   0  0  0  0  0  0  0  0  0  0  0  0
    0.6472   -9.9684    3.8546 C   0  0  1  0  0  0  0  0  0  0  0  0
    0.2896   -9.9609    2.4889 O   0  0  0  0  0  0  0  0  0  0  0  0
    2.1023  -10.4573    3.9565 C   0  0  0  0  0  0  0  0  0  0  0  0
    3.1113   -9.3937    3.4677 C   0  0  0  0  0  0  0  0  0  0  0  0
    3.0329   -8.0029    4.1814 C   0  0  2  0  0  0  0  0  0  0  0  0
    3.5081   -8.2428    5.6421 C   0  0  0  0  0  0  0  0  0  0  0  0
    4.0046   -6.8812    3.5573 C   0  0  2  0  0  0  0  0  0  0  0  0
    3.9884   -5.5582    4.4220 C   0  0  1  0  0  0  0  0  0  0  0  0
    5.1738   -5.4063    5.4141 C   0  0  0  0  0  0  0  0  0  0  0  0
    6.1926   -3.2852    7.9806 H   0  0  0  0  0  0  0  0  0  0  0  0
    7.0979   -3.8160    6.5728 H   0  0  0  0  0  0  0  0  0  0  0  0
    6.5804   -4.9917    7.7721 H   0  0  0  0  0  0  0  0  0  0  0  0
    2.8794   -4.7524    7.0292 H   0  0  0  0  0  0  0  0  0  0  0  0
    3.7733   -3.9014    8.2681 H   0  0  0  0  0  0  0  0  0  0  0  0
    4.0789   -5.6143    7.9773 H   0  0  0  0  0  0  0  0  0  0  0  0
    4.3974   -2.1901    6.4528 H   0  0  0  0  0  0  0  0  0  0  0  0
    5.4897   -2.6472    5.1760 H   0  0  0  0  0  0  0  0  0  0  0  0
    2.5298   -3.3729    5.2601 H   0  0  0  0  0  0  0  0  0  0  0  0
    3.2992   -2.1475    4.3254 H   0  0  0  0  0  0  0  0  0  0  0  0
    1.5980   -1.7326    1.2829 H   0  0  0  0  0  0  0  0  0  0  0  0
    2.3343   -1.1940    2.7435 H   0  0  0  0  0  0  0  0  0  0  0  0
    1.6100   -2.8110    2.6388 H   0  0  0  0  0  0  0  0  0  0  0  0
    4.5548   -0.6919    1.6070 H   0  0  0  0  0  0  0  0  0  0  0  0
    5.6802   -2.0340    1.5151 H   0  0  0  0  0  0  0  0  0  0  0  0
    4.9503   -1.6216    3.0313 H   0  0  0  0  0  0  0  0  0  0  0  0
    2.4700   -3.2542   -0.1427 H   0  0  0  0  0  0  0  0  0  0  0  0
    2.4998   -1.2617   -0.6664 H   0  0  0  0  0  0  0  0  0  0  0  0
    4.3801   -3.6549   -1.6181 H   0  0  0  0  0  0  0  0  0  0  0  0
    5.5066   -3.2841   -0.3379 H   0  0  0  0  0  0  0  0  0  0  0  0
    3.3098   -5.3745   -0.3466 H   0  0  0  0  0  0  0  0  0  0  0  0
    4.9832   -5.6880   -0.5620 H   0  0  0  0  0  0  0  0  0  0  0  0
    6.2607   -5.5358    2.7770 H   0  0  0  0  0  0  0  0  0  0  0  0
    6.4081   -4.2451    1.6197 H   0  0  0  0  0  0  0  0  0  0  0  0
    6.5140   -5.9043    1.0986 H   0  0  0  0  0  0  0  0  0  0  0  0
    4.9091   -8.5117    1.7909 H   0  0  0  0  0  0  0  0  0  0  0  0
    5.1584   -7.4740    0.4683 H   0  0  0  0  0  0  0  0  0  0  0  0
    3.6437   -8.3021    0.5927 H   0  0  0  0  0  0  0  0  0  0  0  0
    1.9160   -6.2111    0.8382 H   0  0  0  0  0  0  0  0  0  0  0  0
    0.2860   -6.8122    2.3574 H   0  0  0  0  0  0  0  0  0  0  0  0
    1.3740   -6.6820    4.7177 H   0  0  0  0  0  0  0  0  0  0  0  0
   -0.5531   -9.1315    6.4062 H   0  0  0  0  0  0  0  0  0  0  0  0
    0.6083   -7.8201    6.5788 H   0  0  0  0  0  0  0  0  0  0  0  0
    1.1221   -9.4965    6.4020 H   0  0  0  0  0  0  0  0  0  0  0  0
   -1.7721   -8.6970    4.6093 H   0  0  0  0  0  0  0  0  0  0  0  0
   -1.2215   -8.0209    3.1182 H   0  0  0  0  0  0  0  0  0  0  0  0
   -1.1620   -7.0492    4.5895 H   0  0  0  0  0  0  0  0  0  0  0  0
    0.0023  -10.7003    4.3443 H   0  0  0  0  0  0  0  0  0  0  0  0
    0.3823  -10.8398    2.1476 H   0  0  0  0  0  0  0  0  0  0  0  0
    2.3240  -10.7692    4.9736 H   0  0  0  0  0  0  0  0  0  0  0  0
    2.2246  -11.3636    3.3612 H   0  0  0  0  0  0  0  0  0  0  0  0
    4.1248   -9.7970    3.5209 H   0  0  0  0  0  0  0  0  0  0  0  0
    2.8687   -9.2838    2.4161 H   0  0  0  0  0  0  0  0  0  0  0  0
    4.5918   -8.3450    5.6759 H   0  0  0  0  0  0  0  0  0  0  0  0
    3.1511   -9.1638    6.0847 H   0  0  0  0  0  0  0  0  0  0  0  0
    3.2159   -7.4421    6.3193 H   0  0  0  0  0  0  0  0  0  0  0  0
    5.0210   -7.2718    3.6453 H   0  0  0  0  0  0  0  0  0  0  0  0
    3.1063   -5.6239    5.0411 H   0  0  0  0  0  0  0  0  0  0  0  0
    6.0783   -5.1752    4.8570 H   0  0  0  0  0  0  0  0  0  0  0  0
    5.3866   -6.3399    5.9277 H   0  0  0  0  0  0  0  0  0  0  0  0
  1  2  1  0
  1 34  1  0
  1 35  1  0
  1 36  1  0
  2 33  1  0
  2  3  1  0
  2  4  1  0
  3 37  1  0
  3 38  1  0
  3 39  1  0
  4  5  1  0
  4 40  1  0
  4 41  1  0
  5  6  1  0
  5 42  1  0
  5 43  1  0
  6 32  1  0
  6  7  2  0
  7 15  1  0
  7  8  1  0
  8  9  1  0
  8 10  1  0
  8 11  1  0
  9 44  1  0
  9 45  1  0
  9 46  1  0
 10 47  1  0
 10 48  1  0
 10 49  1  0
 11 12  1  0
 11 13  1  0
 11 50  1  1
 12 51  1  0
 13 14  1  0
 13 52  1  0
 13 53  1  0
 14 15  1  0
 14 54  1  0
 14 55  1  0
 15 16  1  6
 15 17  1  0
 16 56  1  0
 16 57  1  0
 16 58  1  0
 17 31  1  0
 17 18  1  6
 17 19  1  0
 18 59  1  0
 18 60  1  0
 18 61  1  0
 19 20  2  0
 19 62  1  0
 20 21  1  0
 20 63  1  0
 21 29  1  0
 21 22  1  0
 21 64  1  1
 22 23  1  0
 22 24  1  0
 22 25  1  0
 23 65  1  0
 23 66  1  0
 23 67  1  0
 24 68  1  0
 24 69  1  0
 24 70  1  0
 25 26  1  0
 25 27  1  0
 25 71  1  1
 26 72  1  0
 27 28  1  0
 27 73  1  0
 27 74  1  0
 28 29  1  0
 28 75  1  0
 28 76  1  0
 29 30  1  1
 29 31  1  0
 30 77  1  0
 30 78  1  0
 30 79  1  0
 31 32  1  0
 31 80  1  6
 32 33  1  0
 32 81  1  1
 33 82  1  0
 33 83  1  0
M  END
>  <i_m_ct_stereo_status>  (217) 
1

>  <s_m_source_file>  (217) 
/var/tmp/pbs.5076255.sched01/tmpi5tju4vo/80qzp1lgse.sdf

>  <i_m_source_file_index>  (217) 
18

>  <i_lp_mmshare_version>  (217) 
48012

>  <i_f3d_flags>  (217) 
0

>  <s_epik_input>  (217) 
W0NIMl0xW0NIMl1bQ0BIXShbT0hdKUMoW0NIM10pKFtDSDNdKUMoW0NAXTEyW0NIM10pPUMzW0NASF0oW0NIMl1DKFtDSDNdKShbQ0gzXSlbQ0gyXVtDSDJdMylbQ0BASF00W0NAQF0yKFtDSDNdKVtDSF09W0NIXVtDQEBIXTVbQ0BAXTQoW0NIM10pW0NIMl1bQ0gyXVtDQEhdKFtPSF0pQzUoW0NIM10pW0NIM10=

>  <s_epik_cmdline>  (217) 
J2VwaWtfcHl0aG9uJywgJy1waHQnLCAnMi4wJywgJy1waCcsICc3LjAnLCAnLXRuJywgJzgnLCAnLW1hJywgJzIwMCcsICctaW1hZScsICc8aW5maWxlLm1hZT4nLCAnLW9tYWUnLCAnPG91dGZpbGUubWFlPic=

>  <r_lp_tautomer_probability>  (217) 
1

>  <r_epik_Ionization_Penalty>  (217) 
3.36456e-06

>  <r_epik_Ionization_Penalty_Charging>  (217) 
0

>  <r_epik_Ionization_Penalty_Neutral>  (217) 
3.36456e-06

>  <r_epik_State_Penalty>  (217) 
-0

>  <r_epik_Charging_Adjusted_Penalty>  (217) 
0

>  <i_epik_Tot_Q>  (217) 
0

>  <i_epik_Tot_abs_Q>  (217) 
0

>  <s_lp_Force_Field>  (217) 
OPLS3e

>  <r_lp_Energy>  (217) 
98.2928

>  <b_lp_Chiralities_Consistent>  (217) 
1

>  <s_lp_Variant>  (217) 
71:0-1

>  <s_i_glide_gridfile>  (217) 
pfpi4k_grid

>  <i_i_glide_lignum>  (217) 
18

>  <i_i_glide_rotatable_bonds>  (217) 
2

>  <r_i_docking_score>  (217) 
-2.70566

>  <r_i_glide_ligand_efficiency>  (217) 
-0.0819897

>  <r_i_glide_ligand_efficiency_sa>  (217) 
-0.262985

>  <r_i_glide_ligand_efficiency_ln>  (217) 
-0.601725

>  <r_i_glide_gscore>  (217) 
-2.70566

>  <r_i_glide_lipo>  (217) 
-0.2393

>  <r_i_glide_hbond>  (217) 
-0.16

>  <r_i_glide_metal>  (217) 
-0

>  <r_i_glide_rewards>  (217) 
-0.308676

>  <r_i_glide_evdw>  (217) 
-29.8618

>  <r_i_glide_ecoul>  (217) 
-3.36396

>  <r_i_glide_erotb>  (217) 
0

>  <r_i_glide_esite>  (217) 
0

>  <r_i_glide_emodel>  (217) 
-38.3249

>  <r_i_glide_energy>  (217) 
-33.2258

>  <r_i_glide_einternal>  (217) 
1.3611

>  <r_i_glide_intrahb_reward>  (217) 
-0

>  <i_i_glide_confnum>  (217) 
2

>  <i_i_glide_posenum>  (217) 
1

>  <r_i_glide_eff_state_penalty>  (217) 
0

>  <ligand_id>  (217) 
71

>  <original_smiles>  (217) 
CC1(C)CCC2=C3C(C)(C)C(O)CCC3(C)C3(C)C=CC4C(C)(C)C(O)CCC4(C)C3C2C1

>  <smiles>  (217) 
[H]OC1([H])C([H])([H])C([H])([H])C2(C([H])([H])[H])C(=C3C([H])([H])C([H])([H])C(C([H])([H])[H])(C([H])([H])[H])C([H])([H])C3([H])C3([H])C2(C([H])([H])[H])C([H])=C([H])C2([H])C(C([H])([H])[H])(C([H])([H])[H])C([H])(O[H])C([H])([H])C([H])([H])C23C([H])([H])[H])C1(C([H])([H])[H])C([H])([H])[H]

$$$$
72:0:0
     RDKit          3D

 37 39  0  0  1  0  0  0  0  0999 V2000
   -1.8790   -7.3405    3.9091 C   0  0  0  0  0  0  0  0  0  0  0  0
   -1.5631   -8.3127    2.7610 C   0  0  0  0  0  0  0  0  0  0  0  0
   -0.1307   -8.4037    2.4858 N   0  0  0  0  0  0  0  0  0  0  0  0
    0.6171   -7.4128    1.9788 C   0  0  0  0  0  0  0  0  0  0  0  0
    0.1381   -6.3152    1.6691 O   0  0  0  0  0  0  0  0  0  0  0  0
    1.9124   -7.7674    1.8494 N   0  0  0  0  0  0  0  0  0  0  0  0
    3.0350   -7.0026    1.6422 C   0  0  0  0  0  0  0  0  0  0  0  0
    2.9495   -5.6724    1.7415 N   0  0  0  0  0  0  0  0  0  0  0  0
    4.1439   -5.0466    1.5383 C   0  0  0  0  0  0  0  0  0  0  0  0
    5.3701   -5.6911    1.2387 C   0  0  0  0  0  0  0  0  0  0  0  0
    6.3194   -4.6347    1.0918 C   0  0  0  0  0  0  0  0  0  0  0  0
    5.7740   -3.4629    1.3253 N   0  0  0  0  0  0  0  0  0  0  0  0
    4.4495   -3.6869    1.5680 N   0  0  0  0  0  0  0  0  0  0  0  0
    3.5638   -2.6019    1.8610 C   0  0  0  0  0  0  0  0  0  0  0  0
    2.6633   -2.8063    2.8519 N   0  0  0  0  0  0  0  0  0  0  0  0
    1.8009   -1.8283    3.1790 C   0  0  0  0  0  0  0  0  0  0  0  0
    1.7988   -0.5711    2.5611 C   0  0  0  0  0  0  0  0  0  0  0  0
    2.7319   -0.3314    1.5425 C   0  0  0  0  0  0  0  0  0  0  0  0
    3.6300   -1.3534    1.1691 C   0  0  0  0  0  0  0  0  0  0  0  0
    4.6014   -1.0839    0.0283 C   0  0  0  0  0  0  0  0  0  0  0  0
    5.3146   -7.0985    1.1746 C   0  0  0  0  0  0  0  0  0  0  0  0
    4.1334   -7.7244    1.3902 N   0  0  0  0  0  0  0  0  0  0  0  0
   -2.9501   -7.2621    4.0612 H   0  0  0  0  0  0  0  0  0  0  0  0
   -1.5201   -6.3336    3.7061 H   0  0  0  0  0  0  0  0  0  0  0  0
   -1.4243   -7.6726    4.8403 H   0  0  0  0  0  0  0  0  0  0  0  0
   -1.9303   -9.3101    3.0106 H   0  0  0  0  0  0  0  0  0  0  0  0
   -2.0811   -8.0172    1.8497 H   0  0  0  0  0  0  0  0  0  0  0  0
    0.3004   -9.2976    2.6855 H   0  0  0  0  0  0  0  0  0  0  0  0
    7.3698   -4.6885    0.8478 H   0  0  0  0  0  0  0  0  0  0  0  0
    1.0935   -2.0635    3.9547 H   0  0  0  0  0  0  0  0  0  0  0  0
    1.0887    0.1894    2.8503 H   0  0  0  0  0  0  0  0  0  0  0  0
    2.7536    0.6224    1.0420 H   0  0  0  0  0  0  0  0  0  0  0  0
    4.2969   -0.2174   -0.5533 H   0  0  0  0  0  0  0  0  0  0  0  0
    4.6537   -1.9339   -0.6541 H   0  0  0  0  0  0  0  0  0  0  0  0
    5.5960   -0.8786    0.4232 H   0  0  0  0  0  0  0  0  0  0  0  0
    6.1888   -7.6921    0.9492 H   0  0  0  0  0  0  0  0  0  0  0  0
    2.1357   -8.7398    2.0099 H   0  0  0  0  0  0  0  0  0  0  0  0
  1  2  1  0
  1 23  1  0
  1 24  1  0
  1 25  1  0
  2  3  1  0
  2 26  1  0
  2 27  1  0
  3  4  1  0
  3 28  1  0
  4  5  2  0
  4  6  1  0
  6  7  1  0
  6 37  1  0
  7 22  2  0
  7  8  1  0
  8  9  2  0
  9 13  1  0
  9 10  1  0
 10 11  1  0
 10 21  2  0
 11 12  2  0
 11 29  1  0
 12 13  1  0
 13 14  1  0
 14 19  1  0
 14 15  2  0
 15 16  1  0
 16 17  2  0
 16 30  1  0
 17 18  1  0
 17 31  1  0
 18 19  2  0
 18 32  1  0
 19 20  1  0
 20 33  1  0
 20 34  1  0
 20 35  1  0
 21 22  1  0
 21 36  1  0
M  END
>  <i_m_ct_stereo_status>  (218) 
1

>  <s_m_source_file>  (218) 
/var/tmp/pbs.5076255.sched01/tmpi5tju4vo/80qzp1lgse.sdf

>  <i_m_source_file_index>  (218) 
19

>  <i_lp_mmshare_version>  (218) 
48012

>  <i_f3d_flags>  (218) 
0

>  <s_epik_input>  (218) 
W0NIM11bQ0gyXVtOSF1DKD1PKS9OPWMoXG4xKVtuSF1bY0hdYyhjMTIpW2NIXW5uMi1jM25bY0hdW2NIXVtjSF1jM1tDSDNd

>  <s_epik_cmdline>  (218) 
J2VwaWtfcHl0aG9uJywgJy1waHQnLCAnMi4wJywgJy1waCcsICc3LjAnLCAnLXRuJywgJzgnLCAnLW1hJywgJzIwMCcsICctaW1hZScsICc8aW5maWxlLm1hZT4nLCAnLW9tYWUnLCAnPG91dGZpbGUubWFlPic=

>  <r_epik_Ionization_Penalty>  (218) 
0.000957202

>  <r_epik_Ionization_Penalty_Charging>  (218) 
0

>  <r_epik_Ionization_Penalty_Neutral>  (218) 
0.000957202

>  <r_epik_State_Penalty>  (218) 
0.000604547

>  <r_epik_Charging_Adjusted_Penalty>  (218) 
0.000604547

>  <i_epik_Tot_Q>  (218) 
0

>  <i_epik_Tot_abs_Q>  (218) 
0

>  <s_lp_Force_Field>  (218) 
OPLS3e

>  <r_lp_Energy>  (218) 
33.0592

>  <b_lp_Chiralities_Consistent>  (218) 
1

>  <s_lp_Variant>  (218) 
72:0-1

>  <s_i_glide_gridfile>  (218) 
pfpi4k_grid

>  <i_i_glide_lignum>  (218) 
19

>  <i_i_glide_rotatable_bonds>  (218) 
5

>  <r_i_docking_score>  (218) 
-3.26819

>  <r_i_glide_ligand_efficiency>  (218) 
-0.148554

>  <r_i_glide_ligand_efficiency_sa>  (218) 
-0.416254

>  <r_i_glide_ligand_efficiency_ln>  (218) 
-0.798864

>  <r_i_glide_gscore>  (218) 
-3.26819

>  <r_i_glide_lipo>  (218) 
-0.24998

>  <r_i_glide_hbond>  (218) 
-0.277614

>  <r_i_glide_metal>  (218) 
-0

>  <r_i_glide_rewards>  (218) 
-1.48901

>  <r_i_glide_evdw>  (218) 
-24.6834

>  <r_i_glide_ecoul>  (218) 
-4.81744

>  <r_i_glide_erotb>  (218) 
0.82961

>  <r_i_glide_esite>  (218) 
-0.124406

>  <r_i_glide_emodel>  (218) 
-35.7824

>  <r_i_glide_energy>  (218) 
-29.5009

>  <r_i_glide_einternal>  (218) 
1.19467

>  <r_i_glide_intrahb_reward>  (218) 
-0

>  <i_i_glide_confnum>  (218) 
1

>  <i_i_glide_posenum>  (218) 
1

>  <r_i_glide_eff_state_penalty>  (218) 
0

>  <ligand_id>  (218) 
72

>  <original_smiles>  (218) 
CCNC(=O)N=c1nc2c(cnn2-c2ncccc2C)c[nH]1

>  <smiles>  (218) 
[H]c1nc(-n2nc([H])c3c([H])nc(N([H])C(=O)N([H])C([H])([H])C([H])([H])[H])nc32)c(C([H])([H])[H])c([H])c1[H]

$$$$
72:0:1
     RDKit          3D

 37 39  0  0  1  0  0  0  0  0999 V2000
    4.9602   -3.0894    0.9738 C   0  0  0  0  0  0  0  0  0  0  0  0
    4.7766   -1.6483    0.4803 C   0  0  0  0  0  0  0  0  0  0  0  0
    3.4101   -1.1617    0.6528 N   0  0  0  0  0  0  0  0  0  0  0  0
    2.8977   -0.7434    1.8165 C   0  0  0  0  0  0  0  0  0  0  0  0
    3.5290   -0.8021    2.8701 O   0  0  0  0  0  0  0  0  0  0  0  0
    1.6555   -0.2426    1.6846 N   0  0  0  0  0  0  0  0  0  0  0  0
    0.8090    0.2435    2.6628 C   0  0  0  0  0  0  0  0  0  0  0  0
    0.9157   -0.2238    3.9148 N   0  0  0  0  0  0  0  0  0  0  0  0
   -0.0521    0.2480    4.7444 C   0  0  0  0  0  0  0  0  0  0  0  0
   -1.0407    1.2044    4.3977 C   0  0  0  0  0  0  0  0  0  0  0  0
   -1.7826    1.4167    5.5996 C   0  0  0  0  0  0  0  0  0  0  0  0
   -1.3892    0.6001    6.5474 N   0  0  0  0  0  0  0  0  0  0  0  0
   -0.3269   -0.1053    6.0556 N   0  0  0  0  0  0  0  0  0  0  0  0
    0.3542   -1.0250    6.9069 C   0  0  0  0  0  0  0  0  0  0  0  0
    0.7092   -0.5395    8.1236 N   0  0  0  0  0  0  0  0  0  0  0  0
    1.3732   -1.3365    8.9917 C   0  0  0  0  0  0  0  0  0  0  0  0
    1.6915   -2.6716    8.7009 C   0  0  0  0  0  0  0  0  0  0  0  0
    1.3023   -3.1893    7.4576 C   0  0  0  0  0  0  0  0  0  0  0  0
    0.6216   -2.3755    6.5331 C   0  0  0  0  0  0  0  0  0  0  0  0
    0.2001   -2.9925    5.1991 C   0  0  0  0  0  0  0  0  0  0  0  0
   -1.0119    1.6615    3.0616 C   0  0  0  0  0  0  0  0  0  0  0  0
   -0.1042    1.1346    2.2066 N   0  0  0  0  0  0  0  0  0  0  0  0
    5.9816   -3.4306    0.8031 H   0  0  0  0  0  0  0  0  0  0  0  0
    4.2919   -3.7780    0.4552 H   0  0  0  0  0  0  0  0  0  0  0  0
    4.7633   -3.1728    2.0416 H   0  0  0  0  0  0  0  0  0  0  0  0
    5.4780   -0.9871    0.9952 H   0  0  0  0  0  0  0  0  0  0  0  0
    5.0247   -1.5893   -0.5806 H   0  0  0  0  0  0  0  0  0  0  0  0
    2.8204   -1.0918   -0.1702 H   0  0  0  0  0  0  0  0  0  0  0  0
   -2.5839    2.1097    5.7928 H   0  0  0  0  0  0  0  0  0  0  0  0
    1.6591   -0.8940    9.9359 H   0  0  0  0  0  0  0  0  0  0  0  0
    2.2222   -3.2807    9.4225 H   0  0  0  0  0  0  0  0  0  0  0  0
    1.5281   -4.2165    7.2169 H   0  0  0  0  0  0  0  0  0  0  0  0
    0.7313   -3.9367    5.0480 H   0  0  0  0  0  0  0  0  0  0  0  0
    0.4234   -2.3683    4.3330 H   0  0  0  0  0  0  0  0  0  0  0  0
   -0.8739   -3.2089    5.2137 H   0  0  0  0  0  0  0  0  0  0  0  0
   -1.6936    2.4174    2.6917 H   0  0  0  0  0  0  0  0  0  0  0  0
    1.2628   -0.2424    0.7407 H   0  0  0  0  0  0  0  0  0  0  0  0
  1  2  1  0
  1 23  1  0
  1 24  1  0
  1 25  1  0
  2  3  1  0
  2 26  1  0
  2 27  1  0
  3  4  1  0
  3 28  1  0
  4  5  2  0
  4  6  1  0
  6  7  1  0
  6 37  1  0
  7 22  2  0
  7  8  1  0
  8  9  2  0
  9 13  1  0
  9 10  1  0
 10 11  1  0
 10 21  2  0
 11 12  2  0
 11 29  1  0
 12 13  1  0
 13 14  1  0
 14 19  1  0
 14 15  2  0
 15 16  1  0
 16 17  2  0
 16 30  1  0
 17 18  1  0
 17 31  1  0
 18 19  2  0
 18 32  1  0
 19 20  1  0
 20 33  1  0
 20 34  1  0
 20 35  1  0
 21 22  1  0
 21 36  1  0
M  END
>  <i_m_ct_stereo_status>  (219) 
1

>  <s_m_source_file>  (219) 
/var/tmp/pbs.5076255.sched01/tmpi5tju4vo/80qzp1lgse.sdf

>  <i_m_source_file_index>  (219) 
19

>  <i_lp_mmshare_version>  (219) 
48012

>  <i_f3d_flags>  (219) 
0

>  <s_epik_input>  (219) 
W0NIM11bQ0gyXVtOSF1DKD1PKS9OPWMoXG4xKVtuSF1bY0hdYyhjMTIpW2NIXW5uMi1jM25bY0hdW2NIXVtjSF1jM1tDSDNd

>  <s_epik_cmdline>  (219) 
J2VwaWtfcHl0aG9uJywgJy1waHQnLCAnMi4wJywgJy1waCcsICc3LjAnLCAnLXRuJywgJzgnLCAnLW1hJywgJzIwMCcsICctaW1hZScsICc8aW5maWxlLm1hZT4nLCAnLW9tYWUnLCAnPG91dGZpbGUubWFlPic=

>  <r_epik_Ionization_Penalty>  (219) 
0.000957202

>  <r_epik_Ionization_Penalty_Charging>  (219) 
0

>  <r_epik_Ionization_Penalty_Neutral>  (219) 
0.000957202

>  <r_epik_State_Penalty>  (219) 
0.000604547

>  <r_epik_Charging_Adjusted_Penalty>  (219) 
0.000604547

>  <i_epik_Tot_Q>  (219) 
0

>  <i_epik_Tot_abs_Q>  (219) 
0

>  <s_lp_Force_Field>  (219) 
OPLS3e

>  <r_lp_Energy>  (219) 
33.0592

>  <b_lp_Chiralities_Consistent>  (219) 
1

>  <s_lp_Variant>  (219) 
72:0-1

>  <s_i_glide_gridfile>  (219) 
pfpi4k_grid

>  <i_i_glide_lignum>  (219) 
19

>  <i_i_glide_rotatable_bonds>  (219) 
5

>  <r_i_docking_score>  (219) 
-3.22657

>  <r_i_glide_ligand_efficiency>  (219) 
-0.146662

>  <r_i_glide_ligand_efficiency_sa>  (219) 
-0.410953

>  <r_i_glide_ligand_efficiency_ln>  (219) 
-0.788691

>  <r_i_glide_gscore>  (219) 
-3.22657

>  <r_i_glide_lipo>  (219) 
-0.0458316

>  <r_i_glide_hbond>  (219) 
-0.353933

>  <r_i_glide_metal>  (219) 
-0

>  <r_i_glide_rewards>  (219) 
-1.38194

>  <r_i_glide_evdw>  (219) 
-19.6347

>  <r_i_glide_ecoul>  (219) 
-6.61235

>  <r_i_glide_erotb>  (219) 
0.82961

>  <r_i_glide_esite>  (219) 
-0.300884

>  <r_i_glide_emodel>  (219) 
-31.2007

>  <r_i_glide_energy>  (219) 
-26.2471

>  <r_i_glide_einternal>  (219) 
2.26222

>  <r_i_glide_intrahb_reward>  (219) 
-0

>  <i_i_glide_confnum>  (219) 
1

>  <i_i_glide_posenum>  (219) 
26

>  <r_i_glide_eff_state_penalty>  (219) 
0

>  <ligand_id>  (219) 
72

>  <original_smiles>  (219) 
CCNC(=O)N=c1nc2c(cnn2-c2ncccc2C)c[nH]1

>  <smiles>  (219) 
[H]c1nc(-n2nc([H])c3c([H])nc(N([H])C(=O)N([H])C([H])([H])C([H])([H])[H])nc32)c(C([H])([H])[H])c([H])c1[H]

$$$$
72:0:2
     RDKit          3D

 37 39  0  0  1  0  0  0  0  0999 V2000
    6.4422   -1.4211    1.0184 C   0  0  0  0  0  0  0  0  0  0  0  0
    5.2179   -2.2483    0.6028 C   0  0  0  0  0  0  0  0  0  0  0  0
    3.9659   -1.4930    0.7181 N   0  0  0  0  0  0  0  0  0  0  0  0
    3.2945   -1.2915    1.8636 C   0  0  0  0  0  0  0  0  0  0  0  0
    3.6940   -1.7278    2.9444 O   0  0  0  0  0  0  0  0  0  0  0  0
    2.1780   -0.5612    1.6763 N   0  0  0  0  0  0  0  0  0  0  0  0
    1.2079   -0.1783    2.5591 C   0  0  0  0  0  0  0  0  0  0  0  0
    0.8578   -1.0220    3.5346 N   0  0  0  0  0  0  0  0  0  0  0  0
   -0.0834   -0.4979    4.3638 C   0  0  0  0  0  0  0  0  0  0  0  0
   -0.7200    0.7574    4.2076 C   0  0  0  0  0  0  0  0  0  0  0  0
   -1.6356    0.8454    5.3002 C   0  0  0  0  0  0  0  0  0  0  0  0
   -1.5798   -0.2184    6.0686 N   0  0  0  0  0  0  0  0  0  0  0  0
   -0.6261   -1.0353    5.5290 N   0  0  0  0  0  0  0  0  0  0  0  0
   -0.3271   -2.2711    6.1691 C   0  0  0  0  0  0  0  0  0  0  0  0
   -1.3828   -3.0624    6.4807 N   0  0  0  0  0  0  0  0  0  0  0  0
   -1.1621   -4.2425    7.0920 C   0  0  0  0  0  0  0  0  0  0  0  0
    0.1149   -4.6944    7.4482 C   0  0  0  0  0  0  0  0  0  0  0  0
    1.2184   -3.8751    7.1567 C   0  0  0  0  0  0  0  0  0  0  0  0
    1.0070   -2.6316    6.5226 C   0  0  0  0  0  0  0  0  0  0  0  0
    2.2083   -1.7357    6.2720 C   0  0  0  0  0  0  0  0  0  0  0  0
   -0.3083    1.5155    3.0873 C   0  0  0  0  0  0  0  0  0  0  0  0
    0.6724    1.0176    2.2948 N   0  0  0  0  0  0  0  0  0  0  0  0
    7.3565   -2.0047    0.9117 H   0  0  0  0  0  0  0  0  0  0  0  0
    6.3769   -1.1031    2.0595 H   0  0  0  0  0  0  0  0  0  0  0  0
    6.5448   -0.5246    0.4095 H   0  0  0  0  0  0  0  0  0  0  0  0
    5.3299   -2.5654   -0.4338 H   0  0  0  0  0  0  0  0  0  0  0  0
    5.1613   -3.1627    1.1981 H   0  0  0  0  0  0  0  0  0  0  0  0
    3.5707   -1.1343   -0.1417 H   0  0  0  0  0  0  0  0  0  0  0  0
   -2.3262    1.6379    5.5445 H   0  0  0  0  0  0  0  0  0  0  0  0
   -2.0327   -4.8388    7.3134 H   0  0  0  0  0  0  0  0  0  0  0  0
    0.2538   -5.6445    7.9455 H   0  0  0  0  0  0  0  0  0  0  0  0
    2.2157   -4.1857    7.4251 H   0  0  0  0  0  0  0  0  0  0  0  0
    3.0659   -2.0400    6.8683 H   0  0  0  0  0  0  0  0  0  0  0  0
    1.9808   -0.6895    6.4935 H   0  0  0  0  0  0  0  0  0  0  0  0
    2.5347   -1.8238    5.2399 H   0  0  0  0  0  0  0  0  0  0  0  0
   -0.7365    2.4817    2.8522 H   0  0  0  0  0  0  0  0  0  0  0  0
    1.9833   -0.2406    0.7378 H   0  0  0  0  0  0  0  0  0  0  0  0
  1  2  1  0
  1 23  1  0
  1 24  1  0
  1 25  1  0
  2  3  1  0
  2 26  1  0
  2 27  1  0
  3  4  1  0
  3 28  1  0
  4  5  2  0
  4  6  1  0
  6  7  1  0
  6 37  1  0
  7 22  2  0
  7  8  1  0
  8  9  2  0
  9 13  1  0
  9 10  1  0
 10 11  1  0
 10 21  2  0
 11 12  2  0
 11 29  1  0
 12 13  1  0
 13 14  1  0
 14 19  1  0
 14 15  2  0
 15 16  1  0
 16 17  2  0
 16 30  1  0
 17 18  1  0
 17 31  1  0
 18 19  2  0
 18 32  1  0
 19 20  1  0
 20 33  1  0
 20 34  1  0
 20 35  1  0
 21 22  1  0
 21 36  1  0
M  END
>  <i_m_ct_stereo_status>  (220) 
1

>  <s_m_source_file>  (220) 
/var/tmp/pbs.5076255.sched01/tmpi5tju4vo/80qzp1lgse.sdf

>  <i_m_source_file_index>  (220) 
19

>  <i_lp_mmshare_version>  (220) 
48012

>  <i_f3d_flags>  (220) 
0

>  <s_epik_input>  (220) 
W0NIM11bQ0gyXVtOSF1DKD1PKS9OPWMoXG4xKVtuSF1bY0hdYyhjMTIpW2NIXW5uMi1jM25bY0hdW2NIXVtjSF1jM1tDSDNd

>  <s_epik_cmdline>  (220) 
J2VwaWtfcHl0aG9uJywgJy1waHQnLCAnMi4wJywgJy1waCcsICc3LjAnLCAnLXRuJywgJzgnLCAnLW1hJywgJzIwMCcsICctaW1hZScsICc8aW5maWxlLm1hZT4nLCAnLW9tYWUnLCAnPG91dGZpbGUubWFlPic=

>  <r_epik_Ionization_Penalty>  (220) 
0.000957202

>  <r_epik_Ionization_Penalty_Charging>  (220) 
0

>  <r_epik_Ionization_Penalty_Neutral>  (220) 
0.000957202

>  <r_epik_State_Penalty>  (220) 
0.000604547

>  <r_epik_Charging_Adjusted_Penalty>  (220) 
0.000604547

>  <i_epik_Tot_Q>  (220) 
0

>  <i_epik_Tot_abs_Q>  (220) 
0

>  <s_lp_Force_Field>  (220) 
OPLS3e

>  <r_lp_Energy>  (220) 
33.0592

>  <b_lp_Chiralities_Consistent>  (220) 
1

>  <s_lp_Variant>  (220) 
72:0-1

>  <s_i_glide_gridfile>  (220) 
pfpi4k_grid

>  <i_i_glide_lignum>  (220) 
19

>  <i_i_glide_rotatable_bonds>  (220) 
5

>  <r_i_docking_score>  (220) 
-2.9587

>  <r_i_glide_ligand_efficiency>  (220) 
-0.134487

>  <r_i_glide_ligand_efficiency_sa>  (220) 
-0.376837

>  <r_i_glide_ligand_efficiency_ln>  (220) 
-0.723215

>  <r_i_glide_gscore>  (220) 
-2.9587

>  <r_i_glide_lipo>  (220) 
-0.127799

>  <r_i_glide_hbond>  (220) 
-0.218108

>  <r_i_glide_metal>  (220) 
-0

>  <r_i_glide_rewards>  (220) 
-1.38194

>  <r_i_glide_evdw>  (220) 
-22.2585

>  <r_i_glide_ecoul>  (220) 
-4.74369

>  <r_i_glide_erotb>  (220) 
0.82961

>  <r_i_glide_esite>  (220) 
-0.235986

>  <r_i_glide_emodel>  (220) 
-31.9213

>  <r_i_glide_energy>  (220) 
-27.0022

>  <r_i_glide_einternal>  (220) 
2.07864

>  <r_i_glide_intrahb_reward>  (220) 
-0

>  <i_i_glide_confnum>  (220) 
3

>  <i_i_glide_posenum>  (220) 
3

>  <r_i_glide_eff_state_penalty>  (220) 
0

>  <ligand_id>  (220) 
72

>  <original_smiles>  (220) 
CCNC(=O)N=c1nc2c(cnn2-c2ncccc2C)c[nH]1

>  <smiles>  (220) 
[H]c1nc(-n2nc([H])c3c([H])nc(N([H])C(=O)N([H])C([H])([H])C([H])([H])[H])nc32)c(C([H])([H])[H])c([H])c1[H]

$$$$
73:0:0
     RDKit          3D

 49 53  0  0  1  0  0  0  0  0999 V2000
    3.0089   -2.8689   -1.6718 C   0  0  0  0  0  0  0  0  0  0  0  0
    3.4591   -2.1200   -0.4016 C   0  0  0  0  0  0  0  0  0  0  0  0
    4.9803   -1.8972   -0.3965 C   0  0  0  0  0  0  0  0  0  0  0  0
    2.9893   -2.8254    0.8779 C   0  0  0  0  0  0  0  0  0  0  0  0
    3.3418   -4.1947    1.0389 C   0  0  0  0  0  0  0  0  0  0  0  0
    2.8708   -4.7926    2.2187 C   0  0  0  0  0  0  0  0  0  0  0  0
    2.1086   -4.0834    3.1954 C   0  0  0  0  0  0  0  0  0  0  0  0
    1.7659   -2.7306    3.0663 C   0  0  0  0  0  0  0  0  0  0  0  0
    2.2174   -2.1278    1.8678 C   0  0  0  0  0  0  0  0  0  0  0  0
    1.8354   -0.8303    1.6789 O   0  0  0  0  0  0  0  0  0  0  0  0
    1.7240   -4.9558    4.4128 C   0  0  1  0  0  0  0  0  0  0  0  0
    0.8465   -4.2073    5.4470 C   0  0  0  0  0  0  0  0  0  0  0  0
    0.9997   -6.1929    3.8426 C   0  0  0  0  0  0  0  0  0  0  0  0
   -0.2842   -6.6380    4.2266 C   0  0  0  0  0  0  0  0  0  0  0  0
   -0.8379   -7.7804    3.6218 C   0  0  0  0  0  0  0  0  0  0  0  0
   -0.1065   -8.4886    2.6550 C   0  0  0  0  0  0  0  0  0  0  0  0
    1.1805   -8.0638    2.2822 C   0  0  0  0  0  0  0  0  0  0  0  0
    1.8217   -8.8027    1.3373 O   0  0  0  0  0  0  0  0  0  0  0  0
    1.7429   -6.9026    2.8749 C   0  0  0  0  0  0  0  0  0  0  0  0
    3.1322   -6.2733    2.6116 C   0  0  1  0  0  0  0  0  0  0  0  0
    4.0101   -7.0025    1.5656 C   0  0  0  0  0  0  0  0  0  0  0  0
    3.8664   -6.2107    3.9614 C   0  0  2  0  0  0  0  0  0  0  0  0
    3.3026   -6.8367    5.1313 O   0  0  0  0  0  0  0  0  0  0  0  0
    3.0816   -5.4311    4.9832 C   0  0  2  0  0  0  0  0  0  0  0  0
    3.8005   -4.5261    5.9738 C   0  0  0  0  0  0  0  0  0  0  0  0
    1.9274   -3.0076   -1.6830 H   0  0  0  0  0  0  0  0  0  0  0  0
    3.4659   -3.8548   -1.7525 H   0  0  0  0  0  0  0  0  0  0  0  0
    3.2748   -2.3150   -2.5712 H   0  0  0  0  0  0  0  0  0  0  0  0
    3.0120   -1.1290   -0.4556 H   0  0  0  0  0  0  0  0  0  0  0  0
    5.2879   -1.3382    0.4870 H   0  0  0  0  0  0  0  0  0  0  0  0
    5.2922   -1.3263   -1.2699 H   0  0  0  0  0  0  0  0  0  0  0  0
    5.5236   -2.8415   -0.4036 H   0  0  0  0  0  0  0  0  0  0  0  0
    3.9284   -4.7267    0.2973 H   0  0  0  0  0  0  0  0  0  0  0  0
    1.1743   -2.1785    3.7907 H   0  0  0  0  0  0  0  0  0  0  0  0
    1.6050   -0.6725    0.7671 H   0  0  0  0  0  0  0  0  0  0  0  0
   -0.0869   -3.8928    4.9821 H   0  0  0  0  0  0  0  0  0  0  0  0
    1.3293   -3.3067    5.8294 H   0  0  0  0  0  0  0  0  0  0  0  0
    0.5916   -4.8340    6.3037 H   0  0  0  0  0  0  0  0  0  0  0  0
   -0.8635   -6.1179    4.9695 H   0  0  0  0  0  0  0  0  0  0  0  0
   -1.8190   -8.1273    3.9000 H   0  0  0  0  0  0  0  0  0  0  0  0
   -0.5367   -9.3688    2.2008 H   0  0  0  0  0  0  0  0  0  0  0  0
    1.2543   -9.4377    0.9099 H   0  0  0  0  0  0  0  0  0  0  0  0
    3.5160   -7.0208    0.5943 H   0  0  0  0  0  0  0  0  0  0  0  0
    4.2224   -8.0330    1.8577 H   0  0  0  0  0  0  0  0  0  0  0  0
    4.9729   -6.5036    1.4304 H   0  0  0  0  0  0  0  0  0  0  0  0
    4.9483   -6.0637    3.9527 H   0  0  0  0  0  0  0  0  0  0  0  0
    3.9892   -3.5505    5.5243 H   0  0  0  0  0  0  0  0  0  0  0  0
    4.7647   -4.9566    6.2523 H   0  0  0  0  0  0  0  0  0  0  0  0
    3.2200   -4.3917    6.8870 H   0  0  0  0  0  0  0  0  0  0  0  0
  1  2  1  0
  1 26  1  0
  1 27  1  0
  1 28  1  0
  2  3  1  0
  2  4  1  0
  2 29  1  0
  3 30  1  0
  3 31  1  0
  3 32  1  0
  4  9  2  0
  4  5  1  0
  5  6  2  0
  5 33  1  0
  6 20  1  0
  6  7  1  0
  7  8  2  0
  7 11  1  0
  8  9  1  0
  8 34  1  0
  9 10  1  0
 10 35  1  0
 11 24  1  0
 11 12  1  1
 11 13  1  0
 12 36  1  0
 12 37  1  0
 12 38  1  0
 13 19  2  0
 13 14  1  0
 14 15  2  0
 14 39  1  0
 15 16  1  0
 15 40  1  0
 16 17  2  0
 16 41  1  0
 17 18  1  0
 17 19  1  0
 18 42  1  0
 19 20  1  0
 20 21  1  6
 20 22  1  0
 21 43  1  0
 21 44  1  0
 21 45  1  0
 22 24  1  0
 22 23  1  0
 22 46  1  6
 23 24  1  0
 24 25  1  1
 25 47  1  0
 25 48  1  0
 25 49  1  0
M  END
>  <i_m_ct_stereo_status>  (221) 
1

>  <s_m_source_file>  (221) 
/var/tmp/pbs.5076255.sched01/tmpi5tju4vo/80qzp1lgse.sdf

>  <i_m_source_file_index>  (221) 
20

>  <i_lp_mmshare_version>  (221) 
48012

>  <i_f3d_flags>  (221) 
0

>  <s_epik_input>  (221) 
W0NIM11bQ0hdKFtDSDNdKWMoYyhbY0hdMSlbT0hdKVtjSF1jKGMxW0NAQF0yM1tDSDNdKVtDQEBdKFtDSDNdKShbQ0BIXTRbQ0BAXTMoTzQpW0NIM10pYzVjMltjSF1bY0hdW2NIXWM1W09IXQ==

>  <s_epik_cmdline>  (221) 
J2VwaWtfcHl0aG9uJywgJy1waHQnLCAnMi4wJywgJy1waCcsICc3LjAnLCAnLXRuJywgJzgnLCAnLW1hJywgJzIwMCcsICctaW1hZScsICc8aW5maWxlLm1hZT4nLCAnLW9tYWUnLCAnPG91dGZpbGUubWFlPic=

>  <r_lp_tautomer_probability>  (221) 
1

>  <r_epik_Ionization_Penalty>  (221) 
0.0114439

>  <r_epik_Ionization_Penalty_Charging>  (221) 
0

>  <r_epik_Ionization_Penalty_Neutral>  (221) 
0.0114439

>  <r_epik_State_Penalty>  (221) 
0.00872882

>  <r_epik_Charging_Adjusted_Penalty>  (221) 
0.00872882

>  <i_epik_Tot_Q>  (221) 
0

>  <i_epik_Tot_abs_Q>  (221) 
0

>  <s_lp_Force_Field>  (221) 
OPLS3e

>  <r_lp_Energy>  (221) 
59.7606

>  <b_lp_Chiralities_Consistent>  (221) 
1

>  <s_lp_Variant>  (221) 
73:0-1

>  <s_i_glide_gridfile>  (221) 
pfpi4k_grid

>  <i_i_glide_lignum>  (221) 
20

>  <i_i_glide_rotatable_bonds>  (221) 
3

>  <r_i_docking_score>  (221) 
-3.65652

>  <r_i_glide_ligand_efficiency>  (221) 
-0.146261

>  <r_i_glide_ligand_efficiency_sa>  (221) 
-0.427669

>  <r_i_glide_ligand_efficiency_ln>  (221) 
-0.866705

>  <r_i_glide_gscore>  (221) 
-3.65652

>  <r_i_glide_lipo>  (221) 
-0.0721656

>  <r_i_glide_hbond>  (221) 
-0.45449

>  <r_i_glide_metal>  (221) 
-0

>  <r_i_glide_rewards>  (221) 
-1.11529

>  <r_i_glide_evdw>  (221) 
-18.6706

>  <r_i_glide_ecoul>  (221) 
-7.20697

>  <r_i_glide_erotb>  (221) 
0

>  <r_i_glide_esite>  (221) 
0

>  <r_i_glide_emodel>  (221) 
-31.2022

>  <r_i_glide_energy>  (221) 
-25.8776

>  <r_i_glide_einternal>  (221) 
1.64875

>  <r_i_glide_intrahb_reward>  (221) 
-0

>  <i_i_glide_confnum>  (221) 
1

>  <i_i_glide_posenum>  (221) 
36

>  <r_i_glide_eff_state_penalty>  (221) 
0

>  <ligand_id>  (221) 
73

>  <original_smiles>  (221) 
CC(C)c1cc2c(cc1O)C1(C)c3cccc(O)c3C2(C)C2OC21C

>  <smiles>  (221) 
[H]Oc1c([H])c2c(c([H])c1C([H])(C([H])([H])[H])C([H])([H])[H])C1(C([H])([H])[H])c3c(O[H])c([H])c([H])c([H])c3C2(C([H])([H])[H])C2(C([H])([H])[H])OC12[H]

$$$$
73:0:1
     RDKit          3D

 49 53  0  0  1  0  0  0  0  0999 V2000
    4.0674   -3.4478   -2.5237 C   0  0  0  0  0  0  0  0  0  0  0  0
    4.4766   -2.5169   -1.3746 C   0  0  0  0  0  0  0  0  0  0  0  0
    5.9938   -2.2900   -1.3667 C   0  0  0  0  0  0  0  0  0  0  0  0
    3.9833   -3.0266   -0.0102 C   0  0  0  0  0  0  0  0  0  0  0  0
    4.2583   -4.3836    0.3242 C   0  0  0  0  0  0  0  0  0  0  0  0
    3.7473   -4.7551    1.5812 C   0  0  0  0  0  0  0  0  0  0  0  0
    3.0379   -3.8689    2.4466 C   0  0  0  0  0  0  0  0  0  0  0  0
    2.7671   -2.5212    2.1467 C   0  0  0  0  0  0  0  0  0  0  0  0
    3.2757   -2.1387    0.8736 C   0  0  0  0  0  0  0  0  0  0  0  0
    3.0555   -0.8450    0.4948 O   0  0  0  0  0  0  0  0  0  0  0  0
    2.6357   -4.5386    3.7792 C   0  0  1  0  0  0  0  0  0  0  0  0
    1.8332   -3.6111    4.7183 C   0  0  0  0  0  0  0  0  0  0  0  0
    1.8181   -5.7947    3.3950 C   0  0  0  0  0  0  0  0  0  0  0  0
    0.5130   -6.0844    3.8557 C   0  0  0  0  0  0  0  0  0  0  0  0
   -0.1260   -7.2625    3.4112 C   0  0  0  0  0  0  0  0  0  0  0  0
    0.5451   -8.1497    2.5427 C   0  0  0  0  0  0  0  0  0  0  0  0
    1.8571   -7.8830    2.1041 C   0  0  0  0  0  0  0  0  0  0  0  0
    2.4389   -8.7944    1.2792 O   0  0  0  0  0  0  0  0  0  0  0  0
    2.4916   -6.6841    2.5333 C   0  0  0  0  0  0  0  0  0  0  0  0
    3.9092   -6.1803    2.1795 C   0  0  1  0  0  0  0  0  0  0  0  0
    4.7261   -7.1051    1.2517 C   0  0  0  0  0  0  0  0  0  0  0  0
    4.6665   -5.9857    3.5018 C   0  0  2  0  0  0  0  0  0  0  0  0
    4.0782   -6.4029    4.7490 O   0  0  0  0  0  0  0  0  0  0  0  0
    3.9681   -5.0241    4.3892 C   0  0  2  0  0  0  0  0  0  0  0  0
    4.7453   -4.0461    5.2619 C   0  0  0  0  0  0  0  0  0  0  0  0
    2.9870   -3.6031   -2.5248 H   0  0  0  0  0  0  0  0  0  0  0  0
    4.5633   -4.4155   -2.4408 H   0  0  0  0  0  0  0  0  0  0  0  0
    4.3476   -3.0440   -3.4938 H   0  0  0  0  0  0  0  0  0  0  0  0
    4.0079   -1.5553   -1.5910 H   0  0  0  0  0  0  0  0  0  0  0  0
    6.2813   -1.5953   -0.5765 H   0  0  0  0  0  0  0  0  0  0  0  0
    6.3217   -1.8822   -2.3216 H   0  0  0  0  0  0  0  0  0  0  0  0
    6.5327   -3.2236   -1.2073 H   0  0  0  0  0  0  0  0  0  0  0  0
    4.8035   -5.0575   -0.3338 H   0  0  0  0  0  0  0  0  0  0  0  0
    2.2322   -1.8309    2.8012 H   0  0  0  0  0  0  0  0  0  0  0  0
    2.2485   -0.7646   -0.0222 H   0  0  0  0  0  0  0  0  0  0  0  0
    0.9125   -3.2985    4.2224 H   0  0  0  0  0  0  0  0  0  0  0  0
    2.3733   -2.6953    4.9713 H   0  0  0  0  0  0  0  0  0  0  0  0
    1.5472   -4.0955    5.6576 H   0  0  0  0  0  0  0  0  0  0  0  0
   -0.0175   -5.4250    4.5239 H   0  0  0  0  0  0  0  0  0  0  0  0
   -1.1322   -7.5033    3.7460 H   0  0  0  0  0  0  0  0  0  0  0  0
    0.0356   -9.0547    2.2217 H   0  0  0  0  0  0  0  0  0  0  0  0
    1.8702   -9.5228    1.0702 H   0  0  0  0  0  0  0  0  0  0  0  0
    4.2219   -7.2297    0.2878 H   0  0  0  0  0  0  0  0  0  0  0  0
    4.8765   -8.1033    1.6776 H   0  0  0  0  0  0  0  0  0  0  0  0
    5.7220   -6.6972    1.0387 H   0  0  0  0  0  0  0  0  0  0  0  0
    5.7567   -5.9153    3.4662 H   0  0  0  0  0  0  0  0  0  0  0  0
    4.9936   -3.1562    4.6842 H   0  0  0  0  0  0  0  0  0  0  0  0
    5.6816   -4.5042    5.5915 H   0  0  0  0  0  0  0  0  0  0  0  0
    4.1836   -3.7566    6.1529 H   0  0  0  0  0  0  0  0  0  0  0  0
  1  2  1  0
  1 26  1  0
  1 27  1  0
  1 28  1  0
  2  3  1  0
  2  4  1  0
  2 29  1  0
  3 30  1  0
  3 31  1  0
  3 32  1  0
  4  9  2  0
  4  5  1  0
  5  6  2  0
  5 33  1  0
  6 20  1  0
  6  7  1  0
  7  8  2  0
  7 11  1  0
  8  9  1  0
  8 34  1  0
  9 10  1  0
 10 35  1  0
 11 24  1  0
 11 12  1  1
 11 13  1  0
 12 36  1  0
 12 37  1  0
 12 38  1  0
 13 19  2  0
 13 14  1  0
 14 15  2  0
 14 39  1  0
 15 16  1  0
 15 40  1  0
 16 17  2  0
 16 41  1  0
 17 18  1  0
 17 19  1  0
 18 42  1  0
 19 20  1  0
 20 21  1  6
 20 22  1  0
 21 43  1  0
 21 44  1  0
 21 45  1  0
 22 24  1  0
 22 23  1  0
 22 46  1  6
 23 24  1  0
 24 25  1  1
 25 47  1  0
 25 48  1  0
 25 49  1  0
M  END
>  <i_m_ct_stereo_status>  (222) 
1

>  <s_m_source_file>  (222) 
/var/tmp/pbs.5076255.sched01/tmpi5tju4vo/80qzp1lgse.sdf

>  <i_m_source_file_index>  (222) 
20

>  <i_lp_mmshare_version>  (222) 
48012

>  <i_f3d_flags>  (222) 
0

>  <s_epik_input>  (222) 
W0NIM11bQ0hdKFtDSDNdKWMoYyhbY0hdMSlbT0hdKVtjSF1jKGMxW0NAQF0yM1tDSDNdKVtDQEBdKFtDSDNdKShbQ0BIXTRbQ0BAXTMoTzQpW0NIM10pYzVjMltjSF1bY0hdW2NIXWM1W09IXQ==

>  <s_epik_cmdline>  (222) 
J2VwaWtfcHl0aG9uJywgJy1waHQnLCAnMi4wJywgJy1waCcsICc3LjAnLCAnLXRuJywgJzgnLCAnLW1hJywgJzIwMCcsICctaW1hZScsICc8aW5maWxlLm1hZT4nLCAnLW9tYWUnLCAnPG91dGZpbGUubWFlPic=

>  <r_lp_tautomer_probability>  (222) 
1

>  <r_epik_Ionization_Penalty>  (222) 
0.0114439

>  <r_epik_Ionization_Penalty_Charging>  (222) 
0

>  <r_epik_Ionization_Penalty_Neutral>  (222) 
0.0114439

>  <r_epik_State_Penalty>  (222) 
0.00872882

>  <r_epik_Charging_Adjusted_Penalty>  (222) 
0.00872882

>  <i_epik_Tot_Q>  (222) 
0

>  <i_epik_Tot_abs_Q>  (222) 
0

>  <s_lp_Force_Field>  (222) 
OPLS3e

>  <r_lp_Energy>  (222) 
59.7606

>  <b_lp_Chiralities_Consistent>  (222) 
1

>  <s_lp_Variant>  (222) 
73:0-1

>  <s_i_glide_gridfile>  (222) 
pfpi4k_grid

>  <i_i_glide_lignum>  (222) 
20

>  <i_i_glide_rotatable_bonds>  (222) 
3

>  <r_i_docking_score>  (222) 
-3.3074

>  <r_i_glide_ligand_efficiency>  (222) 
-0.132296

>  <r_i_glide_ligand_efficiency_sa>  (222) 
-0.386835

>  <r_i_glide_ligand_efficiency_ln>  (222) 
-0.783952

>  <r_i_glide_gscore>  (222) 
-3.3074

>  <r_i_glide_lipo>  (222) 
-0.144805

>  <r_i_glide_hbond>  (222) 
-0.218625

>  <r_i_glide_metal>  (222) 
-0

>  <r_i_glide_rewards>  (222) 
-1.11529

>  <r_i_glide_evdw>  (222) 
-19.7749

>  <r_i_glide_ecoul>  (222) 
-5.59953

>  <r_i_glide_erotb>  (222) 
0

>  <r_i_glide_esite>  (222) 
0

>  <r_i_glide_emodel>  (222) 
-29.6165

>  <r_i_glide_energy>  (222) 
-25.3745

>  <r_i_glide_einternal>  (222) 
3.47599

>  <r_i_glide_intrahb_reward>  (222) 
-0

>  <i_i_glide_confnum>  (222) 
2

>  <i_i_glide_posenum>  (222) 
29

>  <r_i_glide_eff_state_penalty>  (222) 
0

>  <ligand_id>  (222) 
73

>  <original_smiles>  (222) 
CC(C)c1cc2c(cc1O)C1(C)c3cccc(O)c3C2(C)C2OC21C

>  <smiles>  (222) 
[H]Oc1c([H])c2c(c([H])c1C([H])(C([H])([H])[H])C([H])([H])[H])C1(C([H])([H])[H])c3c(O[H])c([H])c([H])c([H])c3C2(C([H])([H])[H])C2(C([H])([H])[H])OC12[H]

$$$$
73:0:2
     RDKit          3D

 49 53  0  0  1  0  0  0  0  0999 V2000
   -0.4017    0.5455    2.4720 C   0  0  0  0  0  0  0  0  0  0  0  0
    0.3655    0.4030    3.7937 C   0  0  0  0  0  0  0  0  0  0  0  0
    1.7812    0.9902    3.6748 C   0  0  0  0  0  0  0  0  0  0  0  0
    0.3779   -1.0562    4.2920 C   0  0  0  0  0  0  0  0  0  0  0  0
    1.2111   -1.9734    3.5831 C   0  0  0  0  0  0  0  0  0  0  0  0
    1.1797   -3.2832    4.1019 C   0  0  0  0  0  0  0  0  0  0  0  0
    0.3939   -3.6643    5.2211 C   0  0  0  0  0  0  0  0  0  0  0  0
   -0.4369   -2.7807    5.9359 C   0  0  0  0  0  0  0  0  0  0  0  0
   -0.4185   -1.4576    5.4148 C   0  0  0  0  0  0  0  0  0  0  0  0
   -1.2315   -0.5593    6.0621 O   0  0  0  0  0  0  0  0  0  0  0  0
    0.5691   -5.1561    5.5923 C   0  0  1  0  0  0  0  0  0  0  0  0
   -0.3186   -5.5975    6.7784 C   0  0  0  0  0  0  0  0  0  0  0  0
    0.2445   -5.9601    4.3162 C   0  0  0  0  0  0  0  0  0  0  0  0
   -0.7303   -6.9846    4.2183 C   0  0  0  0  0  0  0  0  0  0  0  0
   -0.9367   -7.6252    2.9812 C   0  0  0  0  0  0  0  0  0  0  0  0
   -0.1736   -7.2599    1.8579 C   0  0  0  0  0  0  0  0  0  0  0  0
    0.8112   -6.2560    1.9508 C   0  0  0  0  0  0  0  0  0  0  0  0
    1.4758   -5.9376    0.8073 O   0  0  0  0  0  0  0  0  0  0  0  0
    1.0139   -5.5931    3.1969 C   0  0  0  0  0  0  0  0  0  0  0  0
    2.0114   -4.4590    3.5162 C   0  0  1  0  0  0  0  0  0  0  0  0
    2.9052   -4.0119    2.3379 C   0  0  0  0  0  0  0  0  0  0  0  0
    2.8947   -4.9514    4.6714 C   0  0  2  0  0  0  0  0  0  0  0  0
    2.7970   -6.3165    5.1292 O   0  0  0  0  0  0  0  0  0  0  0  0
    2.0793   -5.3148    5.8639 C   0  0  2  0  0  0  0  0  0  0  0  0
    2.5831   -5.0300    7.2712 C   0  0  0  0  0  0  0  0  0  0  0  0
   -1.4180    0.1686    2.5755 H   0  0  0  0  0  0  0  0  0  0  0  0
    0.0875   -0.0053    1.6677 H   0  0  0  0  0  0  0  0  0  0  0  0
   -0.4728    1.5849    2.1534 H   0  0  0  0  0  0  0  0  0  0  0  0
   -0.1520    1.0263    4.5229 H   0  0  0  0  0  0  0  0  0  0  0  0
    2.3128    0.9149    4.6229 H   0  0  0  0  0  0  0  0  0  0  0  0
    1.7460    2.0423    3.3930 H   0  0  0  0  0  0  0  0  0  0  0  0
    2.3756    0.4829    2.9161 H   0  0  0  0  0  0  0  0  0  0  0  0
    1.8088   -1.6789    2.7285 H   0  0  0  0  0  0  0  0  0  0  0  0
   -1.0378   -3.0640    6.7932 H   0  0  0  0  0  0  0  0  0  0  0  0
   -1.1621    0.3064    5.6829 H   0  0  0  0  0  0  0  0  0  0  0  0
   -1.3731   -5.4564    6.5278 H   0  0  0  0  0  0  0  0  0  0  0  0
   -0.1318   -5.0185    7.6880 H   0  0  0  0  0  0  0  0  0  0  0  0
   -0.1777   -6.6541    7.0278 H   0  0  0  0  0  0  0  0  0  0  0  0
   -1.3294   -7.2890    5.0622 H   0  0  0  0  0  0  0  0  0  0  0  0
   -1.6878   -8.4054    2.8885 H   0  0  0  0  0  0  0  0  0  0  0  0
   -0.3383   -7.7633    0.9104 H   0  0  0  0  0  0  0  0  0  0  0  0
    2.2621   -5.4298    0.9561 H   0  0  0  0  0  0  0  0  0  0  0  0
    2.2992   -3.6100    1.5196 H   0  0  0  0  0  0  0  0  0  0  0  0
    3.5292   -4.8229    1.9468 H   0  0  0  0  0  0  0  0  0  0  0  0
    3.5934   -3.2130    2.6353 H   0  0  0  0  0  0  0  0  0  0  0  0
    3.8380   -4.4369    4.8579 H   0  0  0  0  0  0  0  0  0  0  0  0
    2.3398   -4.0051    7.5513 H   0  0  0  0  0  0  0  0  0  0  0  0
    3.6685   -5.1390    7.3055 H   0  0  0  0  0  0  0  0  0  0  0  0
    2.1534   -5.7171    8.0026 H   0  0  0  0  0  0  0  0  0  0  0  0
  1  2  1  0
  1 26  1  0
  1 27  1  0
  1 28  1  0
  2  3  1  0
  2  4  1  0
  2 29  1  0
  3 30  1  0
  3 31  1  0
  3 32  1  0
  4  9  2  0
  4  5  1  0
  5  6  2  0
  5 33  1  0
  6 20  1  0
  6  7  1  0
  7  8  2  0
  7 11  1  0
  8  9  1  0
  8 34  1  0
  9 10  1  0
 10 35  1  0
 11 24  1  0
 11 12  1  1
 11 13  1  0
 12 36  1  0
 12 37  1  0
 12 38  1  0
 13 19  2  0
 13 14  1  0
 14 15  2  0
 14 39  1  0
 15 16  1  0
 15 40  1  0
 16 17  2  0
 16 41  1  0
 17 18  1  0
 17 19  1  0
 18 42  1  0
 19 20  1  0
 20 21  1  6
 20 22  1  0
 21 43  1  0
 21 44  1  0
 21 45  1  0
 22 24  1  0
 22 23  1  0
 22 46  1  1
 23 24  1  0
 24 25  1  1
 25 47  1  0
 25 48  1  0
 25 49  1  0
M  END
>  <i_m_ct_stereo_status>  (223) 
1

>  <s_m_source_file>  (223) 
/var/tmp/pbs.5076255.sched01/tmpi5tju4vo/80qzp1lgse.sdf

>  <i_m_source_file_index>  (223) 
20

>  <i_lp_mmshare_version>  (223) 
48012

>  <i_f3d_flags>  (223) 
0

>  <s_epik_input>  (223) 
W0NIM11bQ0hdKFtDSDNdKWMoYyhbY0hdMSlbT0hdKVtjSF1jKGMxW0NAQF0yM1tDSDNdKVtDQEBdKFtDSDNdKShbQ0BIXTRbQ0BAXTMoTzQpW0NIM10pYzVjMltjSF1bY0hdW2NIXWM1W09IXQ==

>  <s_epik_cmdline>  (223) 
J2VwaWtfcHl0aG9uJywgJy1waHQnLCAnMi4wJywgJy1waCcsICc3LjAnLCAnLXRuJywgJzgnLCAnLW1hJywgJzIwMCcsICctaW1hZScsICc8aW5maWxlLm1hZT4nLCAnLW9tYWUnLCAnPG91dGZpbGUubWFlPic=

>  <r_lp_tautomer_probability>  (223) 
1

>  <r_epik_Ionization_Penalty>  (223) 
0.0114439

>  <r_epik_Ionization_Penalty_Charging>  (223) 
0

>  <r_epik_Ionization_Penalty_Neutral>  (223) 
0.0114439

>  <r_epik_State_Penalty>  (223) 
0.00872882

>  <r_epik_Charging_Adjusted_Penalty>  (223) 
0.00872882

>  <i_epik_Tot_Q>  (223) 
0

>  <i_epik_Tot_abs_Q>  (223) 
0

>  <s_lp_Force_Field>  (223) 
OPLS3e

>  <r_lp_Energy>  (223) 
59.7606

>  <b_lp_Chiralities_Consistent>  (223) 
1

>  <s_lp_Variant>  (223) 
73:0-1

>  <s_i_glide_gridfile>  (223) 
pfpi4k_grid

>  <i_i_glide_lignum>  (223) 
20

>  <i_i_glide_rotatable_bonds>  (223) 
3

>  <r_i_docking_score>  (223) 
-3.06168

>  <r_i_glide_ligand_efficiency>  (223) 
-0.122467

>  <r_i_glide_ligand_efficiency_sa>  (223) 
-0.358097

>  <r_i_glide_ligand_efficiency_ln>  (223) 
-0.725711

>  <r_i_glide_gscore>  (223) 
-3.06168

>  <r_i_glide_lipo>  (223) 
-0.0893495

>  <r_i_glide_hbond>  (223) 
-0.216244

>  <r_i_glide_metal>  (223) 
-0

>  <r_i_glide_rewards>  (223) 
-1.11529

>  <r_i_glide_evdw>  (223) 
-20.4503

>  <r_i_glide_ecoul>  (223) 
-4.12191

>  <r_i_glide_erotb>  (223) 
0

>  <r_i_glide_esite>  (223) 
0

>  <r_i_glide_emodel>  (223) 
-30.0246

>  <r_i_glide_energy>  (223) 
-24.5722

>  <r_i_glide_einternal>  (223) 
0.279684

>  <r_i_glide_intrahb_reward>  (223) 
-0

>  <i_i_glide_confnum>  (223) 
1

>  <i_i_glide_posenum>  (223) 
2

>  <r_i_glide_eff_state_penalty>  (223) 
0

>  <ligand_id>  (223) 
73

>  <original_smiles>  (223) 
CC(C)c1cc2c(cc1O)C1(C)c3cccc(O)c3C2(C)C2OC21C

>  <smiles>  (223) 
[H]Oc1c([H])c2c(c([H])c1C([H])(C([H])([H])[H])C([H])([H])[H])C1(C([H])([H])[H])c3c(O[H])c([H])c([H])c([H])c3C2(C([H])([H])[H])C2(C([H])([H])[H])OC12[H]

$$$$
73:1:0
     RDKit          3D

 48 52  0  0  1  0  0  0  0  0999 V2000
   -1.9282   -8.6751    3.2331 C   0  0  0  0  0  0  0  0  0  0  0  0
   -0.5701   -8.5845    2.5154 C   0  0  0  0  0  0  0  0  0  0  0  0
    0.3112   -9.8093    2.8197 C   0  0  0  0  0  0  0  0  0  0  0  0
    0.1775   -7.2759    2.8152 C   0  0  0  0  0  0  0  0  0  0  0  0
    0.0962   -6.7424    4.1321 C   0  0  0  0  0  0  0  0  0  0  0  0
    0.7812   -5.5302    4.3025 C   0  0  0  0  0  0  0  0  0  0  0  0
    1.5360   -4.9017    3.2749 C   0  0  0  0  0  0  0  0  0  0  0  0
    1.6751   -5.4355    1.9853 C   0  0  0  0  0  0  0  0  0  0  0  0
    0.9208   -6.6199    1.7864 C   0  0  0  0  0  0  0  0  0  0  0  0
    0.8907   -7.0755    0.5041 O   0  0  0  0  0  0  0  0  0  0  0  0
    2.2044   -3.5853    3.7351 C   0  0  1  0  0  0  0  0  0  0  0  0
    2.9711   -2.8596    2.6060 C   0  0  0  0  0  0  0  0  0  0  0  0
    1.0849   -2.6941    4.3045 C   0  0  0  0  0  0  0  0  0  0  0  0
    0.7966   -1.3701    3.8912 C   0  0  0  0  0  0  0  0  0  0  0  0
   -0.2574   -0.6723    4.5028 C   0  0  0  0  0  0  0  0  0  0  0  0
   -1.0219   -1.2955    5.5164 C   0  0  0  0  0  0  0  0  0  0  0  0
   -0.7559   -2.6178    5.9226 C   0  0  0  0  0  0  0  0  0  0  0  0
   -1.5753   -3.1738    6.8687 O   0  0  0  0  0  0  0  0  0  0  0  0
    0.3229   -3.3192    5.3212 C   0  0  0  0  0  0  0  0  0  0  0  0
    0.8155   -4.7539    5.6388 C   0  0  1  0  0  0  0  0  0  0  0  0
    0.0524   -5.5122    6.7547 C   0  0  0  0  0  0  0  0  0  0  0  0
    2.2984   -4.6590    6.0072 C   0  0  2  0  0  0  0  0  0  0  0  0
    2.9322   -3.3751    6.1780 O   0  0  0  0  0  0  0  0  0  0  0  0
    3.0991   -4.0245    4.9133 C   0  0  2  0  0  0  0  0  0  0  0  0
    4.4981   -4.5231    4.5922 C   0  0  0  0  0  0  0  0  0  0  0  0
   -2.5477   -7.8102    2.9953 H   0  0  0  0  0  0  0  0  0  0  0  0
   -1.8221   -8.7329    4.3151 H   0  0  0  0  0  0  0  0  0  0  0  0
   -2.4718   -9.5716    2.9392 H   0  0  0  0  0  0  0  0  0  0  0  0
   -0.8172   -8.6003    1.4540 H   0  0  0  0  0  0  0  0  0  0  0  0
    1.2505   -9.7826    2.2674 H   0  0  0  0  0  0  0  0  0  0  0  0
   -0.1870  -10.7359    2.5419 H   0  0  0  0  0  0  0  0  0  0  0  0
    0.5488   -9.8737    3.8814 H   0  0  0  0  0  0  0  0  0  0  0  0
   -0.4542   -7.2176    4.9339 H   0  0  0  0  0  0  0  0  0  0  0  0
    2.2232   -4.9569    1.1811 H   0  0  0  0  0  0  0  0  0  0  0  0
    0.6220   -7.9873    0.4493 H   0  0  0  0  0  0  0  0  0  0  0  0
    2.2781   -2.5823    1.8083 H   0  0  0  0  0  0  0  0  0  0  0  0
    3.7468   -3.4816    2.1543 H   0  0  0  0  0  0  0  0  0  0  0  0
    3.4428   -1.9385    2.9601 H   0  0  0  0  0  0  0  0  0  0  0  0
    1.3574   -0.8802    3.1100 H   0  0  0  0  0  0  0  0  0  0  0  0
   -0.5063    0.3325    4.1873 H   0  0  0  0  0  0  0  0  0  0  0  0
   -1.8391   -0.7505    5.9651 H   0  0  0  0  0  0  0  0  0  0  0  0
   -1.0027   -5.6270    6.4950 H   0  0  0  0  0  0  0  0  0  0  0  0
    0.1023   -4.9931    7.7142 H   0  0  0  0  0  0  0  0  0  0  0  0
    0.4490   -6.5179    6.9144 H   0  0  0  0  0  0  0  0  0  0  0  0
    2.7482   -5.5081    6.5234 H   0  0  0  0  0  0  0  0  0  0  0  0
    4.4441   -5.3787    3.9171 H   0  0  0  0  0  0  0  0  0  0  0  0
    4.9980   -4.8479    5.5079 H   0  0  0  0  0  0  0  0  0  0  0  0
    5.1037   -3.7398    4.1351 H   0  0  0  0  0  0  0  0  0  0  0  0
  1  2  1  0
  1 26  1  0
  1 27  1  0
  1 28  1  0
  2  3  1  0
  2  4  1  0
  2 29  1  0
  3 30  1  0
  3 31  1  0
  3 32  1  0
  4  9  2  0
  4  5  1  0
  5  6  2  0
  5 33  1  0
  6 20  1  0
  6  7  1  0
  7  8  2  0
  7 11  1  0
  8  9  1  0
  8 34  1  0
  9 10  1  0
 10 35  1  0
 11 24  1  0
 11 12  1  6
 11 13  1  0
 12 36  1  0
 12 37  1  0
 12 38  1  0
 13 19  2  0
 13 14  1  0
 14 15  2  0
 14 39  1  0
 15 16  1  0
 15 40  1  0
 16 17  2  0
 16 41  1  0
 17 18  1  0
 17 19  1  0
 19 20  1  0
 20 21  1  1
 20 22  1  0
 21 42  1  0
 21 43  1  0
 21 44  1  0
 22 24  1  0
 22 23  1  0
 22 45  1  1
 23 24  1  0
 24 25  1  6
 25 46  1  0
 25 47  1  0
 25 48  1  0
M  CHG  1  18  -1
M  END
>  <i_m_ct_stereo_status>  (224) 
1

>  <s_m_source_file>  (224) 
/var/tmp/pbs.5076255.sched01/tmpi5tju4vo/80qzp1lgse.sdf

>  <i_m_source_file_index>  (224) 
21

>  <i_lp_mmshare_version>  (224) 
48012

>  <i_f3d_flags>  (224) 
0

>  <s_epik_input>  (224) 
W0NIM11bQ0hdKFtDSDNdKWMoYyhbY0hdMSlbT0hdKVtjSF1jKGMxW0NAQF0yM1tDSDNdKVtDQEBdKFtDSDNdKShbQ0BIXTRbQ0BAXTMoTzQpW0NIM10pYzVjMltjSF1bY0hdW2NIXWM1W09IXQ==

>  <s_epik_cmdline>  (224) 
J2VwaWtfcHl0aG9uJywgJy1waHQnLCAnMi4wJywgJy1waCcsICc3LjAnLCAnLXRuJywgJzgnLCAnLW1hJywgJzIwMCcsICctaW1hZScsICc8aW5maWxlLm1hZT4nLCAnLW9tYWUnLCAnPG91dGZpbGUubWFlPic=

>  <r_lp_tautomer_probability>  (224) 
1

>  <r_epik_Ionization_Penalty>  (224) 
2.34918

>  <r_epik_Ionization_Penalty_Charging>  (224) 
2.34909

>  <r_epik_Ionization_Penalty_Neutral>  (224) 
9.54098e-05

>  <r_epik_State_Penalty>  (224) 
2.50328

>  <r_epik_Charging_Adjusted_Penalty>  (224) 
4.85237

>  <i_epik_Tot_Q>  (224) 
-1

>  <i_epik_Tot_abs_Q>  (224) 
1

>  <s_lp_Force_Field>  (224) 
OPLS3e

>  <r_lp_Energy>  (224) 
62.2303

>  <b_lp_Chiralities_Consistent>  (224) 
1

>  <s_lp_Variant>  (224) 
73:0-2

>  <s_i_glide_gridfile>  (224) 
pfpi4k_grid

>  <i_i_glide_lignum>  (224) 
21

>  <i_i_glide_rotatable_bonds>  (224) 
2

>  <r_i_docking_score>  (224) 
-3.07939

>  <r_i_glide_ligand_efficiency>  (224) 
-0.123175

>  <r_i_glide_ligand_efficiency_sa>  (224) 
-0.360167

>  <r_i_glide_ligand_efficiency_ln>  (224) 
-0.729907

>  <r_i_glide_gscore>  (224) 
-3.07939

>  <r_i_glide_lipo>  (224) 
-0.0193319

>  <r_i_glide_hbond>  (224) 
-0.345337

>  <r_i_glide_metal>  (224) 
-0

>  <r_i_glide_rewards>  (224) 
-1.12216

>  <r_i_glide_evdw>  (224) 
-17.9525

>  <r_i_glide_ecoul>  (224) 
-4.63287

>  <r_i_glide_erotb>  (224) 
0

>  <r_i_glide_esite>  (224) 
0

>  <r_i_glide_emodel>  (224) 
-29.601

>  <r_i_glide_energy>  (224) 
-22.5854

>  <r_i_glide_einternal>  (224) 
0.72534

>  <r_i_glide_intrahb_reward>  (224) 
-0

>  <i_i_glide_confnum>  (224) 
1

>  <i_i_glide_posenum>  (224) 
26

>  <r_i_glide_eff_state_penalty>  (224) 
0

>  <ligand_id>  (224) 
73

>  <original_smiles>  (224) 
CC(C)c1cc2c(cc1O)C1(C)c3cccc(O)c3C2(C)C2OC21C

>  <smiles>  (224) 
[H]Oc1c([H])c2c(c([H])c1C([H])(C([H])([H])[H])C([H])([H])[H])C1(C([H])([H])[H])c3c([O-])c([H])c([H])c([H])c3C2(C([H])([H])[H])C2(C([H])([H])[H])OC12[H]

$$$$
73:1:1
     RDKit          3D

 48 52  0  0  1  0  0  0  0  0999 V2000
    0.0630   -9.7091    3.3363 C   0  0  0  0  0  0  0  0  0  0  0  0
   -0.7815   -8.4211    3.3835 C   0  0  0  0  0  0  0  0  0  0  0  0
   -1.8328   -8.3871    2.2653 C   0  0  0  0  0  0  0  0  0  0  0  0
    0.0654   -7.1399    3.4258 C   0  0  0  0  0  0  0  0  0  0  0  0
   -0.1252   -6.2753    4.5436 C   0  0  0  0  0  0  0  0  0  0  0  0
    0.6759   -5.1167    4.5327 C   0  0  0  0  0  0  0  0  0  0  0  0
    1.6102   -4.8299    3.4967 C   0  0  0  0  0  0  0  0  0  0  0  0
    1.8152   -5.6688    2.3909 C   0  0  0  0  0  0  0  0  0  0  0  0
    0.9975   -6.8272    2.3859 C   0  0  0  0  0  0  0  0  0  0  0  0
    1.1459   -7.6383    1.2988 O   0  0  0  0  0  0  0  0  0  0  0  0
    2.3897   -3.5127    3.7294 C   0  0  1  0  0  0  0  0  0  0  0  0
    3.3702   -3.1767    2.5724 C   0  0  0  0  0  0  0  0  0  0  0  0
    1.3274   -2.4046    3.9074 C   0  0  0  0  0  0  0  0  0  0  0  0
    1.2618   -1.2141    3.1416 C   0  0  0  0  0  0  0  0  0  0  0  0
    0.2441   -0.2826    3.4091 C   0  0  0  0  0  0  0  0  0  0  0  0
   -0.7099   -0.5472    4.4197 C   0  0  0  0  0  0  0  0  0  0  0  0
   -0.6781   -1.7420    5.1658 C   0  0  0  0  0  0  0  0  0  0  0  0
   -1.6848   -1.9426    6.0582 O   0  0  0  0  0  0  0  0  0  0  0  0
    0.3735   -2.6739    4.9202 C   0  0  0  0  0  0  0  0  0  0  0  0
    0.6494   -4.0219    5.6386 C   0  0  1  0  0  0  0  0  0  0  0  0
   -0.3225   -4.3895    6.7865 C   0  0  0  0  0  0  0  0  0  0  0  0
    2.0884   -3.9673    6.1859 C   0  0  2  0  0  0  0  0  0  0  0  0
    2.8509   -2.7453    6.1285 O   0  0  0  0  0  0  0  0  0  0  0  0
    3.0885   -3.7108    5.0946 C   0  0  2  0  0  0  0  0  0  0  0  0
    4.4458   -4.3957    5.1136 C   0  0  0  0  0  0  0  0  0  0  0  0
    0.7764   -9.7338    4.1593 H   0  0  0  0  0  0  0  0  0  0  0  0
    0.6185   -9.8315    2.4083 H   0  0  0  0  0  0  0  0  0  0  0  0
   -0.5722  -10.5891    3.4274 H   0  0  0  0  0  0  0  0  0  0  0  0
   -1.3433   -8.4683    4.3183 H   0  0  0  0  0  0  0  0  0  0  0  0
   -2.4509   -7.4943    2.3474 H   0  0  0  0  0  0  0  0  0  0  0  0
   -2.4964   -9.2505    2.3187 H   0  0  0  0  0  0  0  0  0  0  0  0
   -1.3753   -8.3969    1.2789 H   0  0  0  0  0  0  0  0  0  0  0  0
   -0.8367   -6.5017    5.3324 H   0  0  0  0  0  0  0  0  0  0  0  0
    2.5251   -5.4702    1.5952 H   0  0  0  0  0  0  0  0  0  0  0  0
    0.6550   -8.4476    1.3566 H   0  0  0  0  0  0  0  0  0  0  0  0
    2.8178   -3.0575    1.6397 H   0  0  0  0  0  0  0  0  0  0  0  0
    4.1090   -3.9594    2.4053 H   0  0  0  0  0  0  0  0  0  0  0  0
    3.9089   -2.2433    2.7485 H   0  0  0  0  0  0  0  0  0  0  0  0
    1.9588   -1.0031    2.3413 H   0  0  0  0  0  0  0  0  0  0  0  0
    0.1571    0.6220    2.8081 H   0  0  0  0  0  0  0  0  0  0  0  0
   -1.5036    0.1651    4.5892 H   0  0  0  0  0  0  0  0  0  0  0  0
   -1.3481   -4.4738    6.4250 H   0  0  0  0  0  0  0  0  0  0  0  0
   -0.3176   -3.6430    7.5845 H   0  0  0  0  0  0  0  0  0  0  0  0
   -0.0699   -5.3475    7.2430 H   0  0  0  0  0  0  0  0  0  0  0  0
    2.3750   -4.6835    6.9562 H   0  0  0  0  0  0  0  0  0  0  0  0
    4.3663   -5.3900    4.6710 H   0  0  0  0  0  0  0  0  0  0  0  0
    4.7965   -4.5153    6.1409 H   0  0  0  0  0  0  0  0  0  0  0  0
    5.1962   -3.8210    4.5682 H   0  0  0  0  0  0  0  0  0  0  0  0
  1  2  1  0
  1 26  1  0
  1 27  1  0
  1 28  1  0
  2  3  1  0
  2  4  1  0
  2 29  1  0
  3 30  1  0
  3 31  1  0
  3 32  1  0
  4  9  2  0
  4  5  1  0
  5  6  2  0
  5 33  1  0
  6 20  1  0
  6  7  1  0
  7  8  2  0
  7 11  1  0
  8  9  1  0
  8 34  1  0
  9 10  1  0
 10 35  1  0
 11 24  1  0
 11 12  1  6
 11 13  1  0
 12 36  1  0
 12 37  1  0
 12 38  1  0
 13 19  2  0
 13 14  1  0
 14 15  2  0
 14 39  1  0
 15 16  1  0
 15 40  1  0
 16 17  2  0
 16 41  1  0
 17 18  1  0
 17 19  1  0
 19 20  1  0
 20 21  1  1
 20 22  1  0
 21 42  1  0
 21 43  1  0
 21 44  1  0
 22 24  1  0
 22 23  1  0
 22 45  1  1
 23 24  1  0
 24 25  1  6
 25 46  1  0
 25 47  1  0
 25 48  1  0
M  CHG  1  18  -1
M  END
>  <i_m_ct_stereo_status>  (225) 
1

>  <s_m_source_file>  (225) 
/var/tmp/pbs.5076255.sched01/tmpi5tju4vo/80qzp1lgse.sdf

>  <i_m_source_file_index>  (225) 
21

>  <i_lp_mmshare_version>  (225) 
48012

>  <i_f3d_flags>  (225) 
0

>  <s_epik_input>  (225) 
W0NIM11bQ0hdKFtDSDNdKWMoYyhbY0hdMSlbT0hdKVtjSF1jKGMxW0NAQF0yM1tDSDNdKVtDQEBdKFtDSDNdKShbQ0BIXTRbQ0BAXTMoTzQpW0NIM10pYzVjMltjSF1bY0hdW2NIXWM1W09IXQ==

>  <s_epik_cmdline>  (225) 
J2VwaWtfcHl0aG9uJywgJy1waHQnLCAnMi4wJywgJy1waCcsICc3LjAnLCAnLXRuJywgJzgnLCAnLW1hJywgJzIwMCcsICctaW1hZScsICc8aW5maWxlLm1hZT4nLCAnLW9tYWUnLCAnPG91dGZpbGUubWFlPic=

>  <r_lp_tautomer_probability>  (225) 
1

>  <r_epik_Ionization_Penalty>  (225) 
2.34918

>  <r_epik_Ionization_Penalty_Charging>  (225) 
2.34909

>  <r_epik_Ionization_Penalty_Neutral>  (225) 
9.54098e-05

>  <r_epik_State_Penalty>  (225) 
2.50328

>  <r_epik_Charging_Adjusted_Penalty>  (225) 
4.85237

>  <i_epik_Tot_Q>  (225) 
-1

>  <i_epik_Tot_abs_Q>  (225) 
1

>  <s_lp_Force_Field>  (225) 
OPLS3e

>  <r_lp_Energy>  (225) 
62.2303

>  <b_lp_Chiralities_Consistent>  (225) 
1

>  <s_lp_Variant>  (225) 
73:0-2

>  <s_i_glide_gridfile>  (225) 
pfpi4k_grid

>  <i_i_glide_lignum>  (225) 
21

>  <i_i_glide_rotatable_bonds>  (225) 
2

>  <r_i_docking_score>  (225) 
-2.77076

>  <r_i_glide_ligand_efficiency>  (225) 
-0.110831

>  <r_i_glide_ligand_efficiency_sa>  (225) 
-0.324071

>  <r_i_glide_ligand_efficiency_ln>  (225) 
-0.656754

>  <r_i_glide_gscore>  (225) 
-2.77076

>  <r_i_glide_lipo>  (225) 
-0.229647

>  <r_i_glide_hbond>  (225) 
-0.085773

>  <r_i_glide_metal>  (225) 
-0

>  <r_i_glide_rewards>  (225) 
-1.12216

>  <r_i_glide_evdw>  (225) 
-20.1179

>  <r_i_glide_ecoul>  (225) 
-2.18192

>  <r_i_glide_erotb>  (225) 
0

>  <r_i_glide_esite>  (225) 
0

>  <r_i_glide_emodel>  (225) 
-29.099

>  <r_i_glide_energy>  (225) 
-22.2998

>  <r_i_glide_einternal>  (225) 
0.443882

>  <r_i_glide_intrahb_reward>  (225) 
-0

>  <i_i_glide_confnum>  (225) 
1

>  <i_i_glide_posenum>  (225) 
5

>  <r_i_glide_eff_state_penalty>  (225) 
0

>  <ligand_id>  (225) 
73

>  <original_smiles>  (225) 
CC(C)c1cc2c(cc1O)C1(C)c3cccc(O)c3C2(C)C2OC21C

>  <smiles>  (225) 
[H]Oc1c([H])c2c(c([H])c1C([H])(C([H])([H])[H])C([H])([H])[H])C1(C([H])([H])[H])c3c([O-])c([H])c([H])c([H])c3C2(C([H])([H])[H])C2(C([H])([H])[H])OC12[H]

$$$$
73:1:2
     RDKit          3D

 48 52  0  0  1  0  0  0  0  0999 V2000
    3.3529   -2.4355   -1.4555 C   0  0  0  0  0  0  0  0  0  0  0  0
    3.5644   -1.6148   -0.1703 C   0  0  0  0  0  0  0  0  0  0  0  0
    5.0370   -1.2155    0.0017 C   0  0  0  0  0  0  0  0  0  0  0  0
    3.0263   -2.3378    1.0703 C   0  0  0  0  0  0  0  0  0  0  0  0
    3.4925   -3.6581    1.3175 C   0  0  0  0  0  0  0  0  0  0  0  0
    2.9534   -4.2744    2.4589 C   0  0  0  0  0  0  0  0  0  0  0  0
    2.0195   -3.6267    3.3210 C   0  0  0  0  0  0  0  0  0  0  0  0
    1.5578   -2.3175    3.1055 C   0  0  0  0  0  0  0  0  0  0  0  0
    2.0831   -1.6972    1.9483 C   0  0  0  0  0  0  0  0  0  0  0  0
    1.6209   -0.4378    1.6769 O   0  0  0  0  0  0  0  0  0  0  0  0
    1.5944   -4.5129    4.5143 C   0  0  1  0  0  0  0  0  0  0  0  0
    0.5384   -3.8316    5.4235 C   0  0  0  0  0  0  0  0  0  0  0  0
    1.0644   -5.8295    3.9128 C   0  0  0  0  0  0  0  0  0  0  0  0
   -0.2034   -6.3915    4.1798 C   0  0  0  0  0  0  0  0  0  0  0  0
   -0.5697   -7.5952    3.5582 C   0  0  0  0  0  0  0  0  0  0  0  0
    0.3299   -8.2474    2.6993 C   0  0  0  0  0  0  0  0  0  0  0  0
    1.6071   -7.7044    2.4474 C   0  0  0  0  0  0  0  0  0  0  0  0
    2.4234   -8.4185    1.6240 O   0  0  0  0  0  0  0  0  0  0  0  0
    1.9813   -6.4755    3.0541 C   0  0  0  0  0  0  0  0  0  0  0  0
    3.3211   -5.7090    2.9240 C   0  0  1  0  0  0  0  0  0  0  0  0
    4.3889   -6.3559    2.0092 C   0  0  0  0  0  0  0  0  0  0  0  0
    3.8891   -5.5410    4.3426 C   0  0  2  0  0  0  0  0  0  0  0  0
    3.2679   -6.1943    5.4739 O   0  0  0  0  0  0  0  0  0  0  0  0
    2.9195   -4.8235    5.2452 C   0  0  2  0  0  0  0  0  0  0  0  0
    3.4298   -3.8250    6.2769 C   0  0  0  0  0  0  0  0  0  0  0  0
    2.3004   -2.6904   -1.5854 H   0  0  0  0  0  0  0  0  0  0  0  0
    3.9183   -3.3671   -1.4474 H   0  0  0  0  0  0  0  0  0  0  0  0
    3.6630   -1.8784   -2.3377 H   0  0  0  0  0  0  0  0  0  0  0  0
    3.0134   -0.6853   -0.3122 H   0  0  0  0  0  0  0  0  0  0  0  0
    5.1765   -0.6026    0.8923 H   0  0  0  0  0  0  0  0  0  0  0  0
    5.3875   -0.6362   -0.8502 H   0  0  0  0  0  0  0  0  0  0  0  0
    5.6788   -2.0907    0.0943 H   0  0  0  0  0  0  0  0  0  0  0  0
    4.2052   -4.1385    0.6645 H   0  0  0  0  0  0  0  0  0  0  0  0
    0.8335   -1.8167    3.7447 H   0  0  0  0  0  0  0  0  0  0  0  0
    1.4160   -0.3415    0.7384 H   0  0  0  0  0  0  0  0  0  0  0  0
   -0.3659   -3.6220    4.8498 H   0  0  0  0  0  0  0  0  0  0  0  0
    0.8789   -2.8724    5.8287 H   0  0  0  0  0  0  0  0  0  0  0  0
    0.2496   -4.4624    6.2681 H   0  0  0  0  0  0  0  0  0  0  0  0
   -0.9088   -5.9110    4.8394 H   0  0  0  0  0  0  0  0  0  0  0  0
   -1.5352   -8.0297    3.7422 H   0  0  0  0  0  0  0  0  0  0  0  0
    0.0482   -9.1804    2.2336 H   0  0  0  0  0  0  0  0  0  0  0  0
    4.0134   -6.4547    0.9895 H   0  0  0  0  0  0  0  0  0  0  0  0
    4.6764   -7.3497    2.3560 H   0  0  0  0  0  0  0  0  0  0  0  0
    5.3008   -5.7565    1.9648 H   0  0  0  0  0  0  0  0  0  0  0  0
    4.9436   -5.2828    4.4453 H   0  0  0  0  0  0  0  0  0  0  0  0
    3.5669   -2.8461    5.8142 H   0  0  0  0  0  0  0  0  0  0  0  0
    4.3971   -4.1459    6.6744 H   0  0  0  0  0  0  0  0  0  0  0  0
    2.7392   -3.7305    7.1170 H   0  0  0  0  0  0  0  0  0  0  0  0
  1  2  1  0
  1 26  1  0
  1 27  1  0
  1 28  1  0
  2  3  1  0
  2  4  1  0
  2 29  1  0
  3 30  1  0
  3 31  1  0
  3 32  1  0
  4  9  2  0
  4  5  1  0
  5  6  2  0
  5 33  1  0
  6 20  1  0
  6  7  1  0
  7  8  2  0
  7 11  1  0
  8  9  1  0
  8 34  1  0
  9 10  1  0
 10 35  1  0
 11 24  1  0
 11 12  1  1
 11 13  1  0
 12 36  1  0
 12 37  1  0
 12 38  1  0
 13 19  2  0
 13 14  1  0
 14 15  2  0
 14 39  1  0
 15 16  1  0
 15 40  1  0
 16 17  2  0
 16 41  1  0
 17 18  1  0
 17 19  1  0
 19 20  1  0
 20 21  1  6
 20 22  1  0
 21 42  1  0
 21 43  1  0
 21 44  1  0
 22 24  1  0
 22 23  1  0
 22 45  1  6
 23 24  1  0
 24 25  1  1
 25 46  1  0
 25 47  1  0
 25 48  1  0
M  CHG  1  18  -1
M  END
>  <i_m_ct_stereo_status>  (226) 
1

>  <s_m_source_file>  (226) 
/var/tmp/pbs.5076255.sched01/tmpi5tju4vo/80qzp1lgse.sdf

>  <i_m_source_file_index>  (226) 
21

>  <i_lp_mmshare_version>  (226) 
48012

>  <i_f3d_flags>  (226) 
0

>  <s_epik_input>  (226) 
W0NIM11bQ0hdKFtDSDNdKWMoYyhbY0hdMSlbT0hdKVtjSF1jKGMxW0NAQF0yM1tDSDNdKVtDQEBdKFtDSDNdKShbQ0BIXTRbQ0BAXTMoTzQpW0NIM10pYzVjMltjSF1bY0hdW2NIXWM1W09IXQ==

>  <s_epik_cmdline>  (226) 
J2VwaWtfcHl0aG9uJywgJy1waHQnLCAnMi4wJywgJy1waCcsICc3LjAnLCAnLXRuJywgJzgnLCAnLW1hJywgJzIwMCcsICctaW1hZScsICc8aW5maWxlLm1hZT4nLCAnLW9tYWUnLCAnPG91dGZpbGUubWFlPic=

>  <r_lp_tautomer_probability>  (226) 
1

>  <r_epik_Ionization_Penalty>  (226) 
2.34918

>  <r_epik_Ionization_Penalty_Charging>  (226) 
2.34909

>  <r_epik_Ionization_Penalty_Neutral>  (226) 
9.54098e-05

>  <r_epik_State_Penalty>  (226) 
2.50328

>  <r_epik_Charging_Adjusted_Penalty>  (226) 
4.85237

>  <i_epik_Tot_Q>  (226) 
-1

>  <i_epik_Tot_abs_Q>  (226) 
1

>  <s_lp_Force_Field>  (226) 
OPLS3e

>  <r_lp_Energy>  (226) 
62.2303

>  <b_lp_Chiralities_Consistent>  (226) 
1

>  <s_lp_Variant>  (226) 
73:0-2

>  <s_i_glide_gridfile>  (226) 
pfpi4k_grid

>  <i_i_glide_lignum>  (226) 
21

>  <i_i_glide_rotatable_bonds>  (226) 
2

>  <r_i_docking_score>  (226) 
-2.56794

>  <r_i_glide_ligand_efficiency>  (226) 
-0.102718

>  <r_i_glide_ligand_efficiency_sa>  (226) 
-0.300349

>  <r_i_glide_ligand_efficiency_ln>  (226) 
-0.60868

>  <r_i_glide_gscore>  (226) 
-2.56794

>  <r_i_glide_lipo>  (226) 
-0.0548033

>  <r_i_glide_hbond>  (226) 
-0.16

>  <r_i_glide_metal>  (226) 
-0

>  <r_i_glide_rewards>  (226) 
-1.12216

>  <r_i_glide_evdw>  (226) 
-17.8452

>  <r_i_glide_ecoul>  (226) 
-2.25814

>  <r_i_glide_erotb>  (226) 
0

>  <r_i_glide_esite>  (226) 
0

>  <r_i_glide_emodel>  (226) 
-25.0689

>  <r_i_glide_energy>  (226) 
-20.1033

>  <r_i_glide_einternal>  (226) 
1.66804

>  <r_i_glide_intrahb_reward>  (226) 
-0

>  <i_i_glide_confnum>  (226) 
1

>  <i_i_glide_posenum>  (226) 
14

>  <r_i_glide_eff_state_penalty>  (226) 
0

>  <ligand_id>  (226) 
73

>  <original_smiles>  (226) 
CC(C)c1cc2c(cc1O)C1(C)c3cccc(O)c3C2(C)C2OC21C

>  <smiles>  (226) 
[H]Oc1c([H])c2c(c([H])c1C([H])(C([H])([H])[H])C([H])([H])[H])C1(C([H])([H])[H])c3c([O-])c([H])c([H])c([H])c3C2(C([H])([H])[H])C2(C([H])([H])[H])OC12[H]

$$$$
74:0:0
     RDKit          3D

 44 46  0  0  1  0  0  0  0  0999 V2000
    6.6285  -11.5107    2.1619 C   0  0  0  0  0  0  0  0  0  0  0  0
    6.1558  -10.0684    2.0704 C   0  0  0  0  0  0  0  0  0  0  0  0
    6.8000   -9.1718    2.6111 O   0  0  0  0  0  0  0  0  0  0  0  0
    5.0225   -9.8508    1.3941 N   0  0  0  0  0  0  0  0  0  0  0  0
    4.3826   -8.5648    1.2325 C   0  0  0  0  0  0  0  0  0  0  0  0
    3.7453   -8.0314    2.5433 C   0  0  2  0  0  0  0  0  0  0  0  0
    2.6066   -8.8694    2.8812 O   0  0  0  0  0  0  0  0  0  0  0  0
    1.4383   -8.1711    3.2215 C   0  0  2  0  0  0  0  0  0  0  0  0
    0.3100   -8.9125    3.4747 O   0  0  0  0  0  0  0  0  0  0  0  0
   -0.7706   -8.0795    3.1235 C   0  0  0  0  0  0  0  0  0  0  0  0
   -1.7831   -8.8916    2.3034 C   0  0  0  0  0  0  0  0  0  0  0  0
   -1.4230   -7.5374    4.4044 C   0  0  0  0  0  0  0  0  0  0  0  0
   -0.3144   -6.9860    2.3582 O   0  0  0  0  0  0  0  0  0  0  0  0
    0.9794   -7.4129    1.9986 C   0  0  1  0  0  0  0  0  0  0  0  0
    2.0776   -6.4403    1.5283 C   0  0  1  0  0  0  0  0  0  0  0  0
    1.9140   -5.0472    1.5356 O   0  0  0  0  0  0  0  0  0  0  0  0
    3.2374   -4.5740    1.4325 C   0  0  0  0  0  0  0  0  0  0  0  0
    3.5179   -4.1131   -0.0067 C   0  0  0  0  0  0  0  0  0  0  0  0
    3.4292   -3.4286    2.4342 C   0  0  0  0  0  0  0  0  0  0  0  0
    4.1307   -5.6061    1.7554 O   0  0  0  0  0  0  0  0  0  0  0  0
    3.3097   -6.5477    2.4088 C   0  0  2  0  0  0  0  0  0  0  0  0
    5.9284  -12.1991    1.6814 H   0  0  0  0  0  0  0  0  0  0  0  0
    6.7246  -11.8044    3.2071 H   0  0  0  0  0  0  0  0  0  0  0  0
    7.5949  -11.6201    1.6795 H   0  0  0  0  0  0  0  0  0  0  0  0
    4.5869  -10.6833    0.9583 H   0  0  0  0  0  0  0  0  0  0  0  0
    5.0987   -7.8491    0.8256 H   0  0  0  0  0  0  0  0  0  0  0  0
    3.6152   -8.6991    0.4797 H   0  0  0  0  0  0  0  0  0  0  0  0
    4.4569   -8.0770    3.3661 H   0  0  0  0  0  0  0  0  0  0  0  0
    1.5963   -7.5427    4.1028 H   0  0  0  0  0  0  0  0  0  0  0  0
   -1.3571   -9.2442    1.3717 H   0  0  0  0  0  0  0  0  0  0  0  0
   -2.6320   -8.2556    2.0683 H   0  0  0  0  0  0  0  0  0  0  0  0
   -2.1336   -9.7489    2.8796 H   0  0  0  0  0  0  0  0  0  0  0  0
   -0.7235   -6.9281    4.9717 H   0  0  0  0  0  0  0  0  0  0  0  0
   -1.7474   -8.3811    5.0161 H   0  0  0  0  0  0  0  0  0  0  0  0
   -2.2955   -6.9355    4.1537 H   0  0  0  0  0  0  0  0  0  0  0  0
    0.8609   -8.1570    1.2085 H   0  0  0  0  0  0  0  0  0  0  0  0
    2.3305   -6.7144    0.5033 H   0  0  0  0  0  0  0  0  0  0  0  0
    3.3628   -4.9311   -0.7010 H   0  0  0  0  0  0  0  0  0  0  0  0
    4.5491   -3.7669   -0.0960 H   0  0  0  0  0  0  0  0  0  0  0  0
    2.8525   -3.2919   -0.2708 H   0  0  0  0  0  0  0  0  0  0  0  0
    3.1900   -3.7577    3.4432 H   0  0  0  0  0  0  0  0  0  0  0  0
    2.7840   -2.5951    2.1623 H   0  0  0  0  0  0  0  0  0  0  0  0
    4.4676   -3.0968    2.4085 H   0  0  0  0  0  0  0  0  0  0  0  0
    3.1164   -6.1534    3.4118 H   0  0  0  0  0  0  0  0  0  0  0  0
  1  2  1  0
  1 22  1  0
  1 23  1  0
  1 24  1  0
  2  3  2  0
  2  4  1  0
  4  5  1  0
  4 25  1  0
  5  6  1  0
  5 26  1  0
  5 27  1  0
  6 21  1  0
  6  7  1  0
  6 28  1  1
  7  8  1  0
  8 14  1  0
  8  9  1  0
  8 29  1  1
  9 10  1  0
 10 11  1  0
 10 12  1  0
 10 13  1  0
 11 30  1  0
 11 31  1  0
 11 32  1  0
 12 33  1  0
 12 34  1  0
 12 35  1  0
 13 14  1  0
 14 15  1  0
 14 36  1  6
 15 21  1  0
 15 16  1  0
 15 37  1  6
 16 17  1  0
 17 18  1  0
 17 19  1  0
 17 20  1  0
 18 38  1  0
 18 39  1  0
 18 40  1  0
 19 41  1  0
 19 42  1  0
 19 43  1  0
 20 21  1  0
 21 44  1  1
M  END
>  <i_m_ct_stereo_status>  (227) 
1

>  <s_m_source_file>  (227) 
/var/tmp/pbs.5076255.sched01/tmpi5tju4vo/80qzp1lgse.sdf

>  <i_m_source_file_index>  (227) 
22

>  <i_lp_mmshare_version>  (227) 
48012

>  <i_f3d_flags>  (227) 
0

>  <s_epik_input>  (227) 
W0NIM11DKD1PKVtOSF1bQ0gyXVtDQEhdKE8xKVtDQEBIXShPQyhPMikoW0NIM10pW0NIM10pW0NASF0yW0NAQEhdKFtDQEhdMTMpT0MoTzMpKFtDSDNdKVtDSDNd

>  <s_epik_cmdline>  (227) 
J2VwaWtfcHl0aG9uJywgJy1waHQnLCAnMi4wJywgJy1waCcsICc3LjAnLCAnLXRuJywgJzgnLCAnLW1hJywgJzIwMCcsICctaW1hZScsICc8aW5maWxlLm1hZT4nLCAnLW9tYWUnLCAnPG91dGZpbGUubWFlPic=

>  <r_lp_tautomer_probability>  (227) 
1

>  <r_epik_Ionization_Penalty>  (227) 
1.77345e-07

>  <r_epik_Ionization_Penalty_Charging>  (227) 
0

>  <r_epik_Ionization_Penalty_Neutral>  (227) 
1.77345e-07

>  <r_epik_State_Penalty>  (227) 
-0

>  <r_epik_Charging_Adjusted_Penalty>  (227) 
0

>  <i_epik_Tot_Q>  (227) 
0

>  <i_epik_Tot_abs_Q>  (227) 
0

>  <s_epik_Chemistry_Notes>  (227) 
This compound contains an acetal/aminal-like group ( X-CH(R)-Y where X, Y are N, S, or O) that may be acid/base labile, releasing an aldehyde.

>  <s_lp_Force_Field>  (227) 
OPLS3e

>  <r_lp_Energy>  (227) 
24.9637

>  <b_lp_Chiralities_Consistent>  (227) 
1

>  <s_lp_Variant>  (227) 
74:0-1

>  <s_i_glide_gridfile>  (227) 
pfpi4k_grid

>  <i_i_glide_lignum>  (227) 
22

>  <i_i_glide_rotatable_bonds>  (227) 
3

>  <r_i_docking_score>  (227) 
-3.39955

>  <r_i_glide_ligand_efficiency>  (227) 
-0.161883

>  <r_i_glide_ligand_efficiency_sa>  (227) 
-0.446624

>  <r_i_glide_ligand_efficiency_ln>  (227) 
-0.840531

>  <r_i_glide_gscore>  (227) 
-3.39955

>  <r_i_glide_lipo>  (227) 
-0.253193

>  <r_i_glide_hbond>  (227) 
-0.317997

>  <r_i_glide_metal>  (227) 
-0

>  <r_i_glide_rewards>  (227) 
-1.35884

>  <r_i_glide_evdw>  (227) 
-18.8367

>  <r_i_glide_ecoul>  (227) 
-4.85392

>  <r_i_glide_erotb>  (227) 
0.405171

>  <r_i_glide_esite>  (227) 
-0.204764

>  <r_i_glide_emodel>  (227) 
-29.3272

>  <r_i_glide_energy>  (227) 
-23.6906

>  <r_i_glide_einternal>  (227) 
0.247251

>  <r_i_glide_intrahb_reward>  (227) 
-0

>  <i_i_glide_confnum>  (227) 
4

>  <i_i_glide_posenum>  (227) 
14

>  <r_i_glide_eff_state_penalty>  (227) 
0

>  <ligand_id>  (227) 
74

>  <original_smiles>  (227) 
CC(=O)NCC1OC2OC(C)(C)OC2C2OC(C)(C)OC12

>  <smiles>  (227) 
[H]N(C(=O)C([H])([H])[H])C([H])([H])C1([H])OC2([H])OC(C([H])([H])[H])(C([H])([H])[H])OC2([H])C2([H])OC(C([H])([H])[H])(C([H])([H])[H])OC12[H]

$$$$
74:0:1
     RDKit          3D

 44 46  0  0  1  0  0  0  0  0999 V2000
    1.1059   -9.6884   10.4741 C   0  0  0  0  0  0  0  0  0  0  0  0
    0.8536   -8.9146    9.1843 C   0  0  0  0  0  0  0  0  0  0  0  0
    0.2458   -7.8450    9.2382 O   0  0  0  0  0  0  0  0  0  0  0  0
    1.2941   -9.4587    8.0454 N   0  0  0  0  0  0  0  0  0  0  0  0
    1.1297   -8.8205    6.7508 C   0  0  0  0  0  0  0  0  0  0  0  0
    1.5399   -9.7364    5.5792 C   0  0  2  0  0  0  0  0  0  0  0  0
    2.9798   -9.6234    5.3926 O   0  0  0  0  0  0  0  0  0  0  0  0
    3.3893   -9.4016    4.0657 C   0  0  2  0  0  0  0  0  0  0  0  0
    4.7307   -9.1814    3.8442 O   0  0  0  0  0  0  0  0  0  0  0  0
    4.7908   -8.3757    2.6885 C   0  0  0  0  0  0  0  0  0  0  0  0
    5.7848   -7.2289    2.9341 C   0  0  0  0  0  0  0  0  0  0  0  0
    5.2185   -9.2361    1.4886 C   0  0  0  0  0  0  0  0  0  0  0  0
    3.5227   -7.8314    2.4166 O   0  0  0  0  0  0  0  0  0  0  0  0
    2.8388   -8.0644    3.6194 C   0  0  1  0  0  0  0  0  0  0  0  0
    1.3043   -8.0538    3.7213 C   0  0  1  0  0  0  0  0  0  0  0  0
    0.4507   -7.9056    2.6109 O   0  0  0  0  0  0  0  0  0  0  0  0
   -0.7783   -8.3635    3.1130 C   0  0  0  0  0  0  0  0  0  0  0  0
   -1.6883   -7.1691    3.3933 C   0  0  0  0  0  0  0  0  0  0  0  0
   -1.4098   -9.3174    2.0957 C   0  0  0  0  0  0  0  0  0  0  0  0
   -0.5752   -9.0453    4.3084 O   0  0  0  0  0  0  0  0  0  0  0  0
    0.7915   -9.3707    4.2719 C   0  0  2  0  0  0  0  0  0  0  0  0
    1.5780  -10.6499   10.2697 H   0  0  0  0  0  0  0  0  0  0  0  0
    0.1687   -9.8687   10.9996 H   0  0  0  0  0  0  0  0  0  0  0  0
    1.7587   -9.1126   11.1300 H   0  0  0  0  0  0  0  0  0  0  0  0
    1.6698  -10.4062    8.0535 H   0  0  0  0  0  0  0  0  0  0  0  0
    0.0842   -8.5270    6.6717 H   0  0  0  0  0  0  0  0  0  0  0  0
    1.7066   -7.8964    6.7296 H   0  0  0  0  0  0  0  0  0  0  0  0
    1.2914  -10.7729    5.8093 H   0  0  0  0  0  0  0  0  0  0  0  0
    3.0985  -10.2363    3.4229 H   0  0  0  0  0  0  0  0  0  0  0  0
    5.4614   -6.6086    3.7680 H   0  0  0  0  0  0  0  0  0  0  0  0
    5.8608   -6.6033    2.0436 H   0  0  0  0  0  0  0  0  0  0  0  0
    6.7739   -7.6346    3.1563 H   0  0  0  0  0  0  0  0  0  0  0  0
    4.4807  -10.0118    1.2949 H   0  0  0  0  0  0  0  0  0  0  0  0
    6.1812   -9.7068    1.6920 H   0  0  0  0  0  0  0  0  0  0  0  0
    5.3145   -8.6190    0.5965 H   0  0  0  0  0  0  0  0  0  0  0  0
    3.2003   -7.3253    4.3392 H   0  0  0  0  0  0  0  0  0  0  0  0
    1.0524   -7.2564    4.4229 H   0  0  0  0  0  0  0  0  0  0  0  0
   -1.2352   -6.4855    4.1083 H   0  0  0  0  0  0  0  0  0  0  0  0
   -2.6413   -7.5163    3.7852 H   0  0  0  0  0  0  0  0  0  0  0  0
   -1.8807   -6.6597    2.4543 H   0  0  0  0  0  0  0  0  0  0  0  0
   -0.7511  -10.1547    1.8729 H   0  0  0  0  0  0  0  0  0  0  0  0
   -1.6087   -8.7639    1.1886 H   0  0  0  0  0  0  0  0  0  0  0  0
   -2.3487   -9.7106    2.4833 H   0  0  0  0  0  0  0  0  0  0  0  0
    0.9190  -10.1838    3.5520 H   0  0  0  0  0  0  0  0  0  0  0  0
  1  2  1  0
  1 22  1  0
  1 23  1  0
  1 24  1  0
  2  3  2  0
  2  4  1  0
  4  5  1  0
  4 25  1  0
  5  6  1  0
  5 26  1  0
  5 27  1  0
  6 21  1  0
  6  7  1  0
  6 28  1  1
  7  8  1  0
  8 14  1  0
  8  9  1  0
  8 29  1  6
  9 10  1  0
 10 11  1  0
 10 12  1  0
 10 13  1  0
 11 30  1  0
 11 31  1  0
 11 32  1  0
 12 33  1  0
 12 34  1  0
 12 35  1  0
 13 14  1  0
 14 15  1  0
 14 36  1  1
 15 21  1  0
 15 16  1  0
 15 37  1  1
 16 17  1  0
 17 18  1  0
 17 19  1  0
 17 20  1  0
 18 38  1  0
 18 39  1  0
 18 40  1  0
 19 41  1  0
 19 42  1  0
 19 43  1  0
 20 21  1  0
 21 44  1  6
M  END
>  <i_m_ct_stereo_status>  (228) 
1

>  <s_m_source_file>  (228) 
/var/tmp/pbs.5076255.sched01/tmpi5tju4vo/80qzp1lgse.sdf

>  <i_m_source_file_index>  (228) 
22

>  <i_lp_mmshare_version>  (228) 
48012

>  <i_f3d_flags>  (228) 
0

>  <s_epik_input>  (228) 
W0NIM11DKD1PKVtOSF1bQ0gyXVtDQEhdKE8xKVtDQEBIXShPQyhPMikoW0NIM10pW0NIM10pW0NASF0yW0NAQEhdKFtDQEhdMTMpT0MoTzMpKFtDSDNdKVtDSDNd

>  <s_epik_cmdline>  (228) 
J2VwaWtfcHl0aG9uJywgJy1waHQnLCAnMi4wJywgJy1waCcsICc3LjAnLCAnLXRuJywgJzgnLCAnLW1hJywgJzIwMCcsICctaW1hZScsICc8aW5maWxlLm1hZT4nLCAnLW9tYWUnLCAnPG91dGZpbGUubWFlPic=

>  <r_lp_tautomer_probability>  (228) 
1

>  <r_epik_Ionization_Penalty>  (228) 
1.77345e-07

>  <r_epik_Ionization_Penalty_Charging>  (228) 
0

>  <r_epik_Ionization_Penalty_Neutral>  (228) 
1.77345e-07

>  <r_epik_State_Penalty>  (228) 
-0

>  <r_epik_Charging_Adjusted_Penalty>  (228) 
0

>  <i_epik_Tot_Q>  (228) 
0

>  <i_epik_Tot_abs_Q>  (228) 
0

>  <s_epik_Chemistry_Notes>  (228) 
This compound contains an acetal/aminal-like group ( X-CH(R)-Y where X, Y are N, S, or O) that may be acid/base labile, releasing an aldehyde.

>  <s_lp_Force_Field>  (228) 
OPLS3e

>  <r_lp_Energy>  (228) 
24.9637

>  <b_lp_Chiralities_Consistent>  (228) 
1

>  <s_lp_Variant>  (228) 
74:0-1

>  <s_i_glide_gridfile>  (228) 
pfpi4k_grid

>  <i_i_glide_lignum>  (228) 
22

>  <i_i_glide_rotatable_bonds>  (228) 
3

>  <r_i_docking_score>  (228) 
-3.1588

>  <r_i_glide_ligand_efficiency>  (228) 
-0.150419

>  <r_i_glide_ligand_efficiency_sa>  (228) 
-0.414995

>  <r_i_glide_ligand_efficiency_ln>  (228) 
-0.781007

>  <r_i_glide_gscore>  (228) 
-3.1588

>  <r_i_glide_lipo>  (228) 
-0.212269

>  <r_i_glide_hbond>  (228) 
-0.319276

>  <r_i_glide_metal>  (228) 
-0

>  <r_i_glide_rewards>  (228) 
-1.35453

>  <r_i_glide_evdw>  (228) 
-17.3144

>  <r_i_glide_ecoul>  (228) 
-4.08721

>  <r_i_glide_erotb>  (228) 
0.405171

>  <r_i_glide_esite>  (228) 
-0.199093

>  <r_i_glide_emodel>  (228) 
-25.787

>  <r_i_glide_energy>  (228) 
-21.4016

>  <r_i_glide_einternal>  (228) 
1.72721

>  <r_i_glide_intrahb_reward>  (228) 
-0

>  <i_i_glide_confnum>  (228) 
4

>  <i_i_glide_posenum>  (228) 
29

>  <r_i_glide_eff_state_penalty>  (228) 
0

>  <ligand_id>  (228) 
74

>  <original_smiles>  (228) 
CC(=O)NCC1OC2OC(C)(C)OC2C2OC(C)(C)OC12

>  <smiles>  (228) 
[H]N(C(=O)C([H])([H])[H])C([H])([H])C1([H])OC2([H])OC(C([H])([H])[H])(C([H])([H])[H])OC2([H])C2([H])OC(C([H])([H])[H])(C([H])([H])[H])OC12[H]

$$$$
74:0:2
     RDKit          3D

 44 46  0  0  1  0  0  0  0  0999 V2000
    6.6136  -11.8092    2.5234 C   0  0  0  0  0  0  0  0  0  0  0  0
    5.6970  -10.6917    3.0072 C   0  0  0  0  0  0  0  0  0  0  0  0
    6.1124   -9.9009    3.8486 O   0  0  0  0  0  0  0  0  0  0  0  0
    4.4677  -10.6468    2.4890 N   0  0  0  0  0  0  0  0  0  0  0  0
    3.4190   -9.7256    2.8936 C   0  0  0  0  0  0  0  0  0  0  0  0
    2.8140   -8.9564    1.6981 C   0  0  2  0  0  0  0  0  0  0  0  0
    3.7928   -7.9866    1.2265 O   0  0  0  0  0  0  0  0  0  0  0  0
    3.3077   -6.6766    1.0646 C   0  0  2  0  0  0  0  0  0  0  0  0
    4.2083   -5.7014    0.7040 O   0  0  0  0  0  0  0  0  0  0  0  0
    3.6785   -4.5024    1.2197 C   0  0  0  0  0  0  0  0  0  0  0  0
    4.8056   -3.7344    1.9333 C   0  0  0  0  0  0  0  0  0  0  0  0
    3.0712   -3.6788    0.0680 C   0  0  0  0  0  0  0  0  0  0  0  0
    2.6585   -4.7908    2.1456 O   0  0  0  0  0  0  0  0  0  0  0  0
    2.8715   -6.1540    2.4107 C   0  0  1  0  0  0  0  0  0  0  0  0
    1.7720   -7.0600    3.0031 C   0  0  1  0  0  0  0  0  0  0  0  0
    0.4480   -6.6316    3.2345 O   0  0  0  0  0  0  0  0  0  0  0  0
   -0.2410   -7.8466    3.3983 C   0  0  0  0  0  0  0  0  0  0  0  0
   -0.4900   -8.1095    4.8906 C   0  0  0  0  0  0  0  0  0  0  0  0
   -1.5554   -7.7540    2.6209 C   0  0  0  0  0  0  0  0  0  0  0  0
    0.5167   -8.8986    2.8714 O   0  0  0  0  0  0  0  0  0  0  0  0
    1.4888   -8.2426    2.0887 C   0  0  2  0  0  0  0  0  0  0  0  0
    6.1023  -12.4754    1.8245 H   0  0  0  0  0  0  0  0  0  0  0  0
    6.9557  -12.4031    3.3722 H   0  0  0  0  0  0  0  0  0  0  0  0
    7.4815  -11.3835    2.0272 H   0  0  0  0  0  0  0  0  0  0  0  0
    4.2285  -11.3207    1.7522 H   0  0  0  0  0  0  0  0  0  0  0  0
    2.6616  -10.3234    3.3957 H   0  0  0  0  0  0  0  0  0  0  0  0
    3.7830   -9.0200    3.6357 H   0  0  0  0  0  0  0  0  0  0  0  0
    2.5949   -9.6504    0.8861 H   0  0  0  0  0  0  0  0  0  0  0  0
    2.5103   -6.6373    0.3208 H   0  0  0  0  0  0  0  0  0  0  0  0
    5.2108   -4.3158    2.7591 H   0  0  0  0  0  0  0  0  0  0  0  0
    4.4259   -2.7893    2.3271 H   0  0  0  0  0  0  0  0  0  0  0  0
    5.6099   -3.5127    1.2297 H   0  0  0  0  0  0  0  0  0  0  0  0
    2.2465   -4.2129   -0.3991 H   0  0  0  0  0  0  0  0  0  0  0  0
    3.8336   -3.4813   -0.6882 H   0  0  0  0  0  0  0  0  0  0  0  0
    2.7016   -2.7230    0.4409 H   0  0  0  0  0  0  0  0  0  0  0  0
    3.7396   -6.2285    3.0699 H   0  0  0  0  0  0  0  0  0  0  0  0
    2.1568   -7.4188    3.9600 H   0  0  0  0  0  0  0  0  0  0  0  0
    0.4385   -8.1575    5.4563 H   0  0  0  0  0  0  0  0  0  0  0  0
   -1.0234   -9.0544    5.0216 H   0  0  0  0  0  0  0  0  0  0  0  0
   -1.1047   -7.3036    5.2799 H   0  0  0  0  0  0  0  0  0  0  0  0
   -1.3390   -7.5281    1.5817 H   0  0  0  0  0  0  0  0  0  0  0  0
   -2.1876   -6.9789    3.0462 H   0  0  0  0  0  0  0  0  0  0  0  0
   -2.0834   -8.7076    2.6695 H   0  0  0  0  0  0  0  0  0  0  0  0
    0.9922   -7.9151    1.1717 H   0  0  0  0  0  0  0  0  0  0  0  0
  1  2  1  0
  1 22  1  0
  1 23  1  0
  1 24  1  0
  2  3  2  0
  2  4  1  0
  4  5  1  0
  4 25  1  0
  5  6  1  0
  5 26  1  0
  5 27  1  0
  6 21  1  0
  6  7  1  0
  6 28  1  6
  7  8  1  0
  8 14  1  0
  8  9  1  0
  8 29  1  6
  9 10  1  0
 10 11  1  0
 10 12  1  0
 10 13  1  0
 11 30  1  0
 11 31  1  0
 11 32  1  0
 12 33  1  0
 12 34  1  0
 12 35  1  0
 13 14  1  0
 14 15  1  0
 14 36  1  1
 15 21  1  0
 15 16  1  0
 15 37  1  1
 16 17  1  0
 17 18  1  0
 17 19  1  0
 17 20  1  0
 18 38  1  0
 18 39  1  0
 18 40  1  0
 19 41  1  0
 19 42  1  0
 19 43  1  0
 20 21  1  0
 21 44  1  6
M  END
>  <i_m_ct_stereo_status>  (229) 
1

>  <s_m_source_file>  (229) 
/var/tmp/pbs.5076255.sched01/tmpi5tju4vo/80qzp1lgse.sdf

>  <i_m_source_file_index>  (229) 
22

>  <i_lp_mmshare_version>  (229) 
48012

>  <i_f3d_flags>  (229) 
0

>  <s_epik_input>  (229) 
W0NIM11DKD1PKVtOSF1bQ0gyXVtDQEhdKE8xKVtDQEBIXShPQyhPMikoW0NIM10pW0NIM10pW0NASF0yW0NAQEhdKFtDQEhdMTMpT0MoTzMpKFtDSDNdKVtDSDNd

>  <s_epik_cmdline>  (229) 
J2VwaWtfcHl0aG9uJywgJy1waHQnLCAnMi4wJywgJy1waCcsICc3LjAnLCAnLXRuJywgJzgnLCAnLW1hJywgJzIwMCcsICctaW1hZScsICc8aW5maWxlLm1hZT4nLCAnLW9tYWUnLCAnPG91dGZpbGUubWFlPic=

>  <r_lp_tautomer_probability>  (229) 
1

>  <r_epik_Ionization_Penalty>  (229) 
1.77345e-07

>  <r_epik_Ionization_Penalty_Charging>  (229) 
0

>  <r_epik_Ionization_Penalty_Neutral>  (229) 
1.77345e-07

>  <r_epik_State_Penalty>  (229) 
-0

>  <r_epik_Charging_Adjusted_Penalty>  (229) 
0

>  <i_epik_Tot_Q>  (229) 
0

>  <i_epik_Tot_abs_Q>  (229) 
0

>  <s_epik_Chemistry_Notes>  (229) 
This compound contains an acetal/aminal-like group ( X-CH(R)-Y where X, Y are N, S, or O) that may be acid/base labile, releasing an aldehyde.

>  <s_lp_Force_Field>  (229) 
OPLS3e

>  <r_lp_Energy>  (229) 
24.9637

>  <b_lp_Chiralities_Consistent>  (229) 
1

>  <s_lp_Variant>  (229) 
74:0-1

>  <s_i_glide_gridfile>  (229) 
pfpi4k_grid

>  <i_i_glide_lignum>  (229) 
22

>  <i_i_glide_rotatable_bonds>  (229) 
3

>  <r_i_docking_score>  (229) 
-2.79409

>  <r_i_glide_ligand_efficiency>  (229) 
-0.133052

>  <r_i_glide_ligand_efficiency_sa>  (229) 
-0.36708

>  <r_i_glide_ligand_efficiency_ln>  (229) 
-0.690833

>  <r_i_glide_gscore>  (229) 
-2.79409

>  <r_i_glide_lipo>  (229) 
-0.0282385

>  <r_i_glide_hbond>  (229) 
-0.16

>  <r_i_glide_metal>  (229) 
-0

>  <r_i_glide_rewards>  (229) 
-1.42452

>  <r_i_glide_evdw>  (229) 
-17.6637

>  <r_i_glide_ecoul>  (229) 
-3.50074

>  <r_i_glide_erotb>  (229) 
0.405171

>  <r_i_glide_esite>  (229) 
-0.178206

>  <r_i_glide_emodel>  (229) 
-25.6287

>  <r_i_glide_energy>  (229) 
-21.1644

>  <r_i_glide_einternal>  (229) 
0.57276

>  <r_i_glide_intrahb_reward>  (229) 
-0

>  <i_i_glide_confnum>  (229) 
4

>  <i_i_glide_posenum>  (229) 
23

>  <r_i_glide_eff_state_penalty>  (229) 
0

>  <ligand_id>  (229) 
74

>  <original_smiles>  (229) 
CC(=O)NCC1OC2OC(C)(C)OC2C2OC(C)(C)OC12

>  <smiles>  (229) 
[H]N(C(=O)C([H])([H])[H])C([H])([H])C1([H])OC2([H])OC(C([H])([H])[H])(C([H])([H])[H])OC2([H])C2([H])OC(C([H])([H])[H])(C([H])([H])[H])OC12[H]

$$$$
76:0:0
     RDKit          3D

 75 80  0  0  1  0  0  0  0  0999 V2000
    2.9911   -2.2380    5.9684 C   0  0  0  0  0  0  0  0  0  0  0  0
    2.9018   -3.2744    5.1198 C   0  0  0  0  0  0  0  0  0  0  0  0
    1.5451   -3.8209    4.6965 C   0  0  0  0  0  0  0  0  0  0  0  0
    1.5060   -4.3021    3.2348 C   0  0  0  0  0  0  0  0  0  0  0  0
    2.6527   -5.2777    2.8786 C   0  0  1  0  0  0  0  0  0  0  0  0
    2.5886   -6.5834    3.7661 C   0  0  0  0  0  0  0  0  0  0  0  0
    2.6426   -6.4401    5.1806 O   0  0  0  0  0  0  0  0  0  0  0  0
    2.5394   -5.8088    1.3953 C   0  0  1  0  0  0  0  0  0  0  0  0
    1.2014   -6.2638    1.1437 O   0  0  0  0  0  0  0  0  0  0  0  0
    0.8649   -7.5437    1.3677 C   0  0  0  0  0  0  0  0  0  0  0  0
   -0.6369   -7.8009    1.2973 C   0  0  0  0  0  0  0  0  0  0  0  0
    1.6555   -8.4454    1.6409 O   0  0  0  0  0  0  0  0  0  0  0  0
    3.0435   -4.9343    0.2113 C   0  0  1  0  0  0  0  0  0  0  0  0
    2.0736   -3.9671   -0.0605 O   0  0  0  0  0  0  0  0  0  0  0  0
    4.4373   -4.2588    0.4566 C   0  0  1  0  0  0  0  0  0  0  0  0
    5.4493   -5.4446    0.5109 C   0  0  0  0  0  0  0  0  0  0  0  0
    4.9251   -3.3695   -0.7720 C   0  0  1  0  0  0  0  0  0  0  0  0
    5.1643   -4.1100   -2.1196 C   0  0  0  0  0  0  0  0  0  0  0  0
    4.5960   -3.2882   -3.2841 C   0  0  1  0  0  0  0  0  0  0  0  0
    3.2947   -3.7153   -3.6408 O   0  0  0  0  0  0  0  0  0  0  0  0
    4.5756   -1.8819   -2.7011 C   0  0  1  0  0  0  0  0  0  0  0  0
    3.7022   -0.8835   -3.4831 C   0  0  0  0  0  0  0  0  0  0  0  0
    4.1189   -2.1366   -1.2521 C   0  0  2  0  0  0  0  0  0  0  0  0
    4.2514   -0.9561   -0.3325 C   0  0  1  0  0  0  0  0  0  0  0  0
    3.0921   -0.5793    0.5953 C   0  0  2  0  0  0  0  0  0  0  0  0
    4.0667    0.1415    1.3279 O   0  0  0  0  0  0  0  0  0  0  0  0
    4.8154   -1.0702    1.0774 C   0  0  2  0  0  0  0  0  0  0  0  0
    6.2844   -0.8857    1.3772 C   0  0  0  0  0  0  0  0  0  0  0  0
    4.0260   -2.0098    1.9328 C   0  0  1  0  0  0  0  0  0  0  0  0
    4.1066   -1.4219    3.2052 O   0  0  0  0  0  0  0  0  0  0  0  0
    2.7862   -1.7377    1.3600 O   0  0  0  0  0  0  0  0  0  0  0  0
    4.4825   -3.5340    1.8915 C   0  0  1  0  0  0  0  0  0  0  0  0
    3.9839   -4.4810    3.0795 C   0  0  1  0  0  0  0  0  0  0  0  0
    4.1335   -4.0105    4.5649 C   0  0  1  0  0  0  0  0  0  0  0  0
    5.5142   -3.4515    4.9451 C   0  0  0  0  0  0  0  0  0  0  0  0
    3.9421   -1.8486    6.2995 H   0  0  0  0  0  0  0  0  0  0  0  0
    2.0967   -1.7800    6.3608 H   0  0  0  0  0  0  0  0  0  0  0  0
    1.3081   -4.6670    5.3454 H   0  0  0  0  0  0  0  0  0  0  0  0
    0.8009   -3.0313    4.8320 H   0  0  0  0  0  0  0  0  0  0  0  0
    0.5406   -4.7539    3.0159 H   0  0  0  0  0  0  0  0  0  0  0  0
    1.5626   -3.4262    2.5944 H   0  0  0  0  0  0  0  0  0  0  0  0
    1.6238   -7.0849    3.6244 H   0  0  0  0  0  0  0  0  0  0  0  0
    3.3586   -7.2742    3.3931 H   0  0  0  0  0  0  0  0  0  0  0  0
    3.4937   -6.0788    5.4784 H   0  0  0  0  0  0  0  0  0  0  0  0
    3.1849   -6.6826    1.3385 H   0  0  0  0  0  0  0  0  0  0  0  0
   -0.9583   -7.6558    0.2692 H   0  0  0  0  0  0  0  0  0  0  0  0
   -1.1816   -7.1276    1.9618 H   0  0  0  0  0  0  0  0  0  0  0  0
   -0.9002   -8.8277    1.5766 H   0  0  0  0  0  0  0  0  0  0  0  0
    3.0900   -5.5519   -0.7053 H   0  0  0  0  0  0  0  0  0  0  0  0
    2.4271   -3.3945   -0.7095 H   0  0  0  0  0  0  0  0  0  0  0  0
    6.4567   -5.0872    0.6765 H   0  0  0  0  0  0  0  0  0  0  0  0
    5.4337   -6.0449   -0.3932 H   0  0  0  0  0  0  0  0  0  0  0  0
    5.2149   -6.1594    1.2834 H   0  0  0  0  0  0  0  0  0  0  0  0
    5.9209   -3.0149   -0.4976 H   0  0  0  0  0  0  0  0  0  0  0  0
    6.2358   -4.2342   -2.2692 H   0  0  0  0  0  0  0  0  0  0  0  0
    4.7821   -5.1173   -2.1252 H   0  0  0  0  0  0  0  0  0  0  0  0
    5.2263   -3.4161   -4.1535 H   0  0  0  0  0  0  0  0  0  0  0  0
    3.1013   -4.5376   -3.1951 H   0  0  0  0  0  0  0  0  0  0  0  0
    5.6006   -1.5129   -2.6809 H   0  0  0  0  0  0  0  0  0  0  0  0
    2.6464   -1.1670   -3.4587 H   0  0  0  0  0  0  0  0  0  0  0  0
    4.0046   -0.8361   -4.5307 H   0  0  0  0  0  0  0  0  0  0  0  0
    3.7747    0.1218   -3.0656 H   0  0  0  0  0  0  0  0  0  0  0  0
    3.0641   -2.3355   -1.3683 H   0  0  0  0  0  0  0  0  0  0  0  0
    4.6324   -0.0609   -0.8494 H   0  0  0  0  0  0  0  0  0  0  0  0
    2.2928    0.0321    0.1976 H   0  0  0  0  0  0  0  0  0  0  0  0
    6.8503   -1.7776    1.1460 H   0  0  0  0  0  0  0  0  0  0  0  0
    6.4191   -0.6138    2.4146 H   0  0  0  0  0  0  0  0  0  0  0  0
    6.5885   -0.0555    0.7448 H   0  0  0  0  0  0  0  0  0  0  0  0
    3.8310   -0.5303    3.0635 H   0  0  0  0  0  0  0  0  0  0  0  0
    5.5610   -3.4506    2.0751 H   0  0  0  0  0  0  0  0  0  0  0  0
    4.7416   -5.2615    3.0663 H   0  0  0  0  0  0  0  0  0  0  0  0
    4.1747   -4.9221    5.1378 H   0  0  0  0  0  0  0  0  0  0  0  0
    5.6648   -3.4690    6.0252 H   0  0  0  0  0  0  0  0  0  0  0  0
    5.7629   -2.4444    4.6031 H   0  0  0  0  0  0  0  0  0  0  0  0
    6.2104   -4.1429    4.4882 H   0  0  0  0  0  0  0  0  0  0  0  0
  1  2  2  0
  1 36  1  0
  1 37  1  0
  2 34  1  0
  2  3  1  0
  3  4  1  0
  3 38  1  0
  3 39  1  0
  4  5  1  0
  4 40  1  0
  4 41  1  0
  5 33  1  0
  5  6  1  1
  5  8  1  0
  6  7  1  0
  6 42  1  0
  6 43  1  0
  7 44  1  0
  8  9  1  0
  8 13  1  0
  8 45  1  1
  9 10  1  0
 10 11  1  0
 10 12  2  0
 11 46  1  0
 11 47  1  0
 11 48  1  0
 13 14  1  0
 13 15  1  0
 13 49  1  6
 14 50  1  0
 15 32  1  0
 15 16  1  1
 15 17  1  0
 16 51  1  0
 16 52  1  0
 16 53  1  0
 17 23  1  0
 17 18  1  0
 17 54  1  1
 18 19  1  0
 18 55  1  0
 18 56  1  0
 19 20  1  0
 19 21  1  0
 19 57  1  6
 20 58  1  0
 21 22  1  0
 21 23  1  0
 21 59  1  1
 22 60  1  0
 22 61  1  0
 22 62  1  0
 23 24  1  0
 23 63  1  6
 24 27  1  0
 24 25  1  0
 24 64  1  6
 25 31  1  0
 25 26  1  0
 25 65  1  6
 26 27  1  0
 27 28  1  6
 27 29  1  0
 28 66  1  0
 28 67  1  0
 28 68  1  0
 29 30  1  1
 29 31  1  0
 29 32  1  0
 30 69  1  0
 32 33  1  0
 32 70  1  1
 33 34  1  0
 33 71  1  1
 34 35  1  0
 34 72  1  1
 35 73  1  0
 35 74  1  0
 35 75  1  0
M  END
>  <i_m_ct_stereo_status>  (230) 
1

>  <s_m_source_file>  (230) 
/var/tmp/pbs.5076255.sched01/tmpi5tju4vo/80qzp1lgse.sdf

>  <i_m_source_file_index>  (230) 
24

>  <i_lp_mmshare_version>  (230) 
48012

>  <i_f3d_flags>  (230) 
0

>  <s_epik_input>  (230) 
W0NIMl0xW0NIMl1DKD1bQ0gyXSlbQ0BIXShbQ0gzXSlbQ0BASF0oW0NAQF0xMltDSDJdW09IXSlbQ0BIXTNbQ0BAXShbQ0gzXSkoW0NASF0oW09IXSlbQ0BASF0yT0MoPU8pW0NIM10pW0NAQEhdNFtDQEhdKFtDQEhdKFtDSDNdKVtDQEBIXShbQ0gyXTQpW09IXSlbQ0BIXTVbQ0BASF02T1tDQEBdNShbQ0gzXSlbQ0BdMyhPNilbT0hd

>  <s_epik_cmdline>  (230) 
J2VwaWtfcHl0aG9uJywgJy1waHQnLCAnMi4wJywgJy1waCcsICc3LjAnLCAnLXRuJywgJzgnLCAnLW1hJywgJzIwMCcsICctaW1hZScsICc8aW5maWxlLm1hZT4nLCAnLW9tYWUnLCAnPG91dGZpbGUubWFlPic=

>  <r_lp_tautomer_probability>  (230) 
1

>  <r_epik_Ionization_Penalty>  (230) 
1.36796e-06

>  <r_epik_Ionization_Penalty_Charging>  (230) 
0

>  <r_epik_Ionization_Penalty_Neutral>  (230) 
1.36796e-06

>  <r_epik_State_Penalty>  (230) 
-0

>  <r_epik_Charging_Adjusted_Penalty>  (230) 
0

>  <i_epik_Tot_Q>  (230) 
0

>  <i_epik_Tot_abs_Q>  (230) 
0

>  <s_epik_Chemistry_Notes>  (230) 
This compound has an ester and may undergo hydrolysis at high or low pH. This compound contains an acetal/aminal-like group ( X-CH(R)-Y where X, Y are N, S, or O) that may be acid/base labile, releasing an aldehyde.

>  <s_lp_Force_Field>  (230) 
OPLS3e

>  <r_lp_Energy>  (230) 
96.7388

>  <b_lp_Chiralities_Consistent>  (230) 
1

>  <s_lp_Variant>  (230) 
76:0-1

>  <s_i_glide_gridfile>  (230) 
pfpi4k_grid

>  <i_i_glide_lignum>  (230) 
24

>  <i_i_glide_rotatable_bonds>  (230) 
7

>  <r_i_docking_score>  (230) 
-3.11117

>  <r_i_glide_ligand_efficiency>  (230) 
-0.0888905

>  <r_i_glide_ligand_efficiency_sa>  (230) 
-0.290767

>  <r_i_glide_ligand_efficiency_ln>  (230) 
-0.68297

>  <r_i_glide_gscore>  (230) 
-3.11117

>  <r_i_glide_lipo>  (230) 
-0.792258

>  <r_i_glide_hbond>  (230) 
-0.452689

>  <r_i_glide_metal>  (230) 
-0

>  <r_i_glide_rewards>  (230) 
-0.050443

>  <r_i_glide_evdw>  (230) 
-15.1664

>  <r_i_glide_ecoul>  (230) 
-7.20938

>  <r_i_glide_erotb>  (230) 
0.167856

>  <r_i_glide_esite>  (230) 
-0.143906

>  <r_i_glide_emodel>  (230) 
-15.8409

>  <r_i_glide_energy>  (230) 
-22.3758

>  <r_i_glide_einternal>  (230) 
15.7611

>  <r_i_glide_intrahb_reward>  (230) 
-0

>  <i_i_glide_confnum>  (230) 
2

>  <i_i_glide_posenum>  (230) 
25

>  <r_i_glide_eff_state_penalty>  (230) 
0

>  <ligand_id>  (230) 
76

>  <original_smiles>  (230) 
C=C1CCC2(CO)C(OC(C)=O)C(O)C3(C)C4CC(O)C(C)C4C4C5OC4(C)C(O)(O5)C3C2C1C

>  <smiles>  (230) 
[H]OC([H])([H])C12C([H])([H])C([H])([H])C(=C([H])[H])C([H])(C([H])([H])[H])C1([H])C1([H])C3(O[H])OC4([H])OC3(C([H])([H])[H])C4([H])C3([H])C([H])(C([H])([H])[H])C([H])(O[H])C([H])([H])C3([H])C1(C([H])([H])[H])C([H])(O[H])C2([H])OC(=O)C([H])([H])[H]

$$$$
76:0:1
     RDKit          3D

 75 80  0  0  1  0  0  0  0  0999 V2000
    3.3644   -2.5690    6.0679 C   0  0  0  0  0  0  0  0  0  0  0  0
    3.1909   -3.5679    5.1816 C   0  0  0  0  0  0  0  0  0  0  0  0
    1.7792   -4.0142    4.8003 C   0  0  0  0  0  0  0  0  0  0  0  0
    1.6717   -4.4546    3.3260 C   0  0  0  0  0  0  0  0  0  0  0  0
    2.7678   -5.4703    2.9037 C   0  0  1  0  0  0  0  0  0  0  0  0
    2.6843   -6.7854    3.7886 C   0  0  0  0  0  0  0  0  0  0  0  0
    2.8337   -6.8092    5.2237 O   0  0  0  0  0  0  0  0  0  0  0  0
    2.5832   -5.9567    1.4057 C   0  0  1  0  0  0  0  0  0  0  0  0
    1.2212   -6.3506    1.1626 O   0  0  0  0  0  0  0  0  0  0  0  0
    0.8283   -7.6061    1.4120 C   0  0  0  0  0  0  0  0  0  0  0  0
   -0.6813   -7.8117    1.2797 C   0  0  0  0  0  0  0  0  0  0  0  0
    1.5765   -8.5250    1.7331 O   0  0  0  0  0  0  0  0  0  0  0  0
    3.0806   -5.0434    0.2420 C   0  0  1  0  0  0  0  0  0  0  0  0
    2.1875   -3.9891    0.1231 O   0  0  0  0  0  0  0  0  0  0  0  0
    4.5096   -4.4413    0.4341 C   0  0  1  0  0  0  0  0  0  0  0  0
    5.4653   -5.6721    0.4090 C   0  0  0  0  0  0  0  0  0  0  0  0
    4.9746   -3.5164   -0.7801 C   0  0  1  0  0  0  0  0  0  0  0  0
    5.1239   -4.1942   -2.1604 C   0  0  0  0  0  0  0  0  0  0  0  0
    4.5364   -3.3293   -3.2759 C   0  0  1  0  0  0  0  0  0  0  0  0
    3.2110   -3.6985   -3.5938 O   0  0  0  0  0  0  0  0  0  0  0  0
    4.6141   -1.9527   -2.6401 C   0  0  1  0  0  0  0  0  0  0  0  0
    3.7578   -0.8940   -3.3500 C   0  0  0  0  0  0  0  0  0  0  0  0
    4.2155   -2.2356   -1.1787 C   0  0  2  0  0  0  0  0  0  0  0  0
    4.4524   -1.0874   -0.2397 C   0  0  1  0  0  0  0  0  0  0  0  0
    3.3414   -0.6976    0.7372 C   0  0  2  0  0  0  0  0  0  0  0  0
    4.3642   -0.0190    1.4541 O   0  0  0  0  0  0  0  0  0  0  0  0
    5.0710   -1.2515    1.1434 C   0  0  2  0  0  0  0  0  0  0  0  0
    6.5663   -1.1392    1.4065 C   0  0  0  0  0  0  0  0  0  0  0  0
    4.2666   -2.2093    1.9918 C   0  0  1  0  0  0  0  0  0  0  0  0
    4.3901   -1.6980    3.2829 O   0  0  0  0  0  0  0  0  0  0  0  0
    3.0230   -1.8689    1.4807 O   0  0  0  0  0  0  0  0  0  0  0  0
    4.6358   -3.7628    1.8819 C   0  0  1  0  0  0  0  0  0  0  0  0
    4.1431   -4.7361    3.0612 C   0  0  1  0  0  0  0  0  0  0  0  0
    4.3750   -4.3399    4.5533 C   0  0  1  0  0  0  0  0  0  0  0  0
    5.7874   -3.8567    4.9001 C   0  0  0  0  0  0  0  0  0  0  0  0
    4.3438   -2.2343    6.3744 H   0  0  0  0  0  0  0  0  0  0  0  0
    2.5057   -2.0882    6.5051 H   0  0  0  0  0  0  0  0  0  0  0  0
    1.4888   -4.8487    5.4434 H   0  0  0  0  0  0  0  0  0  0  0  0
    1.0813   -3.1833    4.9843 H   0  0  0  0  0  0  0  0  0  0  0  0
    0.6700   -4.8464    3.1218 H   0  0  0  0  0  0  0  0  0  0  0  0
    1.7526   -3.5648    2.7076 H   0  0  0  0  0  0  0  0  0  0  0  0
    1.7198   -7.2726    3.6184 H   0  0  0  0  0  0  0  0  0  0  0  0
    3.4251   -7.4984    3.3891 H   0  0  0  0  0  0  0  0  0  0  0  0
    2.7002   -7.6867    5.4359 H   0  0  0  0  0  0  0  0  0  0  0  0
    3.1838   -6.8555    1.2814 H   0  0  0  0  0  0  0  0  0  0  0  0
   -0.9688   -7.6560    0.2361 H   0  0  0  0  0  0  0  0  0  0  0  0
   -1.2143   -7.1186    1.9250 H   0  0  0  0  0  0  0  0  0  0  0  0
   -0.9899   -8.8241    1.5643 H   0  0  0  0  0  0  0  0  0  0  0  0
    3.0067   -5.5776   -0.6867 H   0  0  0  0  0  0  0  0  0  0  0  0
    2.4517   -3.4615   -0.6082 H   0  0  0  0  0  0  0  0  0  0  0  0
    6.4911   -5.3641    0.5573 H   0  0  0  0  0  0  0  0  0  0  0  0
    5.3966   -6.2309   -0.5135 H   0  0  0  0  0  0  0  0  0  0  0  0
    5.2283   -6.4100    1.1596 H   0  0  0  0  0  0  0  0  0  0  0  0
    5.9986   -3.2287   -0.5314 H   0  0  0  0  0  0  0  0  0  0  0  0
    6.1955   -4.1927   -2.3779 H   0  0  0  0  0  0  0  0  0  0  0  0
    4.7326   -5.2038   -2.1730 H   0  0  0  0  0  0  0  0  0  0  0  0
    5.1369   -3.4471   -4.1680 H   0  0  0  0  0  0  0  0  0  0  0  0
    3.0302   -4.5461   -3.1909 H   0  0  0  0  0  0  0  0  0  0  0  0
    5.6585   -1.6423   -2.6564 H   0  0  0  0  0  0  0  0  0  0  0  0
    2.6939   -1.1387   -3.2927 H   0  0  0  0  0  0  0  0  0  0  0  0
    4.0235   -0.8248   -4.4068 H   0  0  0  0  0  0  0  0  0  0  0  0
    3.8916    0.0875   -2.8983 H   0  0  0  0  0  0  0  0  0  0  0  0
    3.1504   -2.3917   -1.2538 H   0  0  0  0  0  0  0  0  0  0  0  0
    4.8703   -0.2119   -0.7480 H   0  0  0  0  0  0  0  0  0  0  0  0
    2.5316   -0.0729    0.3675 H   0  0  0  0  0  0  0  0  0  0  0  0
    7.0728   -2.0447    1.1138 H   0  0  0  0  0  0  0  0  0  0  0  0
    6.7382   -0.9387    2.4530 H   0  0  0  0  0  0  0  0  0  0  0  0
    6.9477   -0.3147    0.8174 H   0  0  0  0  0  0  0  0  0  0  0  0
    4.1101   -0.7995    3.2176 H   0  0  0  0  0  0  0  0  0  0  0  0
    5.7266   -3.7305    2.0306 H   0  0  0  0  0  0  0  0  0  0  0  0
    4.8607   -5.5476    2.9863 H   0  0  0  0  0  0  0  0  0  0  0  0
    4.4279   -5.2732    5.0928 H   0  0  0  0  0  0  0  0  0  0  0  0
    5.9743   -3.9287    5.9700 H   0  0  0  0  0  0  0  0  0  0  0  0
    6.0137   -2.8331    4.6031 H   0  0  0  0  0  0  0  0  0  0  0  0
    6.4988   -4.5454    4.4415 H   0  0  0  0  0  0  0  0  0  0  0  0
  1  2  2  0
  1 36  1  0
  1 37  1  0
  2 34  1  0
  2  3  1  0
  3  4  1  0
  3 38  1  0
  3 39  1  0
  4  5  1  0
  4 40  1  0
  4 41  1  0
  5 33  1  0
  5  6  1  1
  5  8  1  0
  6  7  1  0
  6 42  1  0
  6 43  1  0
  7 44  1  0
  8  9  1  0
  8 13  1  0
  8 45  1  1
  9 10  1  0
 10 11  1  0
 10 12  2  0
 11 46  1  0
 11 47  1  0
 11 48  1  0
 13 14  1  0
 13 15  1  0
 13 49  1  6
 14 50  1  0
 15 32  1  0
 15 16  1  1
 15 17  1  0
 16 51  1  0
 16 52  1  0
 16 53  1  0
 17 23  1  0
 17 18  1  0
 17 54  1  1
 18 19  1  0
 18 55  1  0
 18 56  1  0
 19 20  1  0
 19 21  1  0
 19 57  1  6
 20 58  1  0
 21 22  1  0
 21 23  1  0
 21 59  1  1
 22 60  1  0
 22 61  1  0
 22 62  1  0
 23 24  1  0
 23 63  1  6
 24 27  1  0
 24 25  1  0
 24 64  1  6
 25 31  1  0
 25 26  1  0
 25 65  1  6
 26 27  1  0
 27 28  1  6
 27 29  1  0
 28 66  1  0
 28 67  1  0
 28 68  1  0
 29 30  1  1
 29 31  1  0
 29 32  1  0
 30 69  1  0
 32 33  1  0
 32 70  1  1
 33 34  1  0
 33 71  1  6
 34 35  1  0
 34 72  1  1
 35 73  1  0
 35 74  1  0
 35 75  1  0
M  END
>  <i_m_ct_stereo_status>  (231) 
1

>  <s_m_source_file>  (231) 
/var/tmp/pbs.5076255.sched01/tmpi5tju4vo/80qzp1lgse.sdf

>  <i_m_source_file_index>  (231) 
24

>  <i_lp_mmshare_version>  (231) 
48012

>  <i_f3d_flags>  (231) 
0

>  <s_epik_input>  (231) 
W0NIMl0xW0NIMl1DKD1bQ0gyXSlbQ0BIXShbQ0gzXSlbQ0BASF0oW0NAQF0xMltDSDJdW09IXSlbQ0BIXTNbQ0BAXShbQ0gzXSkoW0NASF0oW09IXSlbQ0BASF0yT0MoPU8pW0NIM10pW0NAQEhdNFtDQEhdKFtDQEhdKFtDSDNdKVtDQEBIXShbQ0gyXTQpW09IXSlbQ0BIXTVbQ0BASF02T1tDQEBdNShbQ0gzXSlbQ0BdMyhPNilbT0hd

>  <s_epik_cmdline>  (231) 
J2VwaWtfcHl0aG9uJywgJy1waHQnLCAnMi4wJywgJy1waCcsICc3LjAnLCAnLXRuJywgJzgnLCAnLW1hJywgJzIwMCcsICctaW1hZScsICc8aW5maWxlLm1hZT4nLCAnLW9tYWUnLCAnPG91dGZpbGUubWFlPic=

>  <r_lp_tautomer_probability>  (231) 
1

>  <r_epik_Ionization_Penalty>  (231) 
1.36796e-06

>  <r_epik_Ionization_Penalty_Charging>  (231) 
0

>  <r_epik_Ionization_Penalty_Neutral>  (231) 
1.36796e-06

>  <r_epik_State_Penalty>  (231) 
-0

>  <r_epik_Charging_Adjusted_Penalty>  (231) 
0

>  <i_epik_Tot_Q>  (231) 
0

>  <i_epik_Tot_abs_Q>  (231) 
0

>  <s_epik_Chemistry_Notes>  (231) 
This compound has an ester and may undergo hydrolysis at high or low pH. This compound contains an acetal/aminal-like group ( X-CH(R)-Y where X, Y are N, S, or O) that may be acid/base labile, releasing an aldehyde.

>  <s_lp_Force_Field>  (231) 
OPLS3e

>  <r_lp_Energy>  (231) 
96.7388

>  <b_lp_Chiralities_Consistent>  (231) 
1

>  <s_lp_Variant>  (231) 
76:0-1

>  <s_i_glide_gridfile>  (231) 
pfpi4k_grid

>  <i_i_glide_lignum>  (231) 
24

>  <i_i_glide_rotatable_bonds>  (231) 
7

>  <r_i_docking_score>  (231) 
-2.92717

>  <r_i_glide_ligand_efficiency>  (231) 
-0.0836335

>  <r_i_glide_ligand_efficiency_sa>  (231) 
-0.273571

>  <r_i_glide_ligand_efficiency_ln>  (231) 
-0.642579

>  <r_i_glide_gscore>  (231) 
-2.92717

>  <r_i_glide_lipo>  (231) 
-0.764044

>  <r_i_glide_hbond>  (231) 
-0.425865

>  <r_i_glide_metal>  (231) 
-0

>  <r_i_glide_rewards>  (231) 
-0.0620414

>  <r_i_glide_evdw>  (231) 
-16.0911

>  <r_i_glide_ecoul>  (231) 
-7.04593

>  <r_i_glide_erotb>  (231) 
0.167856

>  <r_i_glide_esite>  (231) 
-0.115733

>  <r_i_glide_emodel>  (231) 
-15.2331

>  <r_i_glide_energy>  (231) 
-23.1371

>  <r_i_glide_einternal>  (231) 
16.3494

>  <r_i_glide_intrahb_reward>  (231) 
-0

>  <i_i_glide_confnum>  (231) 
2

>  <i_i_glide_posenum>  (231) 
40

>  <r_i_glide_eff_state_penalty>  (231) 
0

>  <ligand_id>  (231) 
76

>  <original_smiles>  (231) 
C=C1CCC2(CO)C(OC(C)=O)C(O)C3(C)C4CC(O)C(C)C4C4C5OC4(C)C(O)(O5)C3C2C1C

>  <smiles>  (231) 
[H]OC([H])([H])C12C([H])([H])C([H])([H])C(=C([H])[H])C([H])(C([H])([H])[H])C1([H])C1([H])C3(O[H])OC4([H])OC3(C([H])([H])[H])C4([H])C3([H])C([H])(C([H])([H])[H])C([H])(O[H])C([H])([H])C3([H])C1(C([H])([H])[H])C([H])(O[H])C2([H])OC(=O)C([H])([H])[H]

$$$$
76:0:2
     RDKit          3D

 75 80  0  0  1  0  0  0  0  0999 V2000
    1.5346   -2.0903    6.8277 C   0  0  0  0  0  0  0  0  0  0  0  0
    1.7921   -3.1580    6.0642 C   0  0  0  0  0  0  0  0  0  0  0  0
    0.6568   -3.8983    5.3528 C   0  0  0  0  0  0  0  0  0  0  0  0
    1.0318   -4.3603    3.9298 C   0  0  0  0  0  0  0  0  0  0  0  0
    2.3181   -5.2105    3.9025 C   0  0  1  0  0  0  0  0  0  0  0  0
    2.1688   -6.4355    4.8920 C   0  0  0  0  0  0  0  0  0  0  0  0
    0.9761   -7.1768    4.7723 O   0  0  0  0  0  0  0  0  0  0  0  0
    2.6567   -5.8146    2.4866 C   0  0  1  0  0  0  0  0  0  0  0  0
    1.5203   -6.4814    1.9155 O   0  0  0  0  0  0  0  0  0  0  0  0
    1.3847   -7.8178    1.9595 C   0  0  0  0  0  0  0  0  0  0  0  0
   -0.0709   -8.2449    1.8076 C   0  0  0  0  0  0  0  0  0  0  0  0
    2.2797   -8.6338    2.1818 O   0  0  0  0  0  0  0  0  0  0  0  0
    3.2880   -4.8724    1.4348 C   0  0  1  0  0  0  0  0  0  0  0  0
    2.2461   -4.0733    0.9427 O   0  0  0  0  0  0  0  0  0  0  0  0
    4.5165   -4.0491    1.9723 C   0  0  1  0  0  0  0  0  0  0  0  0
    5.6112   -5.1020    2.3649 C   0  0  0  0  0  0  0  0  0  0  0  0
    5.2334   -3.1697    0.8601 C   0  0  1  0  0  0  0  0  0  0  0  0
    5.8833   -3.9488   -0.3227 C   0  0  0  0  0  0  0  0  0  0  0  0
    5.5624   -3.2046   -1.6243 C   0  0  1  0  0  0  0  0  0  0  0  0
    4.4258   -3.7968   -2.2266 O   0  0  0  0  0  0  0  0  0  0  0  0
    5.2264   -1.7839   -1.1597 C   0  0  1  0  0  0  0  0  0  0  0  0
    4.4670   -0.9306   -2.1965 C   0  0  0  0  0  0  0  0  0  0  0  0
    4.4588   -2.0335    0.1480 C   0  0  2  0  0  0  0  0  0  0  0  0
    4.2316   -0.7811    0.9844 C   0  0  1  0  0  0  0  0  0  0  0  0
    2.8237   -0.5300    1.5399 C   0  0  2  0  0  0  0  0  0  0  0  0
    3.4537    0.3622    2.4582 O   0  0  0  0  0  0  0  0  0  0  0  0
    4.4005   -0.7377    2.4975 C   0  0  2  0  0  0  0  0  0  0  0  0
    5.7074   -0.3652    3.1935 C   0  0  0  0  0  0  0  0  0  0  0  0
    3.5261   -1.7932    3.1585 C   0  0  1  0  0  0  0  0  0  0  0  0
    3.1696   -1.2332    4.3795 O   0  0  0  0  0  0  0  0  0  0  0  0
    2.4693   -1.7110    2.2607 O   0  0  0  0  0  0  0  0  0  0  0  0
    4.1368   -3.2770    3.3187 C   0  0  1  0  0  0  0  0  0  0  0  0
    3.4634   -4.2499    4.4019 C   0  0  1  0  0  0  0  0  0  0  0  0
    3.2046   -3.7442    5.8641 C   0  0  1  0  0  0  0  0  0  0  0  0
    4.3784   -2.9979    6.5423 C   0  0  0  0  0  0  0  0  0  0  0  0
    2.3144   -1.5550    7.3529 H   0  0  0  0  0  0  0  0  0  0  0  0
    0.5250   -1.7233    6.9415 H   0  0  0  0  0  0  0  0  0  0  0  0
    0.3651   -4.7515    5.9646 H   0  0  0  0  0  0  0  0  0  0  0  0
   -0.2191   -3.2509    5.3066 H   0  0  0  0  0  0  0  0  0  0  0  0
    0.2169   -4.9318    3.4950 H   0  0  0  0  0  0  0  0  0  0  0  0
    1.1459   -3.4834    3.3041 H   0  0  0  0  0  0  0  0  0  0  0  0
    3.0171   -7.1078    4.7967 H   0  0  0  0  0  0  0  0  0  0  0  0
    2.1490   -6.1664    5.9424 H   0  0  0  0  0  0  0  0  0  0  0  0
    1.1301   -8.0460    5.1156 H   0  0  0  0  0  0  0  0  0  0  0  0
    3.4192   -6.5759    2.6455 H   0  0  0  0  0  0  0  0  0  0  0  0
   -0.4847   -7.9375    0.8443 H   0  0  0  0  0  0  0  0  0  0  0  0
   -0.6617   -7.7751    2.5949 H   0  0  0  0  0  0  0  0  0  0  0  0
   -0.1702   -9.3251    1.9194 H   0  0  0  0  0  0  0  0  0  0  0  0
    3.6047   -5.4820    0.5867 H   0  0  0  0  0  0  0  0  0  0  0  0
    2.6075   -3.4739    0.3054 H   0  0  0  0  0  0  0  0  0  0  0  0
    6.5014   -4.6245    2.7674 H   0  0  0  0  0  0  0  0  0  0  0  0
    5.9318   -5.7248    1.5338 H   0  0  0  0  0  0  0  0  0  0  0  0
    5.2928   -5.8259    3.1058 H   0  0  0  0  0  0  0  0  0  0  0  0
    6.0715   -2.6834    1.3624 H   0  0  0  0  0  0  0  0  0  0  0  0
    6.9645   -3.9696   -0.1737 H   0  0  0  0  0  0  0  0  0  0  0  0
    5.5653   -4.9857   -0.4033 H   0  0  0  0  0  0  0  0  0  0  0  0
    6.3970   -3.2314   -2.3257 H   0  0  0  0  0  0  0  0  0  0  0  0
    4.5262   -4.7401   -2.2760 H   0  0  0  0  0  0  0  0  0  0  0  0
    6.1623   -1.2768   -0.9194 H   0  0  0  0  0  0  0  0  0  0  0  0
    3.4757   -1.3337   -2.4145 H   0  0  0  0  0  0  0  0  0  0  0  0
    5.0132   -0.8731   -3.1362 H   0  0  0  0  0  0  0  0  0  0  0  0
    4.3216    0.0896   -1.8456 H   0  0  0  0  0  0  0  0  0  0  0  0
    3.4879   -2.3826   -0.1887 H   0  0  0  0  0  0  0  0  0  0  0  0
    4.6320    0.1238    0.5169 H   0  0  0  0  0  0  0  0  0  0  0  0
    2.0937   -0.0780    0.8729 H   0  0  0  0  0  0  0  0  0  0  0  0
    6.4223   -1.1673    3.0677 H   0  0  0  0  0  0  0  0  0  0  0  0
    5.5545   -0.1635    4.2495 H   0  0  0  0  0  0  0  0  0  0  0  0
    6.1450    0.5299    2.7584 H   0  0  0  0  0  0  0  0  0  0  0  0
    2.8458   -0.3545    4.1671 H   0  0  0  0  0  0  0  0  0  0  0  0
    5.1037   -3.0524    3.7750 H   0  0  0  0  0  0  0  0  0  0  0  0
    4.2717   -4.9397    4.6241 H   0  0  0  0  0  0  0  0  0  0  0  0
    3.1953   -4.6158    6.5079 H   0  0  0  0  0  0  0  0  0  0  0  0
    4.2506   -2.9836    7.6258 H   0  0  0  0  0  0  0  0  0  0  0  0
    4.4947   -1.9666    6.2285 H   0  0  0  0  0  0  0  0  0  0  0  0
    5.3223   -3.5037    6.3438 H   0  0  0  0  0  0  0  0  0  0  0  0
  1  2  2  0
  1 36  1  0
  1 37  1  0
  2 34  1  0
  2  3  1  0
  3  4  1  0
  3 38  1  0
  3 39  1  0
  4  5  1  0
  4 40  1  0
  4 41  1  0
  5 33  1  0
  5  6  1  1
  5  8  1  0
  6  7  1  0
  6 42  1  0
  6 43  1  0
  7 44  1  0
  8  9  1  0
  8 13  1  0
  8 45  1  1
  9 10  1  0
 10 11  1  0
 10 12  2  0
 11 46  1  0
 11 47  1  0
 11 48  1  0
 13 14  1  0
 13 15  1  0
 13 49  1  6
 14 50  1  0
 15 32  1  0
 15 16  1  1
 15 17  1  0
 16 51  1  0
 16 52  1  0
 16 53  1  0
 17 23  1  0
 17 18  1  0
 17 54  1  1
 18 19  1  0
 18 55  1  0
 18 56  1  0
 19 20  1  0
 19 21  1  0
 19 57  1  6
 20 58  1  0
 21 22  1  0
 21 23  1  0
 21 59  1  1
 22 60  1  0
 22 61  1  0
 22 62  1  0
 23 24  1  0
 23 63  1  6
 24 27  1  0
 24 25  1  0
 24 64  1  6
 25 31  1  0
 25 26  1  0
 25 65  1  6
 26 27  1  0
 27 28  1  6
 27 29  1  0
 28 66  1  0
 28 67  1  0
 28 68  1  0
 29 30  1  1
 29 31  1  0
 29 32  1  0
 30 69  1  0
 32 33  1  0
 32 70  1  1
 33 34  1  0
 33 71  1  1
 34 35  1  0
 34 72  1  1
 35 73  1  0
 35 74  1  0
 35 75  1  0
M  END
>  <i_m_ct_stereo_status>  (232) 
1

>  <s_m_source_file>  (232) 
/var/tmp/pbs.5076255.sched01/tmpi5tju4vo/80qzp1lgse.sdf

>  <i_m_source_file_index>  (232) 
24

>  <i_lp_mmshare_version>  (232) 
48012

>  <i_f3d_flags>  (232) 
0

>  <s_epik_input>  (232) 
W0NIMl0xW0NIMl1DKD1bQ0gyXSlbQ0BIXShbQ0gzXSlbQ0BASF0oW0NAQF0xMltDSDJdW09IXSlbQ0BIXTNbQ0BAXShbQ0gzXSkoW0NASF0oW09IXSlbQ0BASF0yT0MoPU8pW0NIM10pW0NAQEhdNFtDQEhdKFtDQEhdKFtDSDNdKVtDQEBIXShbQ0gyXTQpW09IXSlbQ0BIXTVbQ0BASF02T1tDQEBdNShbQ0gzXSlbQ0BdMyhPNilbT0hd

>  <s_epik_cmdline>  (232) 
J2VwaWtfcHl0aG9uJywgJy1waHQnLCAnMi4wJywgJy1waCcsICc3LjAnLCAnLXRuJywgJzgnLCAnLW1hJywgJzIwMCcsICctaW1hZScsICc8aW5maWxlLm1hZT4nLCAnLW9tYWUnLCAnPG91dGZpbGUubWFlPic=

>  <r_lp_tautomer_probability>  (232) 
1

>  <r_epik_Ionization_Penalty>  (232) 
1.36796e-06

>  <r_epik_Ionization_Penalty_Charging>  (232) 
0

>  <r_epik_Ionization_Penalty_Neutral>  (232) 
1.36796e-06

>  <r_epik_State_Penalty>  (232) 
-0

>  <r_epik_Charging_Adjusted_Penalty>  (232) 
0

>  <i_epik_Tot_Q>  (232) 
0

>  <i_epik_Tot_abs_Q>  (232) 
0

>  <s_epik_Chemistry_Notes>  (232) 
This compound has an ester and may undergo hydrolysis at high or low pH. This compound contains an acetal/aminal-like group ( X-CH(R)-Y where X, Y are N, S, or O) that may be acid/base labile, releasing an aldehyde.

>  <s_lp_Force_Field>  (232) 
OPLS3e

>  <r_lp_Energy>  (232) 
96.7388

>  <b_lp_Chiralities_Consistent>  (232) 
1

>  <s_lp_Variant>  (232) 
76:0-1

>  <s_i_glide_gridfile>  (232) 
pfpi4k_grid

>  <i_i_glide_lignum>  (232) 
24

>  <i_i_glide_rotatable_bonds>  (232) 
7

>  <r_i_docking_score>  (232) 
-1.8622

>  <r_i_glide_ligand_efficiency>  (232) 
-0.0532057

>  <r_i_glide_ligand_efficiency_sa>  (232) 
-0.174039

>  <r_i_glide_ligand_efficiency_ln>  (232) 
-0.408794

>  <r_i_glide_gscore>  (232) 
-1.8622

>  <r_i_glide_lipo>  (232) 
-0.494839

>  <r_i_glide_hbond>  (232) 
-0.140595

>  <r_i_glide_metal>  (232) 
-0

>  <r_i_glide_rewards>  (232) 
-0.050443

>  <r_i_glide_evdw>  (232) 
-21.5366

>  <r_i_glide_ecoul>  (232) 
-1.2286

>  <r_i_glide_erotb>  (232) 
0.167856

>  <r_i_glide_esite>  (232) 
-0.0830595

>  <r_i_glide_emodel>  (232) 
-22.1968

>  <r_i_glide_energy>  (232) 
-22.7652

>  <r_i_glide_einternal>  (232) 
3.71726

>  <r_i_glide_intrahb_reward>  (232) 
-0

>  <i_i_glide_confnum>  (232) 
1

>  <i_i_glide_posenum>  (232) 
22

>  <r_i_glide_eff_state_penalty>  (232) 
0

>  <ligand_id>  (232) 
76

>  <original_smiles>  (232) 
C=C1CCC2(CO)C(OC(C)=O)C(O)C3(C)C4CC(O)C(C)C4C4C5OC4(C)C(O)(O5)C3C2C1C

>  <smiles>  (232) 
[H]OC([H])([H])C12C([H])([H])C([H])([H])C(=C([H])[H])C([H])(C([H])([H])[H])C1([H])C1([H])C3(O[H])OC4([H])OC3(C([H])([H])[H])C4([H])C3([H])C([H])(C([H])([H])[H])C([H])(O[H])C([H])([H])C3([H])C1(C([H])([H])[H])C([H])(O[H])C2([H])OC(=O)C([H])([H])[H]

$$$$
77:0:0
     RDKit          3D

 33 36  0  0  1  0  0  0  0  0999 V2000
    2.1398  -11.5976    3.9747 C   0  0  0  0  0  0  0  0  0  0  0  0
    2.3940  -10.3729    3.2959 O   0  0  0  0  0  0  0  0  0  0  0  0
    1.3341   -9.5554    2.9678 C   0  0  0  0  0  0  0  0  0  0  0  0
    0.1195   -9.8635    3.4787 N   0  0  0  0  0  0  0  0  0  0  0  0
   -0.9058   -9.0317    3.2043 C   0  0  0  0  0  0  0  0  0  0  0  0
   -0.7295   -7.8971    2.3923 C   0  0  0  0  0  0  0  0  0  0  0  0
    0.4760   -7.5783    1.8762 N   0  0  0  0  0  0  0  0  0  0  0  0
    1.5190   -8.4024    2.1552 C   0  0  0  0  0  0  0  0  0  0  0  0
    2.7898   -8.0126    1.6636 N   0  0  0  0  0  0  0  0  0  0  0  0
    3.7792   -8.8851    1.3500 C   0  0  0  0  0  0  0  0  0  0  0  0
    4.9072   -8.3403    0.8920 N   0  0  0  0  0  0  0  0  0  0  0  0
    4.5972   -6.9904    0.8812 C   0  0  0  0  0  0  0  0  0  0  0  0
    5.3760   -5.8823    0.4863 C   0  0  0  0  0  0  0  0  0  0  0  0
    4.8439   -4.5714    0.5222 C   0  0  0  0  0  0  0  0  0  0  0  0
    5.6338   -3.4750    0.1218 N   0  0  0  0  0  0  0  0  0  0  0  0
    5.2069   -2.2757   -0.2876 C   0  0  0  0  0  0  0  0  0  0  0  0
    6.2135   -1.4592   -0.5893 N   0  0  0  0  0  0  0  0  0  0  0  0
    7.3792   -2.1919   -0.3574 N   0  0  0  0  0  0  0  0  0  0  0  0
    6.9674   -3.3881    0.0700 C   0  0  0  0  0  0  0  0  0  0  0  0
    3.5144   -4.3585    0.9603 C   0  0  0  0  0  0  0  0  0  0  0  0
    2.7330   -5.4509    1.3733 C   0  0  0  0  0  0  0  0  0  0  0  0
    3.2697   -6.7496    1.3348 C   0  0  0  0  0  0  0  0  0  0  0  0
    3.0750  -12.1500    4.0457 H   0  0  0  0  0  0  0  0  0  0  0  0
    1.4327  -12.2285    3.4350 H   0  0  0  0  0  0  0  0  0  0  0  0
    1.7774  -11.4253    4.9880 H   0  0  0  0  0  0  0  0  0  0  0  0
   -1.8707   -9.2638    3.6352 H   0  0  0  0  0  0  0  0  0  0  0  0
   -1.5565   -7.2437    2.1542 H   0  0  0  0  0  0  0  0  0  0  0  0
    3.6949   -9.9605    1.4293 H   0  0  0  0  0  0  0  0  0  0  0  0
    6.3816   -6.0770    0.1450 H   0  0  0  0  0  0  0  0  0  0  0  0
    4.1716   -1.9839   -0.3786 H   0  0  0  0  0  0  0  0  0  0  0  0
    7.6453   -4.1851    0.3458 H   0  0  0  0  0  0  0  0  0  0  0  0
    3.0852   -3.3675    1.0060 H   0  0  0  0  0  0  0  0  0  0  0  0
    1.7333   -5.2922    1.7236 H   0  0  0  0  0  0  0  0  0  0  0  0
  1  2  1  0
  1 23  1  0
  1 24  1  0
  1 25  1  0
  2  3  1  0
  3  8  2  0
  3  4  1  0
  4  5  2  0
  5  6  1  0
  5 26  1  0
  6  7  2  0
  6 27  1  0
  7  8  1  0
  8  9  1  0
  9 22  1  0
  9 10  1  0
 10 11  2  0
 10 28  1  0
 11 12  1  0
 12 22  2  0
 12 13  1  0
 13 14  2  0
 13 29  1  0
 14 15  1  0
 14 20  1  0
 15 19  1  0
 15 16  1  0
 16 17  2  0
 16 30  1  0
 17 18  1  0
 18 19  2  0
 19 31  1  0
 20 21  2  0
 20 32  1  0
 21 22  1  0
 21 33  1  0
M  END
>  <i_m_ct_stereo_status>  (233) 
1

>  <s_m_source_file>  (233) 
/var/tmp/pbs.5076255.sched01/tmpi5tju4vo/80qzp1lgse.sdf

>  <i_m_source_file_index>  (233) 
25

>  <i_lp_mmshare_version>  (233) 
48012

>  <i_f3d_flags>  (233) 
0

>  <s_epik_input>  (233) 
W0NIM11PYzFuW2NIXVtjSF1uYzEtbihbY0hdbjIpYyhjMjMpW2NIXVtjSF1jKFtjSF0zKS1uNFtjSF1ubltjSF00

>  <s_epik_cmdline>  (233) 
J2VwaWtfcHl0aG9uJywgJy1waHQnLCAnMi4wJywgJy1waCcsICc3LjAnLCAnLXRuJywgJzgnLCAnLW1hJywgJzIwMCcsICctaW1hZScsICc8aW5maWxlLm1hZT4nLCAnLW9tYWUnLCAnPG91dGZpbGUubWFlPic=

>  <r_lp_tautomer_probability>  (233) 
1

>  <r_epik_Ionization_Penalty>  (233) 
0.00390755

>  <r_epik_Ionization_Penalty_Charging>  (233) 
0

>  <r_epik_Ionization_Penalty_Neutral>  (233) 
0.00390755

>  <r_epik_State_Penalty>  (233) 
0.0027899

>  <r_epik_Charging_Adjusted_Penalty>  (233) 
0.0027899

>  <i_epik_Tot_Q>  (233) 
0

>  <i_epik_Tot_abs_Q>  (233) 
0

>  <s_lp_Force_Field>  (233) 
OPLS3e

>  <r_lp_Energy>  (233) 
36.524

>  <b_lp_Chiralities_Consistent>  (233) 
1

>  <s_lp_Variant>  (233) 
77:0-1

>  <s_i_glide_gridfile>  (233) 
pfpi4k_grid

>  <i_i_glide_lignum>  (233) 
25

>  <i_i_glide_rotatable_bonds>  (233) 
3

>  <r_i_docking_score>  (233) 
-3.85226

>  <r_i_glide_ligand_efficiency>  (233) 
-0.175103

>  <r_i_glide_ligand_efficiency_sa>  (233) 
-0.490645

>  <r_i_glide_ligand_efficiency_ln>  (233) 
-0.941633

>  <r_i_glide_gscore>  (233) 
-3.85226

>  <r_i_glide_lipo>  (233) 
-0.364498

>  <r_i_glide_hbond>  (233) 
0

>  <r_i_glide_metal>  (233) 
-0

>  <r_i_glide_rewards>  (233) 
-1.67592

>  <r_i_glide_evdw>  (233) 
-29.115

>  <r_i_glide_ecoul>  (233) 
-3.87048

>  <r_i_glide_erotb>  (233) 
0.424818

>  <r_i_glide_esite>  (233) 
-0.200341

>  <r_i_glide_emodel>  (233) 
-40.7675

>  <r_i_glide_energy>  (233) 
-32.9855

>  <r_i_glide_einternal>  (233) 
0.86133

>  <r_i_glide_intrahb_reward>  (233) 
-0

>  <i_i_glide_confnum>  (233) 
6

>  <i_i_glide_posenum>  (233) 
7

>  <r_i_glide_eff_state_penalty>  (233) 
0

>  <ligand_id>  (233) 
77

>  <original_smiles>  (233) 
COc1nccnc1-n1cnc2cc(-n3cnnc3)ccc21

>  <smiles>  (233) 
[H]c1nc(OC([H])([H])[H])c(-n2c([H])nc3c([H])c(-n4c([H])nnc4[H])c([H])c([H])c32)nc1[H]

$$$$
77:0:1
     RDKit          3D

 33 36  0  0  1  0  0  0  0  0999 V2000
    1.8004  -11.5693    4.1245 C   0  0  0  0  0  0  0  0  0  0  0  0
    2.2978  -10.4534    3.3941 O   0  0  0  0  0  0  0  0  0  0  0  0
    1.4081   -9.5205    2.9061 C   0  0  0  0  0  0  0  0  0  0  0  0
    0.1043   -9.6460    3.2541 N   0  0  0  0  0  0  0  0  0  0  0  0
   -0.7518   -8.6957    2.8258 C   0  0  0  0  0  0  0  0  0  0  0  0
   -0.3099   -7.6199    2.0316 C   0  0  0  0  0  0  0  0  0  0  0  0
    0.9838   -7.4858    1.6766 N   0  0  0  0  0  0  0  0  0  0  0  0
    1.8574   -8.4328    2.1020 C   0  0  0  0  0  0  0  0  0  0  0  0
    3.2240   -8.2240    1.7814 N   0  0  0  0  0  0  0  0  0  0  0  0
    4.1185   -9.2257    1.6144 C   0  0  0  0  0  0  0  0  0  0  0  0
    5.3672   -8.8493    1.3323 N   0  0  0  0  0  0  0  0  0  0  0  0
    5.2519   -7.4692    1.2854 C   0  0  0  0  0  0  0  0  0  0  0  0
    6.2277   -6.4850    1.0218 C   0  0  0  0  0  0  0  0  0  0  0  0
    5.8870   -5.1108    0.9807 C   0  0  0  0  0  0  0  0  0  0  0  0
    6.8731   -4.1430    0.6879 N   0  0  0  0  0  0  0  0  0  0  0  0
    6.6896   -2.9005    0.2294 C   0  0  0  0  0  0  0  0  0  0  0  0
    7.8381   -2.2419    0.0606 N   0  0  0  0  0  0  0  0  0  0  0  0
    8.8415   -3.1393    0.4410 N   0  0  0  0  0  0  0  0  0  0  0  0
    8.2017   -4.2524    0.8082 C   0  0  0  0  0  0  0  0  0  0  0  0
    4.5490   -4.7127    1.2252 C   0  0  0  0  0  0  0  0  0  0  0  0
    3.5706   -5.6793    1.5132 C   0  0  0  0  0  0  0  0  0  0  0  0
    3.9168   -7.0419    1.5367 C   0  0  0  0  0  0  0  0  0  0  0  0
    2.6311  -12.2426    4.3266 H   0  0  0  0  0  0  0  0  0  0  0  0
    1.0555  -12.1346    3.5629 H   0  0  0  0  0  0  0  0  0  0  0  0
    1.3821  -11.2613    5.0823 H   0  0  0  0  0  0  0  0  0  0  0  0
   -1.7905   -8.7893    3.1139 H   0  0  0  0  0  0  0  0  0  0  0  0
   -0.9936   -6.8683    1.6640 H   0  0  0  0  0  0  0  0  0  0  0  0
    3.8707  -10.2747    1.6853 H   0  0  0  0  0  0  0  0  0  0  0  0
    7.2344   -6.8282    0.8267 H   0  0  0  0  0  0  0  0  0  0  0  0
    5.7236   -2.4681    0.0094 H   0  0  0  0  0  0  0  0  0  0  0  0
    8.7101   -5.1337    1.1703 H   0  0  0  0  0  0  0  0  0  0  0  0
    4.2567   -3.6729    1.2112 H   0  0  0  0  0  0  0  0  0  0  0  0
    2.5599   -5.3785    1.7109 H   0  0  0  0  0  0  0  0  0  0  0  0
  1  2  1  0
  1 23  1  0
  1 24  1  0
  1 25  1  0
  2  3  1  0
  3  8  2  0
  3  4  1  0
  4  5  2  0
  5  6  1  0
  5 26  1  0
  6  7  2  0
  6 27  1  0
  7  8  1  0
  8  9  1  0
  9 22  1  0
  9 10  1  0
 10 11  2  0
 10 28  1  0
 11 12  1  0
 12 22  2  0
 12 13  1  0
 13 14  2  0
 13 29  1  0
 14 15  1  0
 14 20  1  0
 15 19  1  0
 15 16  1  0
 16 17  2  0
 16 30  1  0
 17 18  1  0
 18 19  2  0
 19 31  1  0
 20 21  2  0
 20 32  1  0
 21 22  1  0
 21 33  1  0
M  END
>  <i_m_ct_stereo_status>  (234) 
1

>  <s_m_source_file>  (234) 
/var/tmp/pbs.5076255.sched01/tmpi5tju4vo/80qzp1lgse.sdf

>  <i_m_source_file_index>  (234) 
25

>  <i_lp_mmshare_version>  (234) 
48012

>  <i_f3d_flags>  (234) 
0

>  <s_epik_input>  (234) 
W0NIM11PYzFuW2NIXVtjSF1uYzEtbihbY0hdbjIpYyhjMjMpW2NIXVtjSF1jKFtjSF0zKS1uNFtjSF1ubltjSF00

>  <s_epik_cmdline>  (234) 
J2VwaWtfcHl0aG9uJywgJy1waHQnLCAnMi4wJywgJy1waCcsICc3LjAnLCAnLXRuJywgJzgnLCAnLW1hJywgJzIwMCcsICctaW1hZScsICc8aW5maWxlLm1hZT4nLCAnLW9tYWUnLCAnPG91dGZpbGUubWFlPic=

>  <r_lp_tautomer_probability>  (234) 
1

>  <r_epik_Ionization_Penalty>  (234) 
0.00390755

>  <r_epik_Ionization_Penalty_Charging>  (234) 
0

>  <r_epik_Ionization_Penalty_Neutral>  (234) 
0.00390755

>  <r_epik_State_Penalty>  (234) 
0.0027899

>  <r_epik_Charging_Adjusted_Penalty>  (234) 
0.0027899

>  <i_epik_Tot_Q>  (234) 
0

>  <i_epik_Tot_abs_Q>  (234) 
0

>  <s_lp_Force_Field>  (234) 
OPLS3e

>  <r_lp_Energy>  (234) 
36.524

>  <b_lp_Chiralities_Consistent>  (234) 
1

>  <s_lp_Variant>  (234) 
77:0-1

>  <s_i_glide_gridfile>  (234) 
pfpi4k_grid

>  <i_i_glide_lignum>  (234) 
25

>  <i_i_glide_rotatable_bonds>  (234) 
3

>  <r_i_docking_score>  (234) 
-3.80364

>  <r_i_glide_ligand_efficiency>  (234) 
-0.172893

>  <r_i_glide_ligand_efficiency_sa>  (234) 
-0.484453

>  <r_i_glide_ligand_efficiency_ln>  (234) 
-0.929749

>  <r_i_glide_gscore>  (234) 
-3.80364

>  <r_i_glide_lipo>  (234) 
-0.400754

>  <r_i_glide_hbond>  (234) 
0

>  <r_i_glide_metal>  (234) 
-0

>  <r_i_glide_rewards>  (234) 
-1.87876

>  <r_i_glide_evdw>  (234) 
-30.3416

>  <r_i_glide_ecoul>  (234) 
-2.28928

>  <r_i_glide_erotb>  (234) 
0.424818

>  <r_i_glide_esite>  (234) 
-0.0884693

>  <r_i_glide_emodel>  (234) 
-40.3912

>  <r_i_glide_energy>  (234) 
-32.6309

>  <r_i_glide_einternal>  (234) 
0.701309

>  <r_i_glide_intrahb_reward>  (234) 
-0

>  <i_i_glide_confnum>  (234) 
6

>  <i_i_glide_posenum>  (234) 
33

>  <r_i_glide_eff_state_penalty>  (234) 
0

>  <ligand_id>  (234) 
77

>  <original_smiles>  (234) 
COc1nccnc1-n1cnc2cc(-n3cnnc3)ccc21

>  <smiles>  (234) 
[H]c1nc(OC([H])([H])[H])c(-n2c([H])nc3c([H])c(-n4c([H])nnc4[H])c([H])c([H])c32)nc1[H]

$$$$
77:0:2
     RDKit          3D

 33 36  0  0  1  0  0  0  0  0999 V2000
    8.6188   -2.8508    0.0232 C   0  0  0  0  0  0  0  0  0  0  0  0
    7.3754   -2.3574    0.5005 O   0  0  0  0  0  0  0  0  0  0  0  0
    6.3063   -2.2506   -0.3618 C   0  0  0  0  0  0  0  0  0  0  0  0
    6.4644   -2.7186   -1.6248 N   0  0  0  0  0  0  0  0  0  0  0  0
    5.3951   -2.6584   -2.4474 C   0  0  0  0  0  0  0  0  0  0  0  0
    4.1826   -2.0747   -2.0333 C   0  0  0  0  0  0  0  0  0  0  0  0
    4.0334   -1.5750   -0.7903 N   0  0  0  0  0  0  0  0  0  0  0  0
    5.0772   -1.6700    0.0655 C   0  0  0  0  0  0  0  0  0  0  0  0
    4.8487   -1.2233    1.3934 N   0  0  0  0  0  0  0  0  0  0  0  0
    5.8165   -0.7450    2.2028 C   0  0  0  0  0  0  0  0  0  0  0  0
    5.4329   -0.3551    3.4164 N   0  0  0  0  0  0  0  0  0  0  0  0
    4.0745   -0.6145    3.3855 C   0  0  0  0  0  0  0  0  0  0  0  0
    3.0969   -0.4298    4.3838 C   0  0  0  0  0  0  0  0  0  0  0  0
    1.7401   -0.7555    4.1328 C   0  0  0  0  0  0  0  0  0  0  0  0
    0.7589   -0.5591    5.1298 N   0  0  0  0  0  0  0  0  0  0  0  0
   -0.5592   -0.4087    4.9616 C   0  0  0  0  0  0  0  0  0  0  0  0
   -1.2087   -0.2564    6.1186 N   0  0  0  0  0  0  0  0  0  0  0  0
   -0.2198   -0.3007    7.1074 N   0  0  0  0  0  0  0  0  0  0  0  0
    0.9311   -0.4842    6.4530 C   0  0  0  0  0  0  0  0  0  0  0  0
    1.3625   -1.2697    2.8699 C   0  0  0  0  0  0  0  0  0  0  0  0
    2.3275   -1.4648    1.8702 C   0  0  0  0  0  0  0  0  0  0  0  0
    3.6700   -1.1437    2.1262 C   0  0  0  0  0  0  0  0  0  0  0  0
    9.3461   -2.7728    0.8303 H   0  0  0  0  0  0  0  0  0  0  0  0
    9.0024   -2.2688   -0.8159 H   0  0  0  0  0  0  0  0  0  0  0  0
    8.5375   -3.9012   -0.2548 H   0  0  0  0  0  0  0  0  0  0  0  0
    5.5100   -3.0578   -3.4457 H   0  0  0  0  0  0  0  0  0  0  0  0
    3.3314   -1.9952   -2.6947 H   0  0  0  0  0  0  0  0  0  0  0  0
    6.8548   -0.6527    1.9174 H   0  0  0  0  0  0  0  0  0  0  0  0
    3.4171   -0.0275    5.3336 H   0  0  0  0  0  0  0  0  0  0  0  0
   -1.0607   -0.4075    4.0044 H   0  0  0  0  0  0  0  0  0  0  0  0
    1.8873   -0.5718    6.9496 H   0  0  0  0  0  0  0  0  0  0  0  0
    0.3367   -1.5178    2.6469 H   0  0  0  0  0  0  0  0  0  0  0  0
    2.0399   -1.8396    0.9041 H   0  0  0  0  0  0  0  0  0  0  0  0
  1  2  1  0
  1 23  1  0
  1 24  1  0
  1 25  1  0
  2  3  1  0
  3  8  2  0
  3  4  1  0
  4  5  2  0
  5  6  1  0
  5 26  1  0
  6  7  2  0
  6 27  1  0
  7  8  1  0
  8  9  1  0
  9 22  1  0
  9 10  1  0
 10 11  2  0
 10 28  1  0
 11 12  1  0
 12 22  2  0
 12 13  1  0
 13 14  2  0
 13 29  1  0
 14 15  1  0
 14 20  1  0
 15 19  1  0
 15 16  1  0
 16 17  2  0
 16 30  1  0
 17 18  1  0
 18 19  2  0
 19 31  1  0
 20 21  2  0
 20 32  1  0
 21 22  1  0
 21 33  1  0
M  END
>  <i_m_ct_stereo_status>  (235) 
1

>  <s_m_source_file>  (235) 
/var/tmp/pbs.5076255.sched01/tmpi5tju4vo/80qzp1lgse.sdf

>  <i_m_source_file_index>  (235) 
25

>  <i_lp_mmshare_version>  (235) 
48012

>  <i_f3d_flags>  (235) 
0

>  <s_epik_input>  (235) 
W0NIM11PYzFuW2NIXVtjSF1uYzEtbihbY0hdbjIpYyhjMjMpW2NIXVtjSF1jKFtjSF0zKS1uNFtjSF1ubltjSF00

>  <s_epik_cmdline>  (235) 
J2VwaWtfcHl0aG9uJywgJy1waHQnLCAnMi4wJywgJy1waCcsICc3LjAnLCAnLXRuJywgJzgnLCAnLW1hJywgJzIwMCcsICctaW1hZScsICc8aW5maWxlLm1hZT4nLCAnLW9tYWUnLCAnPG91dGZpbGUubWFlPic=

>  <r_lp_tautomer_probability>  (235) 
1

>  <r_epik_Ionization_Penalty>  (235) 
0.00390755

>  <r_epik_Ionization_Penalty_Charging>  (235) 
0

>  <r_epik_Ionization_Penalty_Neutral>  (235) 
0.00390755

>  <r_epik_State_Penalty>  (235) 
0.0027899

>  <r_epik_Charging_Adjusted_Penalty>  (235) 
0.0027899

>  <i_epik_Tot_Q>  (235) 
0

>  <i_epik_Tot_abs_Q>  (235) 
0

>  <s_lp_Force_Field>  (235) 
OPLS3e

>  <r_lp_Energy>  (235) 
36.524

>  <b_lp_Chiralities_Consistent>  (235) 
1

>  <s_lp_Variant>  (235) 
77:0-1

>  <s_i_glide_gridfile>  (235) 
pfpi4k_grid

>  <i_i_glide_lignum>  (235) 
25

>  <i_i_glide_rotatable_bonds>  (235) 
3

>  <r_i_docking_score>  (235) 
-3.63399

>  <r_i_glide_ligand_efficiency>  (235) 
-0.165182

>  <r_i_glide_ligand_efficiency_sa>  (235) 
-0.462845

>  <r_i_glide_ligand_efficiency_ln>  (235) 
-0.888281

>  <r_i_glide_gscore>  (235) 
-3.63399

>  <r_i_glide_lipo>  (235) 
-0.146427

>  <r_i_glide_hbond>  (235) 
0

>  <r_i_glide_metal>  (235) 
-0

>  <r_i_glide_rewards>  (235) 
-1.60825

>  <r_i_glide_evdw>  (235) 
-25.3517

>  <r_i_glide_ecoul>  (235) 
-5.76003

>  <r_i_glide_erotb>  (235) 
0.424818

>  <r_i_glide_esite>  (235) 
-0.172545

>  <r_i_glide_emodel>  (235) 
-38.4279

>  <r_i_glide_energy>  (235) 
-31.1118

>  <r_i_glide_einternal>  (235) 
0.820842

>  <r_i_glide_intrahb_reward>  (235) 
-0

>  <i_i_glide_confnum>  (235) 
6

>  <i_i_glide_posenum>  (235) 
2

>  <r_i_glide_eff_state_penalty>  (235) 
0

>  <ligand_id>  (235) 
77

>  <original_smiles>  (235) 
COc1nccnc1-n1cnc2cc(-n3cnnc3)ccc21

>  <smiles>  (235) 
[H]c1nc(OC([H])([H])[H])c(-n2c([H])nc3c([H])c(-n4c([H])nnc4[H])c([H])c([H])c32)nc1[H]

$$$$
78:0:0
     RDKit          3D

 69 74  0  0  1  0  0  0  0  0999 V2000
    4.2117   -5.4543    1.7442 C   0  0  0  0  0  0  0  0  0  0  0  0
    4.0736   -6.5632    2.8006 C   0  0  2  0  0  0  0  0  0  0  0  0
    3.8106   -7.8869    2.1883 C   0  0  0  0  0  0  0  0  0  0  0  0
    4.3612   -8.8056    1.3417 C   0  0  0  0  0  0  0  0  0  0  0  0
    3.4532   -9.8501    1.3200 N   0  0  0  0  0  0  0  0  0  0  0  0
    2.3407   -9.6277    2.0783 N   0  0  0  0  0  0  0  0  0  0  0  0
    2.6095   -8.4391    2.5908 C   0  0  0  0  0  0  0  0  0  0  0  0
    1.8174   -7.5709    3.5123 C   0  0  1  0  0  0  0  0  0  0  0  0
    0.5359   -7.1144    2.7889 C   0  0  0  0  0  0  0  0  0  0  0  0
    1.4984   -8.2962    4.8403 C   0  0  0  0  0  0  0  0  0  0  0  0
    0.9786   -7.3011    5.8911 C   0  0  0  0  0  0  0  0  0  0  0  0
    1.9599   -6.1300    6.2088 C   0  0  1  0  0  0  0  0  0  0  0  0
    3.1757   -6.1271    5.2291 C   0  0  2  0  0  0  0  0  0  0  0  0
    4.1228   -4.9522    5.5284 C   0  0  0  0  0  0  0  0  0  0  0  0
    3.4008   -3.6165    5.5782 C   0  0  0  0  0  0  0  0  0  0  0  0
    2.3328   -3.6009    6.6886 C   0  0  1  0  0  0  0  0  0  0  0  0
    1.6629   -2.2114    6.8932 C   0  0  1  0  0  0  0  0  0  0  0  0
    2.4856   -0.9639    7.2241 C   0  0  0  0  0  0  0  0  0  0  0  0
    1.4728    0.1861    7.0589 C   0  0  0  0  0  0  0  0  0  0  0  0
    0.1852   -0.4401    6.4809 C   0  0  1  0  0  0  0  0  0  0  0  0
   -0.4717    0.4271    5.5646 O   0  0  0  0  0  0  0  0  0  0  0  0
   -1.6297    1.4756    6.2209 S   0  0  0  0  0  0  0  0  0  0  0  0
   -0.8598    2.3129    7.1436 O   0  0  0  0  0  0  0  0  0  0  0  0
   -2.1624    2.1843    5.0437 O   0  0  0  0  0  0  0  0  0  0  0  0
   -2.5764    0.5520    6.8670 O   0  0  0  0  0  0  0  0  0  0  0  0
    0.6515   -1.7635    5.8247 C   0  0  1  0  0  0  0  0  0  0  0  0
    1.2473   -1.4402    4.4255 C   0  0  0  0  0  0  0  0  0  0  0  0
   -0.4114   -2.8715    5.7128 C   0  0  0  0  0  0  0  0  0  0  0  0
    0.2236   -4.2700    5.4476 C   0  0  0  0  0  0  0  0  0  0  0  0
    1.2595   -4.7400    6.5174 C   0  0  1  0  0  0  0  0  0  0  0  0
    0.4988   -4.9606    7.8607 C   0  0  0  0  0  0  0  0  0  0  0  0
    2.8063   -6.3366    3.7309 C   0  0  1  0  0  0  0  0  0  0  0  0
    3.6168  -10.7636    0.8650 H   0  0  0  0  0  0  0  0  0  0  0  0
    5.0656   -5.6379    1.0845 H   0  0  0  0  0  0  0  0  0  0  0  0
    4.3625   -4.4815    2.2158 H   0  0  0  0  0  0  0  0  0  0  0  0
    3.3198   -5.3836    1.1185 H   0  0  0  0  0  0  0  0  0  0  0  0
    4.9918   -6.6036    3.3890 H   0  0  0  0  0  0  0  0  0  0  0  0
    5.2910   -8.8227    0.8059 H   0  0  0  0  0  0  0  0  0  0  0  0
    0.0175   -6.3418    3.3535 H   0  0  0  0  0  0  0  0  0  0  0  0
   -0.1578   -7.9386    2.6425 H   0  0  0  0  0  0  0  0  0  0  0  0
    0.7702   -6.6978    1.8075 H   0  0  0  0  0  0  0  0  0  0  0  0
    0.7649   -9.0873    4.6778 H   0  0  0  0  0  0  0  0  0  0  0  0
    2.3828   -8.8110    5.2237 H   0  0  0  0  0  0  0  0  0  0  0  0
   -0.0062   -6.9558    5.5820 H   0  0  0  0  0  0  0  0  0  0  0  0
    0.7778   -7.8412    6.8131 H   0  0  0  0  0  0  0  0  0  0  0  0
    2.4293   -6.4058    7.1554 H   0  0  0  0  0  0  0  0  0  0  0  0
    3.7634   -7.0112    5.4846 H   0  0  0  0  0  0  0  0  0  0  0  0
    4.5994   -5.1187    6.4934 H   0  0  0  0  0  0  0  0  0  0  0  0
    4.9338   -4.8964    4.8079 H   0  0  0  0  0  0  0  0  0  0  0  0
    4.1303   -2.8230    5.7462 H   0  0  0  0  0  0  0  0  0  0  0  0
    2.9705   -3.4490    4.5990 H   0  0  0  0  0  0  0  0  0  0  0  0
    2.8716   -3.8135    7.6089 H   0  0  0  0  0  0  0  0  0  0  0  0
    1.0897   -2.3376    7.8101 H   0  0  0  0  0  0  0  0  0  0  0  0
    2.9004   -1.0030    8.2317 H   0  0  0  0  0  0  0  0  0  0  0  0
    3.3153   -0.8391    6.5258 H   0  0  0  0  0  0  0  0  0  0  0  0
    1.2722    0.6958    8.0040 H   0  0  0  0  0  0  0  0  0  0  0  0
    1.8701    0.9299    6.3717 H   0  0  0  0  0  0  0  0  0  0  0  0
   -0.4665   -0.6785    7.3198 H   0  0  0  0  0  0  0  0  0  0  0  0
    0.5824   -0.8086    3.8420 H   0  0  0  0  0  0  0  0  0  0  0  0
    1.3875   -2.3181    3.8084 H   0  0  0  0  0  0  0  0  0  0  0  0
    2.2015   -0.9241    4.4915 H   0  0  0  0  0  0  0  0  0  0  0  0
   -1.0190   -2.9082    6.6187 H   0  0  0  0  0  0  0  0  0  0  0  0
   -1.1033   -2.6183    4.9136 H   0  0  0  0  0  0  0  0  0  0  0  0
   -0.5876   -4.9837    5.3634 H   0  0  0  0  0  0  0  0  0  0  0  0
    0.6944   -4.2672    4.4659 H   0  0  0  0  0  0  0  0  0  0  0  0
   -0.0477   -4.0909    8.2158 H   0  0  0  0  0  0  0  0  0  0  0  0
    1.1815   -5.2367    8.6604 H   0  0  0  0  0  0  0  0  0  0  0  0
   -0.2424   -5.7604    7.7824 H   0  0  0  0  0  0  0  0  0  0  0  0
    2.2947   -5.4386    3.3948 H   0  0  0  0  0  0  0  0  0  0  0  0
  1  2  1  0
  1 34  1  0
  1 35  1  0
  1 36  1  0
  2 32  1  0
  2 37  1  1
  2  3  1  0
  3  4  2  0
  3  7  1  0
  4  5  1  0
  4 38  1  0
  5  6  1  0
  5 33  1  0
  6  7  2  0
  7  8  1  0
  8 32  1  0
  8  9  1  6
  8 10  1  0
  9 39  1  0
  9 40  1  0
  9 41  1  0
 10 11  1  0
 10 42  1  0
 10 43  1  0
 11 12  1  0
 11 44  1  0
 11 45  1  0
 12 30  1  0
 12 13  1  0
 12 46  1  1
 13 14  1  0
 13 32  1  0
 13 47  1  1
 14 15  1  0
 14 48  1  0
 14 49  1  0
 15 16  1  0
 15 50  1  0
 15 51  1  0
 16 30  1  0
 16 17  1  0
 16 52  1  1
 17 26  1  0
 17 18  1  0
 17 53  1  1
 18 19  1  0
 18 54  1  0
 18 55  1  0
 19 20  1  0
 19 56  1  0
 19 57  1  0
 20 21  1  0
 20 26  1  0
 20 58  1  1
 21 22  1  0
 22 23  2  0
 22 24  2  0
 22 25  1  0
 26 27  1  6
 26 28  1  0
 27 59  1  0
 27 60  1  0
 27 61  1  0
 28 29  1  0
 28 62  1  0
 28 63  1  0
 29 30  1  0
 29 64  1  0
 29 65  1  0
 30 31  1  1
 31 66  1  0
 31 67  1  0
 31 68  1  0
 32 69  1  6
M  CHG  1  25  -1
M  END
>  <i_m_ct_stereo_status>  (236) 
1

>  <s_m_source_file>  (236) 
/var/tmp/pbs.5076255.sched01/tmpi5tju4vo/80qzp1lgse.sdf

>  <i_m_source_file_index>  (236) 
26

>  <i_lp_mmshare_version>  (236) 
48012

>  <i_f3d_flags>  (236) 
0

>  <s_epik_input>  (236) 
W25IXTFuW2NIXWMoYzFbQ0BAXTIzW0NIM10pW0NAQEhdKFtDSDNdKVtDQEBIXTNbQ0BASF00W0NASF0oW0NIMl1bQ0gyXTIpW0NAQF01KFtDSDNdKVtDQEBIXShbQ0gyXVtDSDJdNClbQ0BASF02W0NAQF0oW0NIM10pKFtDSDJdW0NIMl01KVtDQEBIXShbQ0gyXVtDSDJdNilPUyg9TykoPU8pW09IXQ==

>  <s_epik_cmdline>  (236) 
J2VwaWtfcHl0aG9uJywgJy1waHQnLCAnMi4wJywgJy1waCcsICc3LjAnLCAnLXRuJywgJzgnLCAnLW1hJywgJzIwMCcsICctaW1hZScsICc8aW5maWxlLm1hZT4nLCAnLW9tYWUnLCAnPG91dGZpbGUubWFlPic=

>  <r_lp_tautomer_probability>  (236) 
0.5

>  <r_epik_Ionization_Penalty>  (236) 
0.00415683

>  <r_epik_Ionization_Penalty_Charging>  (236) 
1.73521e-10

>  <r_epik_Ionization_Penalty_Neutral>  (236) 
0.00415683

>  <r_epik_State_Penalty>  (236) 
0.376756

>  <r_epik_Charging_Adjusted_Penalty>  (236) 
0.376756

>  <i_epik_Tot_Q>  (236) 
-1

>  <i_epik_Tot_abs_Q>  (236) 
1

>  <s_lp_Force_Field>  (236) 
OPLS3e

>  <r_lp_Energy>  (236) 
77.2932

>  <b_lp_Chiralities_Consistent>  (236) 
1

>  <s_lp_Variant>  (236) 
78:0-1

>  <s_i_glide_gridfile>  (236) 
pfpi4k_grid

>  <i_i_glide_lignum>  (236) 
26

>  <i_i_glide_rotatable_bonds>  (236) 
2

>  <r_i_docking_score>  (236) 
-2.69073

>  <r_i_glide_ligand_efficiency>  (236) 
-0.0840854

>  <r_i_glide_ligand_efficiency_sa>  (236) 
-0.266954

>  <r_i_glide_ligand_efficiency_ln>  (236) 
-0.602528

>  <r_i_glide_gscore>  (236) 
-2.69073

>  <r_i_glide_lipo>  (236) 
-0.0199985

>  <r_i_glide_hbond>  (236) 
-0.338861

>  <r_i_glide_metal>  (236) 
-0

>  <r_i_glide_rewards>  (236) 
-0.261557

>  <r_i_glide_evdw>  (236) 
-18.5859

>  <r_i_glide_ecoul>  (236) 
-7.29727

>  <r_i_glide_erotb>  (236) 
0.0944947

>  <r_i_glide_esite>  (236) 
-0.140924

>  <r_i_glide_emodel>  (236) 
-32.182

>  <r_i_glide_energy>  (236) 
-25.8832

>  <r_i_glide_einternal>  (236) 
0.327058

>  <r_i_glide_intrahb_reward>  (236) 
-0

>  <i_i_glide_confnum>  (236) 
2

>  <i_i_glide_posenum>  (236) 
35

>  <r_i_glide_eff_state_penalty>  (236) 
0

>  <ligand_id>  (236) 
78

>  <original_smiles>  (236) 
CC1c2cn[nH]c2C2(C)CCC3C(CCC4C5CCC(OS(=O)(=O)O)C5(C)CCC34C)C12

>  <smiles>  (236) 
[H]c1c2c(nn1[H])C1(C([H])([H])[H])C([H])([H])C([H])([H])C3([H])C([H])(C([H])([H])C([H])([H])C4([H])C5([H])C([H])([H])C([H])([H])C([H])(OS(=O)(=O)[O-])C5(C([H])([H])[H])C([H])([H])C([H])([H])C34C([H])([H])[H])C1([H])C2([H])C([H])([H])[H]

$$$$
78:0:1
     RDKit          3D

 69 74  0  0  1  0  0  0  0  0999 V2000
    3.2084   -7.6785    2.5611 C   0  0  0  0  0  0  0  0  0  0  0  0
    3.1838   -8.4186    3.9066 C   0  0  2  0  0  0  0  0  0  0  0  0
    2.6610   -9.7987    3.7685 C   0  0  0  0  0  0  0  0  0  0  0  0
    2.9169  -10.9873    3.1570 C   0  0  0  0  0  0  0  0  0  0  0  0
    1.8998  -11.8372    3.5704 N   0  0  0  0  0  0  0  0  0  0  0  0
    1.0120  -11.2405    4.4124 N   0  0  0  0  0  0  0  0  0  0  0  0
    1.5145  -10.0205    4.5180 C   0  0  0  0  0  0  0  0  0  0  0  0
    1.0408   -8.8202    5.2668 C   0  0  1  0  0  0  0  0  0  0  0  0
   -0.3054   -8.3545    4.6801 C   0  0  0  0  0  0  0  0  0  0  0  0
    0.9381   -9.0969    6.7866 C   0  0  0  0  0  0  0  0  0  0  0  0
    0.7838   -7.7910    7.5838 C   0  0  0  0  0  0  0  0  0  0  0  0
    1.9198   -6.7536    7.3481 C   0  0  1  0  0  0  0  0  0  0  0  0
    2.8879   -7.2164    6.2145 C   0  0  2  0  0  0  0  0  0  0  0  0
    4.0017   -6.1757    5.9810 C   0  0  0  0  0  0  0  0  0  0  0  0
    3.4487   -4.7751    5.7600 C   0  0  0  0  0  0  0  0  0  0  0  0
    2.6579   -4.2894    6.9911 C   0  0  1  0  0  0  0  0  0  0  0  0
    2.1997   -2.8085    6.8873 C   0  0  1  0  0  0  0  0  0  0  0  0
    3.2065   -1.6731    6.6828 C   0  0  0  0  0  0  0  0  0  0  0  0
    2.3094   -0.4597    6.3656 C   0  0  0  0  0  0  0  0  0  0  0  0
    0.8631   -0.9962    6.2502 C   0  0  1  0  0  0  0  0  0  0  0  0
    0.1507   -0.2313    5.2833 O   0  0  0  0  0  0  0  0  0  0  0  0
   -1.4801    0.1126    5.5954 S   0  0  0  0  0  0  0  0  0  0  0  0
   -1.5087    0.5450    7.0028 O   0  0  0  0  0  0  0  0  0  0  0  0
   -1.7833    1.1709    4.6231 O   0  0  0  0  0  0  0  0  0  0  0  0
   -2.1808   -1.1622    5.3655 O   0  0  0  0  0  0  0  0  0  0  0  0
    1.0317   -2.5021    5.9306 C   0  0  1  0  0  0  0  0  0  0  0  0
    1.3443   -2.6621    4.4136 C   0  0  0  0  0  0  0  0  0  0  0  0
   -0.1398   -3.4130    6.3403 C   0  0  0  0  0  0  0  0  0  0  0  0
    0.2650   -4.9124    6.3957 C   0  0  0  0  0  0  0  0  0  0  0  0
    1.4561   -5.2377    7.3545 C   0  0  1  0  0  0  0  0  0  0  0  0
    0.9865   -4.9604    8.8159 C   0  0  0  0  0  0  0  0  0  0  0  0
    2.1786   -7.7568    4.9362 C   0  0  1  0  0  0  0  0  0  0  0  0
    1.8058  -12.8216    3.3031 H   0  0  0  0  0  0  0  0  0  0  0  0
    3.8718   -8.1721    1.8467 H   0  0  0  0  0  0  0  0  0  0  0  0
    3.5624   -6.6546    2.6875 H   0  0  0  0  0  0  0  0  0  0  0  0
    2.2152   -7.6324    2.1108 H   0  0  0  0  0  0  0  0  0  0  0  0
    4.1937   -8.4575    4.3076 H   0  0  0  0  0  0  0  0  0  0  0  0
    3.7032  -11.3068    2.4840 H   0  0  0  0  0  0  0  0  0  0  0  0
   -0.6110   -7.3880    5.0727 H   0  0  0  0  0  0  0  0  0  0  0  0
   -1.1055   -9.0566    4.9103 H   0  0  0  0  0  0  0  0  0  0  0  0
   -0.2523   -8.2683    3.5943 H   0  0  0  0  0  0  0  0  0  0  0  0
    0.1050   -9.7720    6.9915 H   0  0  0  0  0  0  0  0  0  0  0  0
    1.8212   -9.6364    7.1372 H   0  0  0  0  0  0  0  0  0  0  0  0
   -0.1864   -7.3721    7.3426 H   0  0  0  0  0  0  0  0  0  0  0  0
    0.7204   -8.0229    8.6458 H   0  0  0  0  0  0  0  0  0  0  0  0
    2.5536   -6.8415    8.2314 H   0  0  0  0  0  0  0  0  0  0  0  0
    3.4179   -8.0825    6.6118 H   0  0  0  0  0  0  0  0  0  0  0  0
    4.6543   -6.1563    6.8540 H   0  0  0  0  0  0  0  0  0  0  0  0
    4.6378   -6.4528    5.1412 H   0  0  0  0  0  0  0  0  0  0  0  0
    4.2804   -4.0998    5.5547 H   0  0  0  0  0  0  0  0  0  0  0  0
    2.8400   -4.8030    4.8633 H   0  0  0  0  0  0  0  0  0  0  0  0
    3.3598   -4.3310    7.8222 H   0  0  0  0  0  0  0  0  0  0  0  0
    1.8320   -2.5858    7.8879 H   0  0  0  0  0  0  0  0  0  0  0  0
    3.8224   -1.5029    7.5673 H   0  0  0  0  0  0  0  0  0  0  0  0
    3.8769   -1.8717    5.8447 H   0  0  0  0  0  0  0  0  0  0  0  0
    2.3727    0.3087    7.1390 H   0  0  0  0  0  0  0  0  0  0  0  0
    2.6290    0.0002    5.4296 H   0  0  0  0  0  0  0  0  0  0  0  0
    0.4069   -0.8993    7.2341 H   0  0  0  0  0  0  0  0  0  0  0  0
    0.6381   -2.0986    3.8021 H   0  0  0  0  0  0  0  0  0  0  0  0
    1.2552   -3.6876    4.0641 H   0  0  0  0  0  0  0  0  0  0  0  0
    2.3437   -2.3092    4.1565 H   0  0  0  0  0  0  0  0  0  0  0  0
   -0.5342   -3.0986    7.3078 H   0  0  0  0  0  0  0  0  0  0  0  0
   -0.9609   -3.2976    5.6395 H   0  0  0  0  0  0  0  0  0  0  0  0
   -0.6353   -5.4611    6.6695 H   0  0  0  0  0  0  0  0  0  0  0  0
    0.5090   -5.2492    5.3898 H   0  0  0  0  0  0  0  0  0  0  0  0
    0.6273   -3.9469    8.9853 H   0  0  0  0  0  0  0  0  0  0  0  0
    1.7946   -5.1213    9.5287 H   0  0  0  0  0  0  0  0  0  0  0  0
    0.1637   -5.6168    9.1072 H   0  0  0  0  0  0  0  0  0  0  0  0
    1.7091   -6.9045    4.4459 H   0  0  0  0  0  0  0  0  0  0  0  0
  1  2  1  0
  1 34  1  0
  1 35  1  0
  1 36  1  0
  2 32  1  0
  2 37  1  1
  2  3  1  0
  3  4  2  0
  3  7  1  0
  4  5  1  0
  4 38  1  0
  5  6  1  0
  5 33  1  0
  6  7  2  0
  7  8  1  0
  8 32  1  0
  8  9  1  6
  8 10  1  0
  9 39  1  0
  9 40  1  0
  9 41  1  0
 10 11  1  0
 10 42  1  0
 10 43  1  0
 11 12  1  0
 11 44  1  0
 11 45  1  0
 12 30  1  0
 12 13  1  0
 12 46  1  1
 13 14  1  0
 13 32  1  0
 13 47  1  1
 14 15  1  0
 14 48  1  0
 14 49  1  0
 15 16  1  0
 15 50  1  0
 15 51  1  0
 16 30  1  0
 16 17  1  0
 16 52  1  1
 17 26  1  0
 17 18  1  0
 17 53  1  1
 18 19  1  0
 18 54  1  0
 18 55  1  0
 19 20  1  0
 19 56  1  0
 19 57  1  0
 20 21  1  0
 20 26  1  0
 20 58  1  1
 21 22  1  0
 22 23  2  0
 22 24  2  0
 22 25  1  0
 26 27  1  6
 26 28  1  0
 27 59  1  0
 27 60  1  0
 27 61  1  0
 28 29  1  0
 28 62  1  0
 28 63  1  0
 29 30  1  0
 29 64  1  0
 29 65  1  0
 30 31  1  1
 31 66  1  0
 31 67  1  0
 31 68  1  0
 32 69  1  6
M  CHG  1  25  -1
M  END
>  <i_m_ct_stereo_status>  (237) 
1

>  <s_m_source_file>  (237) 
/var/tmp/pbs.5076255.sched01/tmpi5tju4vo/80qzp1lgse.sdf

>  <i_m_source_file_index>  (237) 
26

>  <i_lp_mmshare_version>  (237) 
48012

>  <i_f3d_flags>  (237) 
0

>  <s_epik_input>  (237) 
W25IXTFuW2NIXWMoYzFbQ0BAXTIzW0NIM10pW0NAQEhdKFtDSDNdKVtDQEBIXTNbQ0BASF00W0NASF0oW0NIMl1bQ0gyXTIpW0NAQF01KFtDSDNdKVtDQEBIXShbQ0gyXVtDSDJdNClbQ0BASF02W0NAQF0oW0NIM10pKFtDSDJdW0NIMl01KVtDQEBIXShbQ0gyXVtDSDJdNilPUyg9TykoPU8pW09IXQ==

>  <s_epik_cmdline>  (237) 
J2VwaWtfcHl0aG9uJywgJy1waHQnLCAnMi4wJywgJy1waCcsICc3LjAnLCAnLXRuJywgJzgnLCAnLW1hJywgJzIwMCcsICctaW1hZScsICc8aW5maWxlLm1hZT4nLCAnLW9tYWUnLCAnPG91dGZpbGUubWFlPic=

>  <r_lp_tautomer_probability>  (237) 
0.5

>  <r_epik_Ionization_Penalty>  (237) 
0.00415683

>  <r_epik_Ionization_Penalty_Charging>  (237) 
1.73521e-10

>  <r_epik_Ionization_Penalty_Neutral>  (237) 
0.00415683

>  <r_epik_State_Penalty>  (237) 
0.376756

>  <r_epik_Charging_Adjusted_Penalty>  (237) 
0.376756

>  <i_epik_Tot_Q>  (237) 
-1

>  <i_epik_Tot_abs_Q>  (237) 
1

>  <s_lp_Force_Field>  (237) 
OPLS3e

>  <r_lp_Energy>  (237) 
77.2932

>  <b_lp_Chiralities_Consistent>  (237) 
1

>  <s_lp_Variant>  (237) 
78:0-1

>  <s_i_glide_gridfile>  (237) 
pfpi4k_grid

>  <i_i_glide_lignum>  (237) 
26

>  <i_i_glide_rotatable_bonds>  (237) 
2

>  <r_i_docking_score>  (237) 
-2.68893

>  <r_i_glide_ligand_efficiency>  (237) 
-0.0840289

>  <r_i_glide_ligand_efficiency_sa>  (237) 
-0.266775

>  <r_i_glide_ligand_efficiency_ln>  (237) 
-0.602124

>  <r_i_glide_gscore>  (237) 
-2.68893

>  <r_i_glide_lipo>  (237) 
-0.00578904

>  <r_i_glide_hbond>  (237) 
-0.32

>  <r_i_glide_metal>  (237) 
-0

>  <r_i_glide_rewards>  (237) 
-0.261557

>  <r_i_glide_evdw>  (237) 
-23.1952

>  <r_i_glide_ecoul>  (237) 
-5.57356

>  <r_i_glide_erotb>  (237) 
0.0944947

>  <r_i_glide_esite>  (237) 
-0.200282

>  <r_i_glide_emodel>  (237) 
-34.7424

>  <r_i_glide_energy>  (237) 
-28.7687

>  <r_i_glide_einternal>  (237) 
1.13506

>  <r_i_glide_intrahb_reward>  (237) 
-0

>  <i_i_glide_confnum>  (237) 
2

>  <i_i_glide_posenum>  (237) 
26

>  <r_i_glide_eff_state_penalty>  (237) 
0

>  <ligand_id>  (237) 
78

>  <original_smiles>  (237) 
CC1c2cn[nH]c2C2(C)CCC3C(CCC4C5CCC(OS(=O)(=O)O)C5(C)CCC34C)C12

>  <smiles>  (237) 
[H]c1c2c(nn1[H])C1(C([H])([H])[H])C([H])([H])C([H])([H])C3([H])C([H])(C([H])([H])C([H])([H])C4([H])C5([H])C([H])([H])C([H])([H])C([H])(OS(=O)(=O)[O-])C5(C([H])([H])[H])C([H])([H])C([H])([H])C34C([H])([H])[H])C1([H])C2([H])C([H])([H])[H]

$$$$
78:0:2
     RDKit          3D

 69 74  0  0  1  0  0  0  0  0999 V2000
    2.9145   -7.2362    2.3172 C   0  0  0  0  0  0  0  0  0  0  0  0
    3.0029   -8.0061    3.6443 C   0  0  2  0  0  0  0  0  0  0  0  0
    2.5292   -9.3999    3.5033 C   0  0  0  0  0  0  0  0  0  0  0  0
    2.7901  -10.5600    2.8389 C   0  0  0  0  0  0  0  0  0  0  0  0
    1.8334  -11.4541    3.2996 N   0  0  0  0  0  0  0  0  0  0  0  0
    0.9816  -10.9233    4.2155 N   0  0  0  0  0  0  0  0  0  0  0  0
    1.4402   -9.6903    4.3198 C   0  0  0  0  0  0  0  0  0  0  0  0
    0.9659   -8.5315    5.1223 C   0  0  1  0  0  0  0  0  0  0  0  0
   -0.4365   -8.1152    4.6336 C   0  0  0  0  0  0  0  0  0  0  0  0
    0.9703   -8.8537    6.6352 C   0  0  0  0  0  0  0  0  0  0  0  0
    0.8139   -7.5713    7.4737 C   0  0  0  0  0  0  0  0  0  0  0  0
    1.8926   -6.4841    7.2006 C   0  0  1  0  0  0  0  0  0  0  0  0
    2.8035   -6.8779    5.9989 C   0  0  2  0  0  0  0  0  0  0  0  0
    3.8583   -5.7894    5.7259 C   0  0  0  0  0  0  0  0  0  0  0  0
    3.2427   -4.4059    5.5787 C   0  0  0  0  0  0  0  0  0  0  0  0
    2.5098   -3.9834    6.8671 C   0  0  1  0  0  0  0  0  0  0  0  0
    1.9926   -2.5167    6.8363 C   0  0  1  0  0  0  0  0  0  0  0  0
    2.9408   -1.3382    6.6019 C   0  0  0  0  0  0  0  0  0  0  0  0
    1.9804   -0.1506    6.3761 C   0  0  0  0  0  0  0  0  0  0  0  0
    0.5487   -0.7375    6.3240 C   0  0  1  0  0  0  0  0  0  0  0  0
   -0.2837   -0.0466    5.3943 O   0  0  0  0  0  0  0  0  0  0  0  0
   -1.2021    1.2320    6.0161 S   0  0  0  0  0  0  0  0  0  0  0  0
   -0.2291    2.0589    6.7280 O   0  0  0  0  0  0  0  0  0  0  0  0
   -1.7784    1.8514    4.8154 O   0  0  0  0  0  0  0  0  0  0  0  0
   -2.1842    0.5452    6.8795 O   0  0  0  0  0  0  0  0  0  0  0  0
    0.7585   -2.2288    5.9630 C   0  0  1  0  0  0  0  0  0  0  0  0
    0.9814   -2.3456    4.4274 C   0  0  0  0  0  0  0  0  0  0  0  0
   -0.3549   -3.1926    6.4147 C   0  0  0  0  0  0  0  0  0  0  0  0
    0.1076   -4.6822    6.4025 C   0  0  0  0  0  0  0  0  0  0  0  0
    1.3710   -4.9876    7.2762 C   0  0  1  0  0  0  0  0  0  0  0  0
    0.9859   -4.7701    8.7702 C   0  0  0  0  0  0  0  0  0  0  0  0
    2.0368   -7.4162    4.7498 C   0  0  1  0  0  0  0  0  0  0  0  0
    1.7730  -12.4300    3.0243 H   0  0  0  0  0  0  0  0  0  0  0  0
    3.5500   -7.6836    1.5524 H   0  0  0  0  0  0  0  0  0  0  0  0
    3.2357   -6.2031    2.4524 H   0  0  0  0  0  0  0  0  0  0  0  0
    1.8942   -7.2195    1.9307 H   0  0  0  0  0  0  0  0  0  0  0  0
    4.0385   -8.0167    3.9812 H   0  0  0  0  0  0  0  0  0  0  0  0
    3.5328  -10.8262    2.1022 H   0  0  0  0  0  0  0  0  0  0  0  0
   -0.7491   -7.1710    5.0704 H   0  0  0  0  0  0  0  0  0  0  0  0
   -1.1885   -8.8627    4.8896 H   0  0  0  0  0  0  0  0  0  0  0  0
   -0.4498   -7.9927    3.5504 H   0  0  0  0  0  0  0  0  0  0  0  0
    0.1781   -9.5663    6.8730 H   0  0  0  0  0  0  0  0  0  0  0  0
    1.8936   -9.3642    6.9177 H   0  0  0  0  0  0  0  0  0  0  0  0
   -0.1874   -7.1853    7.3168 H   0  0  0  0  0  0  0  0  0  0  0  0
    0.8284   -7.8351    8.5265 H   0  0  0  0  0  0  0  0  0  0  0  0
    2.5829   -6.5718    8.0456 H   0  0  0  0  0  0  0  0  0  0  0  0
    3.3902   -7.7336    6.3343 H   0  0  0  0  0  0  0  0  0  0  0  0
    4.5648   -5.7671    6.5549 H   0  0  0  0  0  0  0  0  0  0  0  0
    4.4504   -6.0188    4.8404 H   0  0  0  0  0  0  0  0  0  0  0  0
    4.0349   -3.6931    5.3425 H   0  0  0  0  0  0  0  0  0  0  0  0
    2.5808   -4.4384    4.7223 H   0  0  0  0  0  0  0  0  0  0  0  0
    3.2643   -4.0187    7.6518 H   0  0  0  0  0  0  0  0  0  0  0  0
    1.6783   -2.3349    7.8603 H   0  0  0  0  0  0  0  0  0  0  0  0
    3.6062   -1.1701    7.4505 H   0  0  0  0  0  0  0  0  0  0  0  0
    3.5638   -1.4893    5.7202 H   0  0  0  0  0  0  0  0  0  0  0  0
    2.0685    0.6008    7.1630 H   0  0  0  0  0  0  0  0  0  0  0  0
    2.2250    0.3428    5.4369 H   0  0  0  0  0  0  0  0  0  0  0  0
    0.1202   -0.6674    7.3277 H   0  0  0  0  0  0  0  0  0  0  0  0
    0.2194   -1.8022    3.8679 H   0  0  0  0  0  0  0  0  0  0  0  0
    0.9081   -3.3645    4.0586 H   0  0  0  0  0  0  0  0  0  0  0  0
    1.9466   -1.9478    4.1147 H   0  0  0  0  0  0  0  0  0  0  0  0
   -0.6902   -2.9257    7.4164 H   0  0  0  0  0  0  0  0  0  0  0  0
   -1.2251   -3.0577    5.7744 H   0  0  0  0  0  0  0  0  0  0  0  0
   -0.7486   -5.2749    6.7192 H   0  0  0  0  0  0  0  0  0  0  0  0
    0.3040   -4.9840    5.3789 H   0  0  0  0  0  0  0  0  0  0  0  0
    0.6019   -3.7765    8.9935 H   0  0  0  0  0  0  0  0  0  0  0  0
    1.8436   -4.9164    9.4284 H   0  0  0  0  0  0  0  0  0  0  0  0
    0.2111   -5.4660    9.0956 H   0  0  0  0  0  0  0  0  0  0  0  0
    1.5046   -6.5694    4.3118 H   0  0  0  0  0  0  0  0  0  0  0  0
  1  2  1  0
  1 34  1  0
  1 35  1  0
  1 36  1  0
  2 32  1  0
  2 37  1  1
  2  3  1  0
  3  4  2  0
  3  7  1  0
  4  5  1  0
  4 38  1  0
  5  6  1  0
  5 33  1  0
  6  7  2  0
  7  8  1  0
  8 32  1  0
  8  9  1  6
  8 10  1  0
  9 39  1  0
  9 40  1  0
  9 41  1  0
 10 11  1  0
 10 42  1  0
 10 43  1  0
 11 12  1  0
 11 44  1  0
 11 45  1  0
 12 30  1  0
 12 13  1  0
 12 46  1  1
 13 14  1  0
 13 32  1  0
 13 47  1  1
 14 15  1  0
 14 48  1  0
 14 49  1  0
 15 16  1  0
 15 50  1  0
 15 51  1  0
 16 30  1  0
 16 17  1  0
 16 52  1  1
 17 26  1  0
 17 18  1  0
 17 53  1  1
 18 19  1  0
 18 54  1  0
 18 55  1  0
 19 20  1  0
 19 56  1  0
 19 57  1  0
 20 21  1  0
 20 26  1  0
 20 58  1  1
 21 22  1  0
 22 23  2  0
 22 24  2  0
 22 25  1  0
 26 27  1  6
 26 28  1  0
 27 59  1  0
 27 60  1  0
 27 61  1  0
 28 29  1  0
 28 62  1  0
 28 63  1  0
 29 30  1  0
 29 64  1  0
 29 65  1  0
 30 31  1  1
 31 66  1  0
 31 67  1  0
 31 68  1  0
 32 69  1  6
M  CHG  1  25  -1
M  END
>  <i_m_ct_stereo_status>  (238) 
1

>  <s_m_source_file>  (238) 
/var/tmp/pbs.5076255.sched01/tmpi5tju4vo/80qzp1lgse.sdf

>  <i_m_source_file_index>  (238) 
26

>  <i_lp_mmshare_version>  (238) 
48012

>  <i_f3d_flags>  (238) 
0

>  <s_epik_input>  (238) 
W25IXTFuW2NIXWMoYzFbQ0BAXTIzW0NIM10pW0NAQEhdKFtDSDNdKVtDQEBIXTNbQ0BASF00W0NASF0oW0NIMl1bQ0gyXTIpW0NAQF01KFtDSDNdKVtDQEBIXShbQ0gyXVtDSDJdNClbQ0BASF02W0NAQF0oW0NIM10pKFtDSDJdW0NIMl01KVtDQEBIXShbQ0gyXVtDSDJdNilPUyg9TykoPU8pW09IXQ==

>  <s_epik_cmdline>  (238) 
J2VwaWtfcHl0aG9uJywgJy1waHQnLCAnMi4wJywgJy1waCcsICc3LjAnLCAnLXRuJywgJzgnLCAnLW1hJywgJzIwMCcsICctaW1hZScsICc8aW5maWxlLm1hZT4nLCAnLW9tYWUnLCAnPG91dGZpbGUubWFlPic=

>  <r_lp_tautomer_probability>  (238) 
0.5

>  <r_epik_Ionization_Penalty>  (238) 
0.00415683

>  <r_epik_Ionization_Penalty_Charging>  (238) 
1.73521e-10

>  <r_epik_Ionization_Penalty_Neutral>  (238) 
0.00415683

>  <r_epik_State_Penalty>  (238) 
0.376756

>  <r_epik_Charging_Adjusted_Penalty>  (238) 
0.376756

>  <i_epik_Tot_Q>  (238) 
-1

>  <i_epik_Tot_abs_Q>  (238) 
1

>  <s_lp_Force_Field>  (238) 
OPLS3e

>  <r_lp_Energy>  (238) 
77.2932

>  <b_lp_Chiralities_Consistent>  (238) 
1

>  <s_lp_Variant>  (238) 
78:0-1

>  <s_i_glide_gridfile>  (238) 
pfpi4k_grid

>  <i_i_glide_lignum>  (238) 
26

>  <i_i_glide_rotatable_bonds>  (238) 
2

>  <r_i_docking_score>  (238) 
-2.64863

>  <r_i_glide_ligand_efficiency>  (238) 
-0.0827696

>  <r_i_glide_ligand_efficiency_sa>  (238) 
-0.262777

>  <r_i_glide_ligand_efficiency_ln>  (238) 
-0.5931

>  <r_i_glide_gscore>  (238) 
-2.64863

>  <r_i_glide_lipo>  (238) 
-0.0110218

>  <r_i_glide_hbond>  (238) 
-0.39837

>  <r_i_glide_metal>  (238) 
-0

>  <r_i_glide_rewards>  (238) 
-0.261557

>  <r_i_glide_evdw>  (238) 
-23.4426

>  <r_i_glide_ecoul>  (238) 
-5.65788

>  <r_i_glide_erotb>  (238) 
0.0944947

>  <r_i_glide_esite>  (238) 
-0.0513641

>  <r_i_glide_emodel>  (238) 
-35.3538

>  <r_i_glide_energy>  (238) 
-29.1004

>  <r_i_glide_einternal>  (238) 
0.414474

>  <r_i_glide_intrahb_reward>  (238) 
-0

>  <i_i_glide_confnum>  (238) 
1

>  <i_i_glide_posenum>  (238) 
37

>  <r_i_glide_eff_state_penalty>  (238) 
0

>  <ligand_id>  (238) 
78

>  <original_smiles>  (238) 
CC1c2cn[nH]c2C2(C)CCC3C(CCC4C5CCC(OS(=O)(=O)O)C5(C)CCC34C)C12

>  <smiles>  (238) 
[H]c1c2c(nn1[H])C1(C([H])([H])[H])C([H])([H])C([H])([H])C3([H])C([H])(C([H])([H])C([H])([H])C4([H])C5([H])C([H])([H])C([H])([H])C([H])(OS(=O)(=O)[O-])C5(C([H])([H])[H])C([H])([H])C([H])([H])C34C([H])([H])[H])C1([H])C2([H])C([H])([H])[H]

$$$$
78:1:0
     RDKit          3D

 69 74  0  0  1  0  0  0  0  0999 V2000
   -0.9719    0.6874    6.4333 C   0  0  0  0  0  0  0  0  0  0  0  0
    0.2319    1.4158    5.8231 C   0  0  2  0  0  0  0  0  0  0  0  0
   -0.1789    2.6565    5.1198 C   0  0  0  0  0  0  0  0  0  0  0  0
   -0.8142    3.9067    5.3504 C   0  0  0  0  0  0  0  0  0  0  0  0
   -0.8865    4.6196    4.2228 N   0  0  0  0  0  0  0  0  0  0  0  0
   -0.2830    3.8460    3.2879 N   0  0  0  0  0  0  0  0  0  0  0  0
    0.1421    2.6551    3.8252 C   0  0  0  0  0  0  0  0  0  0  0  0
    0.8004    1.4200    3.3300 C   0  0  1  0  0  0  0  0  0  0  0  0
   -0.1289    0.6960    2.3383 C   0  0  0  0  0  0  0  0  0  0  0  0
    2.1745    1.7019    2.6783 C   0  0  0  0  0  0  0  0  0  0  0  0
    2.9894    0.4061    2.5057 C   0  0  0  0  0  0  0  0  0  0  0  0
    3.2192   -0.3845    3.8303 C   0  0  1  0  0  0  0  0  0  0  0  0
    2.4119    0.2306    5.0142 C   0  0  2  0  0  0  0  0  0  0  0  0
    2.6283   -0.5720    6.3133 C   0  0  0  0  0  0  0  0  0  0  0  0
    2.3616   -2.0585    6.1257 C   0  0  0  0  0  0  0  0  0  0  0  0
    3.3261   -2.6623    5.0852 C   0  0  1  0  0  0  0  0  0  0  0  0
    3.2079   -4.2093    4.9604 C   0  0  1  0  0  0  0  0  0  0  0  0
    3.4163   -5.1325    6.1632 C   0  0  0  0  0  0  0  0  0  0  0  0
    2.9267   -6.5038    5.6415 C   0  0  0  0  0  0  0  0  0  0  0  0
    2.3161   -6.2590    4.2351 C   0  0  1  0  0  0  0  0  0  0  0  0
    1.2210   -7.1533    4.0045 O   0  0  0  0  0  0  0  0  0  0  0  0
    0.7916   -7.5106    2.3977 S   0  0  0  0  0  0  0  0  0  0  0  0
    2.0780   -7.6804    1.7005 O   0  0  0  0  0  0  0  0  0  0  0  0
    0.0077   -8.7492    2.5425 O   0  0  0  0  0  0  0  0  0  0  0  0
    0.0026   -6.3484    1.9588 O   0  0  0  0  0  0  0  0  0  0  0  0
    1.9631   -4.7515    4.2381 C   0  0  1  0  0  0  0  0  0  0  0  0
    0.6114   -4.5662    4.9872 C   0  0  0  0  0  0  0  0  0  0  0  0
    1.9320   -4.0676    2.8650 C   0  0  0  0  0  0  0  0  0  0  0  0
    1.9704   -2.5257    2.9482 C   0  0  0  0  0  0  0  0  0  0  0  0
    3.2199   -1.9595    3.6806 C   0  0  1  0  0  0  0  0  0  0  0  0
    4.4744   -2.2949    2.8190 C   0  0  0  0  0  0  0  0  0  0  0  0
    0.9342    0.5866    4.6743 C   0  0  1  0  0  0  0  0  0  0  0  0
   -0.1812    4.1349    2.2965 H   0  0  0  0  0  0  0  0  0  0  0  0
   -1.4651    1.3091    7.1829 H   0  0  0  0  0  0  0  0  0  0  0  0
   -0.6518   -0.2353    6.9156 H   0  0  0  0  0  0  0  0  0  0  0  0
   -1.7133    0.4339    5.6728 H   0  0  0  0  0  0  0  0  0  0  0  0
    0.9336    1.6768    6.6115 H   0  0  0  0  0  0  0  0  0  0  0  0
   -1.2177    4.3125    6.2657 H   0  0  0  0  0  0  0  0  0  0  0  0
    0.2359   -0.3000    2.1057 H   0  0  0  0  0  0  0  0  0  0  0  0
   -0.2222    1.2323    1.3900 H   0  0  0  0  0  0  0  0  0  0  0  0
   -1.1338    0.5782    2.7496 H   0  0  0  0  0  0  0  0  0  0  0  0
    2.0486    2.1970    1.7122 H   0  0  0  0  0  0  0  0  0  0  0  0
    2.7501    2.4060    3.2825 H   0  0  0  0  0  0  0  0  0  0  0  0
    2.4965   -0.1936    1.7418 H   0  0  0  0  0  0  0  0  0  0  0  0
    3.9553    0.6394    2.0622 H   0  0  0  0  0  0  0  0  0  0  0  0
    4.2487   -0.1496    4.1154 H   0  0  0  0  0  0  0  0  0  0  0  0
    2.8833    1.1917    5.2216 H   0  0  0  0  0  0  0  0  0  0  0  0
    3.6608   -0.4462    6.6424 H   0  0  0  0  0  0  0  0  0  0  0  0
    2.0115   -0.1909    7.1266 H   0  0  0  0  0  0  0  0  0  0  0  0
    2.4822   -2.5623    7.0854 H   0  0  0  0  0  0  0  0  0  0  0  0
    1.3210   -2.1735    5.8433 H   0  0  0  0  0  0  0  0  0  0  0  0
    4.3294   -2.4665    5.4628 H   0  0  0  0  0  0  0  0  0  0  0  0
    4.0543   -4.4808    4.3328 H   0  0  0  0  0  0  0  0  0  0  0  0
    4.4626   -5.1621    6.4784 H   0  0  0  0  0  0  0  0  0  0  0  0
    2.8198   -4.8206    7.0220 H   0  0  0  0  0  0  0  0  0  0  0  0
    3.7458   -7.2270    5.5923 H   0  0  0  0  0  0  0  0  0  0  0  0
    2.1847   -6.9129    6.3300 H   0  0  0  0  0  0  0  0  0  0  0  0
    3.1181   -6.4461    3.5188 H   0  0  0  0  0  0  0  0  0  0  0  0
   -0.1395   -5.2744    4.6346 H   0  0  0  0  0  0  0  0  0  0  0  0
    0.1604   -3.5923    4.8244 H   0  0  0  0  0  0  0  0  0  0  0  0
    0.7026   -4.7185    6.0638 H   0  0  0  0  0  0  0  0  0  0  0  0
    2.7407   -4.4433    2.2351 H   0  0  0  0  0  0  0  0  0  0  0  0
    1.0117   -4.3141    2.3669 H   0  0  0  0  0  0  0  0  0  0  0  0
    1.8975   -2.1659    1.9236 H   0  0  0  0  0  0  0  0  0  0  0  0
    1.0643   -2.1763    3.4341 H   0  0  0  0  0  0  0  0  0  0  0  0
    4.6016   -3.3567    2.6110 H   0  0  0  0  0  0  0  0  0  0  0  0
    5.3927   -1.9678    3.3093 H   0  0  0  0  0  0  0  0  0  0  0  0
    4.4345   -1.8092    1.8420 H   0  0  0  0  0  0  0  0  0  0  0  0
    0.3933   -0.3517    4.5518 H   0  0  0  0  0  0  0  0  0  0  0  0
  1  2  1  0
  1 34  1  0
  1 35  1  0
  1 36  1  0
  2 32  1  0
  2  3  1  0
  2 37  1  1
  3  7  2  0
  3  4  1  0
  4  5  2  0
  4 38  1  0
  5  6  1  0
  6 33  1  0
  6  7  1  0
  7  8  1  0
  8 32  1  0
  8  9  1  6
  8 10  1  0
  9 39  1  0
  9 40  1  0
  9 41  1  0
 10 11  1  0
 10 42  1  0
 10 43  1  0
 11 12  1  0
 11 44  1  0
 11 45  1  0
 12 30  1  0
 12 13  1  0
 12 46  1  1
 13 14  1  0
 13 32  1  0
 13 47  1  1
 14 15  1  0
 14 48  1  0
 14 49  1  0
 15 16  1  0
 15 50  1  0
 15 51  1  0
 16 30  1  0
 16 17  1  0
 16 52  1  1
 17 26  1  0
 17 18  1  0
 17 53  1  6
 18 19  1  0
 18 54  1  0
 18 55  1  0
 19 20  1  0
 19 56  1  0
 19 57  1  0
 20 21  1  0
 20 26  1  0
 20 58  1  6
 21 22  1  0
 22 23  2  0
 22 24  2  0
 22 25  1  0
 26 27  1  1
 26 28  1  0
 27 59  1  0
 27 60  1  0
 27 61  1  0
 28 29  1  0
 28 62  1  0
 28 63  1  0
 29 30  1  0
 29 64  1  0
 29 65  1  0
 30 31  1  6
 31 66  1  0
 31 67  1  0
 31 68  1  0
 32 69  1  6
M  CHG  1  25  -1
M  END
>  <i_m_ct_stereo_status>  (239) 
1

>  <s_m_source_file>  (239) 
/var/tmp/pbs.5076255.sched01/tmpi5tju4vo/80qzp1lgse.sdf

>  <i_m_source_file_index>  (239) 
27

>  <i_lp_mmshare_version>  (239) 
48012

>  <i_f3d_flags>  (239) 
0

>  <s_epik_input>  (239) 
W25IXTFuW2NIXWMoYzFbQ0BAXTIzW0NIM10pW0NAQEhdKFtDSDNdKVtDQEBIXTNbQ0BASF00W0NASF0oW0NIMl1bQ0gyXTIpW0NAQF01KFtDSDNdKVtDQEBIXShbQ0gyXVtDSDJdNClbQ0BASF02W0NAQF0oW0NIM10pKFtDSDJdW0NIMl01KVtDQEBIXShbQ0gyXVtDSDJdNilPUyg9TykoPU8pW09IXQ==

>  <s_epik_cmdline>  (239) 
J2VwaWtfcHl0aG9uJywgJy1waHQnLCAnMi4wJywgJy1waCcsICc3LjAnLCAnLXRuJywgJzgnLCAnLW1hJywgJzIwMCcsICctaW1hZScsICc8aW5maWxlLm1hZT4nLCAnLW9tYWUnLCAnPG91dGZpbGUubWFlPic=

>  <r_lp_tautomer_probability>  (239) 
0.5

>  <r_epik_Ionization_Penalty>  (239) 
0.00588944

>  <r_epik_Ionization_Penalty_Charging>  (239) 
1.73521e-10

>  <r_epik_Ionization_Penalty_Neutral>  (239) 
0.00588944

>  <r_epik_State_Penalty>  (239) 
0.450489

>  <r_epik_Charging_Adjusted_Penalty>  (239) 
0.450489

>  <i_epik_Tot_Q>  (239) 
-1

>  <i_epik_Tot_abs_Q>  (239) 
1

>  <s_lp_Force_Field>  (239) 
OPLS3e

>  <r_lp_Energy>  (239) 
79.257

>  <b_lp_Chiralities_Consistent>  (239) 
1

>  <s_lp_Variant>  (239) 
78:0-2

>  <s_i_glide_gridfile>  (239) 
pfpi4k_grid

>  <i_i_glide_lignum>  (239) 
27

>  <i_i_glide_rotatable_bonds>  (239) 
2

>  <r_i_docking_score>  (239) 
-3.50719

>  <r_i_glide_ligand_efficiency>  (239) 
-0.1096

>  <r_i_glide_ligand_efficiency_sa>  (239) 
-0.347957

>  <r_i_glide_ligand_efficiency_ln>  (239) 
-0.785356

>  <r_i_glide_gscore>  (239) 
-3.50719

>  <r_i_glide_lipo>  (239) 
-0.11444

>  <r_i_glide_hbond>  (239) 
-0.525631

>  <r_i_glide_metal>  (239) 
-0

>  <r_i_glide_rewards>  (239) 
-0.261557

>  <r_i_glide_evdw>  (239) 
-22.0804

>  <r_i_glide_ecoul>  (239) 
-9.34344

>  <r_i_glide_erotb>  (239) 
0.0944947

>  <r_i_glide_esite>  (239) 
-0.19452

>  <r_i_glide_emodel>  (239) 
-39.3328

>  <r_i_glide_energy>  (239) 
-31.4239

>  <r_i_glide_einternal>  (239) 
1.77729

>  <r_i_glide_intrahb_reward>  (239) 
-0

>  <i_i_glide_confnum>  (239) 
2

>  <i_i_glide_posenum>  (239) 
11

>  <r_i_glide_eff_state_penalty>  (239) 
0

>  <ligand_id>  (239) 
78

>  <original_smiles>  (239) 
CC1c2cn[nH]c2C2(C)CCC3C(CCC4C5CCC(OS(=O)(=O)O)C5(C)CCC34C)C12

>  <smiles>  (239) 
[H]c1nn([H])c2c1C([H])(C([H])([H])[H])C1([H])C3([H])C([H])([H])C([H])([H])C4([H])C5([H])C([H])([H])C([H])([H])C([H])(OS(=O)(=O)[O-])C5(C([H])([H])[H])C([H])([H])C([H])([H])C4(C([H])([H])[H])C3([H])C([H])([H])C([H])([H])C21C([H])([H])[H]

$$$$
78:1:1
     RDKit          3D

 69 74  0  0  1  0  0  0  0  0999 V2000
   -1.7596    0.4100    6.0051 C   0  0  0  0  0  0  0  0  0  0  0  0
   -0.5756    1.3253    5.6801 C   0  0  2  0  0  0  0  0  0  0  0  0
   -1.0122    2.5646    4.9988 C   0  0  0  0  0  0  0  0  0  0  0  0
   -1.8277    3.7111    5.1835 C   0  0  0  0  0  0  0  0  0  0  0  0
   -1.7687    4.5237    4.1241 N   0  0  0  0  0  0  0  0  0  0  0  0
   -0.9065    3.9034    3.2832 N   0  0  0  0  0  0  0  0  0  0  0  0
   -0.4704    2.7171    3.7995 C   0  0  0  0  0  0  0  0  0  0  0  0
    0.4090    1.6233    3.3422 C   0  0  1  0  0  0  0  0  0  0  0  0
   -0.2318    0.8963    2.1450 C   0  0  0  0  0  0  0  0  0  0  0  0
    1.8236    2.1250    2.9730 C   0  0  0  0  0  0  0  0  0  0  0  0
    2.8090    0.9502    2.8597 C   0  0  0  0  0  0  0  0  0  0  0  0
    2.9174    0.0748    4.1440 C   0  0  1  0  0  0  0  0  0  0  0  0
    1.8487    0.4822    5.2037 C   0  0  2  0  0  0  0  0  0  0  0  0
    1.9404   -0.4048    6.4610 C   0  0  0  0  0  0  0  0  0  0  0  0
    1.9081   -1.8877    6.1226 C   0  0  0  0  0  0  0  0  0  0  0  0
    3.1040   -2.2764    5.2306 C   0  0  1  0  0  0  0  0  0  0  0  0
    3.2160   -3.8046    4.9794 C   0  0  1  0  0  0  0  0  0  0  0  0
    3.3371   -4.8013    6.1364 C   0  0  0  0  0  0  0  0  0  0  0  0
    3.1331   -6.1671    5.4493 C   0  0  0  0  0  0  0  0  0  0  0  0
    2.7574   -5.8656    3.9818 C   0  0  1  0  0  0  0  0  0  0  0  0
    1.8777   -6.8688    3.4856 O   0  0  0  0  0  0  0  0  0  0  0  0
    1.7474   -7.0625    1.7990 S   0  0  0  0  0  0  0  0  0  0  0  0
    0.5665   -6.2544    1.4367 O   0  0  0  0  0  0  0  0  0  0  0  0
    3.0248   -6.5673    1.2566 O   0  0  0  0  0  0  0  0  0  0  0  0
    1.5591   -8.5155    1.6812 O   0  0  0  0  0  0  0  0  0  0  0  0
    2.1992   -4.4245    4.0081 C   0  0  1  0  0  0  0  0  0  0  0  0
    0.7282   -4.4694    4.5127 C   0  0  0  0  0  0  0  0  0  0  0  0
    2.3027   -3.6436    2.6881 C   0  0  0  0  0  0  0  0  0  0  0  0
    2.1258   -2.1136    2.8874 C   0  0  0  0  0  0  0  0  0  0  0  0
    3.1455   -1.4677    3.8805 C   0  0  1  0  0  0  0  0  0  0  0  0
    4.5674   -1.5689    3.2476 C   0  0  0  0  0  0  0  0  0  0  0  0
    0.4181    0.6877    4.6263 C   0  0  1  0  0  0  0  0  0  0  0  0
   -0.6696    4.2452    2.3465 H   0  0  0  0  0  0  0  0  0  0  0  0
   -2.4547    0.9002    6.6899 H   0  0  0  0  0  0  0  0  0  0  0  0
   -1.4048   -0.5113    6.4686 H   0  0  0  0  0  0  0  0  0  0  0  0
   -2.3149    0.1408    5.1033 H   0  0  0  0  0  0  0  0  0  0  0  0
   -0.0622    1.5960    6.6003 H   0  0  0  0  0  0  0  0  0  0  0  0
   -2.4430    3.9767    6.0336 H   0  0  0  0  0  0  0  0  0  0  0  0
    0.2906   -0.0298    1.9071 H   0  0  0  0  0  0  0  0  0  0  0  0
   -0.2269    1.5084    1.2399 H   0  0  0  0  0  0  0  0  0  0  0  0
   -1.2690    0.6282    2.3568 H   0  0  0  0  0  0  0  0  0  0  0  0
    1.8031    2.6941    2.0395 H   0  0  0  0  0  0  0  0  0  0  0  0
    2.1844    2.8328    3.7223 H   0  0  0  0  0  0  0  0  0  0  0  0
    2.5452    0.3725    1.9768 H   0  0  0  0  0  0  0  0  0  0  0  0
    3.7948    1.3483    2.6334 H   0  0  0  0  0  0  0  0  0  0  0  0
    3.8411    0.4015    4.6252 H   0  0  0  0  0  0  0  0  0  0  0  0
    2.1432    1.4705    5.5591 H   0  0  0  0  0  0  0  0  0  0  0  0
    2.8736   -0.1879    6.9796 H   0  0  0  0  0  0  0  0  0  0  0  0
    1.1466   -0.1745    7.1713 H   0  0  0  0  0  0  0  0  0  0  0  0
    1.9285   -2.4599    7.0512 H   0  0  0  0  0  0  0  0  0  0  0  0
    0.9568   -2.0940    5.6466 H   0  0  0  0  0  0  0  0  0  0  0  0
    3.9915   -1.9986    5.7959 H   0  0  0  0  0  0  0  0  0  0  0  0
    4.1876   -3.9145    4.4998 H   0  0  0  0  0  0  0  0  0  0  0  0
    4.3064   -4.7370    6.6332 H   0  0  0  0  0  0  0  0  0  0  0  0
    2.5642   -4.6437    6.8885 H   0  0  0  0  0  0  0  0  0  0  0  0
    4.0342   -6.7820    5.4927 H   0  0  0  0  0  0  0  0  0  0  0  0
    2.3406   -6.7239    5.9515 H   0  0  0  0  0  0  0  0  0  0  0  0
    3.6970   -5.8883    3.4315 H   0  0  0  0  0  0  0  0  0  0  0  0
    0.1534   -5.2286    3.9829 H   0  0  0  0  0  0  0  0  0  0  0  0
    0.1885   -3.5429    4.3377 H   0  0  0  0  0  0  0  0  0  0  0  0
    0.6572   -4.7057    5.5744 H   0  0  0  0  0  0  0  0  0  0  0  0
    3.2561   -3.8509    2.1995 H   0  0  0  0  0  0  0  0  0  0  0  0
    1.5517   -4.0030    1.9969 H   0  0  0  0  0  0  0  0  0  0  0  0
    2.1860   -1.6663    1.8954 H   0  0  0  0  0  0  0  0  0  0  0  0
    1.1115   -1.9132    3.2260 H   0  0  0  0  0  0  0  0  0  0  0  0
    4.8723   -2.5821    2.9924 H   0  0  0  0  0  0  0  0  0  0  0  0
    5.3322   -1.1815    3.9207 H   0  0  0  0  0  0  0  0  0  0  0  0
    4.6378   -0.9998    2.3191 H   0  0  0  0  0  0  0  0  0  0  0  0
    0.0320   -0.2914    4.3371 H   0  0  0  0  0  0  0  0  0  0  0  0
  1  2  1  0
  1 34  1  0
  1 35  1  0
  1 36  1  0
  2 32  1  0
  2  3  1  0
  2 37  1  1
  3  7  2  0
  3  4  1  0
  4  5  2  0
  4 38  1  0
  5  6  1  0
  6 33  1  0
  6  7  1  0
  7  8  1  0
  8 32  1  0
  8  9  1  6
  8 10  1  0
  9 39  1  0
  9 40  1  0
  9 41  1  0
 10 11  1  0
 10 42  1  0
 10 43  1  0
 11 12  1  0
 11 44  1  0
 11 45  1  0
 12 30  1  0
 12 13  1  0
 12 46  1  1
 13 14  1  0
 13 32  1  0
 13 47  1  1
 14 15  1  0
 14 48  1  0
 14 49  1  0
 15 16  1  0
 15 50  1  0
 15 51  1  0
 16 30  1  0
 16 17  1  0
 16 52  1  1
 17 26  1  0
 17 18  1  0
 17 53  1  6
 18 19  1  0
 18 54  1  0
 18 55  1  0
 19 20  1  0
 19 56  1  0
 19 57  1  0
 20 21  1  0
 20 26  1  0
 20 58  1  6
 21 22  1  0
 22 23  2  0
 22 24  2  0
 22 25  1  0
 26 27  1  1
 26 28  1  0
 27 59  1  0
 27 60  1  0
 27 61  1  0
 28 29  1  0
 28 62  1  0
 28 63  1  0
 29 30  1  0
 29 64  1  0
 29 65  1  0
 30 31  1  6
 31 66  1  0
 31 67  1  0
 31 68  1  0
 32 69  1  6
M  CHG  1  25  -1
M  END
>  <i_m_ct_stereo_status>  (240) 
1

>  <s_m_source_file>  (240) 
/var/tmp/pbs.5076255.sched01/tmpi5tju4vo/80qzp1lgse.sdf

>  <i_m_source_file_index>  (240) 
27

>  <i_lp_mmshare_version>  (240) 
48012

>  <i_f3d_flags>  (240) 
0

>  <s_epik_input>  (240) 
W25IXTFuW2NIXWMoYzFbQ0BAXTIzW0NIM10pW0NAQEhdKFtDSDNdKVtDQEBIXTNbQ0BASF00W0NASF0oW0NIMl1bQ0gyXTIpW0NAQF01KFtDSDNdKVtDQEBIXShbQ0gyXVtDSDJdNClbQ0BASF02W0NAQF0oW0NIM10pKFtDSDJdW0NIMl01KVtDQEBIXShbQ0gyXVtDSDJdNilPUyg9TykoPU8pW09IXQ==

>  <s_epik_cmdline>  (240) 
J2VwaWtfcHl0aG9uJywgJy1waHQnLCAnMi4wJywgJy1waCcsICc3LjAnLCAnLXRuJywgJzgnLCAnLW1hJywgJzIwMCcsICctaW1hZScsICc8aW5maWxlLm1hZT4nLCAnLW9tYWUnLCAnPG91dGZpbGUubWFlPic=

>  <r_lp_tautomer_probability>  (240) 
0.5

>  <r_epik_Ionization_Penalty>  (240) 
0.00588944

>  <r_epik_Ionization_Penalty_Charging>  (240) 
1.73521e-10

>  <r_epik_Ionization_Penalty_Neutral>  (240) 
0.00588944

>  <r_epik_State_Penalty>  (240) 
0.450489

>  <r_epik_Charging_Adjusted_Penalty>  (240) 
0.450489

>  <i_epik_Tot_Q>  (240) 
-1

>  <i_epik_Tot_abs_Q>  (240) 
1

>  <s_lp_Force_Field>  (240) 
OPLS3e

>  <r_lp_Energy>  (240) 
79.257

>  <b_lp_Chiralities_Consistent>  (240) 
1

>  <s_lp_Variant>  (240) 
78:0-2

>  <s_i_glide_gridfile>  (240) 
pfpi4k_grid

>  <i_i_glide_lignum>  (240) 
27

>  <i_i_glide_rotatable_bonds>  (240) 
2

>  <r_i_docking_score>  (240) 
-3.07012

>  <r_i_glide_ligand_efficiency>  (240) 
-0.0959412

>  <r_i_glide_ligand_efficiency_sa>  (240) 
-0.304594

>  <r_i_glide_ligand_efficiency_ln>  (240) 
-0.687483

>  <r_i_glide_gscore>  (240) 
-3.07012

>  <r_i_glide_lipo>  (240) 
-0.0445467

>  <r_i_glide_hbond>  (240) 
-0.290335

>  <r_i_glide_metal>  (240) 
-0

>  <r_i_glide_rewards>  (240) 
-0.261557

>  <r_i_glide_evdw>  (240) 
-23.231

>  <r_i_glide_ecoul>  (240) 
-7.8507

>  <r_i_glide_erotb>  (240) 
0.0944947

>  <r_i_glide_esite>  (240) 
-0.229021

>  <r_i_glide_emodel>  (240) 
-37.3221

>  <r_i_glide_energy>  (240) 
-31.0817

>  <r_i_glide_einternal>  (240) 
3.09391

>  <r_i_glide_intrahb_reward>  (240) 
-0

>  <i_i_glide_confnum>  (240) 
4

>  <i_i_glide_posenum>  (240) 
15

>  <r_i_glide_eff_state_penalty>  (240) 
0

>  <ligand_id>  (240) 
78

>  <original_smiles>  (240) 
CC1c2cn[nH]c2C2(C)CCC3C(CCC4C5CCC(OS(=O)(=O)O)C5(C)CCC34C)C12

>  <smiles>  (240) 
[H]c1nn([H])c2c1C([H])(C([H])([H])[H])C1([H])C3([H])C([H])([H])C([H])([H])C4([H])C5([H])C([H])([H])C([H])([H])C([H])(OS(=O)(=O)[O-])C5(C([H])([H])[H])C([H])([H])C([H])([H])C4(C([H])([H])[H])C3([H])C([H])([H])C([H])([H])C21C([H])([H])[H]

$$$$
78:1:2
     RDKit          3D

 69 74  0  0  1  0  0  0  0  0999 V2000
   -0.8110    1.1286    2.0928 C   0  0  0  0  0  0  0  0  0  0  0  0
   -0.5044    1.1594    3.5930 C   0  0  2  0  0  0  0  0  0  0  0  0
   -0.7556    2.4950    4.1762 C   0  0  0  0  0  0  0  0  0  0  0  0
   -1.8061    3.4315    4.3669 C   0  0  0  0  0  0  0  0  0  0  0  0
   -1.3525    4.5222    4.9956 N   0  0  0  0  0  0  0  0  0  0  0  0
   -0.0287    4.2861    5.2132 N   0  0  0  0  0  0  0  0  0  0  0  0
    0.3215    3.0562    4.7063 C   0  0  0  0  0  0  0  0  0  0  0  0
    1.5685    2.2723    4.5932 C   0  0  1  0  0  0  0  0  0  0  0  0
    2.5640    3.0016    3.6674 C   0  0  0  0  0  0  0  0  0  0  0  0
    2.2085    1.9852    5.9737 C   0  0  0  0  0  0  0  0  0  0  0  0
    3.2776    0.8840    5.8740 C   0  0  0  0  0  0  0  0  0  0  0  0
    2.7620   -0.4623    5.2787 C   0  0  1  0  0  0  0  0  0  0  0  0
    1.2986   -0.3287    4.7545 C   0  0  2  0  0  0  0  0  0  0  0  0
    0.8022   -1.6573    4.1504 C   0  0  0  0  0  0  0  0  0  0  0  0
    1.7613   -2.2095    3.1062 C   0  0  0  0  0  0  0  0  0  0  0  0
    3.1419   -2.5071    3.7236 C   0  0  1  0  0  0  0  0  0  0  0  0
    4.1191   -3.2203    2.7475 C   0  0  1  0  0  0  0  0  0  0  0  0
    3.7635   -4.5591    2.0939 C   0  0  0  0  0  0  0  0  0  0  0  0
    4.8650   -4.7369    1.0282 C   0  0  0  0  0  0  0  0  0  0  0  0
    5.6902   -3.4297    1.0251 C   0  0  1  0  0  0  0  0  0  0  0  0
    6.1283   -3.1410   -0.2899 O   0  0  0  0  0  0  0  0  0  0  0  0
    7.7496   -2.6787   -0.4623 S   0  0  0  0  0  0  0  0  0  0  0  0
    7.9132   -1.5632    0.4806 O   0  0  0  0  0  0  0  0  0  0  0  0
    8.5013   -3.9007   -0.1310 O   0  0  0  0  0  0  0  0  0  0  0  0
    7.7998   -2.2712   -1.8721 O   0  0  0  0  0  0  0  0  0  0  0  0
    4.7324   -2.3658    1.6237 C   0  0  1  0  0  0  0  0  0  0  0  0
    3.7383   -1.8963    0.5203 C   0  0  0  0  0  0  0  0  0  0  0  0
    5.4020   -1.1473    2.2857 C   0  0  0  0  0  0  0  0  0  0  0  0
    4.4384   -0.3751    3.2296 C   0  0  0  0  0  0  0  0  0  0  0  0
    3.8044   -1.2351    4.3713 C   0  0  1  0  0  0  0  0  0  0  0  0
    4.9420   -1.6723    5.3446 C   0  0  0  0  0  0  0  0  0  0  0  0
    1.0337    0.9442    3.9002 C   0  0  1  0  0  0  0  0  0  0  0  0
    0.5701    4.9517    5.6749 H   0  0  0  0  0  0  0  0  0  0  0  0
   -1.8677    1.3274    1.8981 H   0  0  0  0  0  0  0  0  0  0  0  0
   -0.5716    0.1502    1.6759 H   0  0  0  0  0  0  0  0  0  0  0  0
   -0.2312    1.8711    1.5403 H   0  0  0  0  0  0  0  0  0  0  0  0
   -1.1246    0.4272    4.1048 H   0  0  0  0  0  0  0  0  0  0  0  0
   -2.8500    3.3690    4.0874 H   0  0  0  0  0  0  0  0  0  0  0  0
    3.4096    2.3681    3.4030 H   0  0  0  0  0  0  0  0  0  0  0  0
    2.9652    3.9059    4.1270 H   0  0  0  0  0  0  0  0  0  0  0  0
    2.0834    3.2948    2.7300 H   0  0  0  0  0  0  0  0  0  0  0  0
    2.6429    2.8947    6.3933 H   0  0  0  0  0  0  0  0  0  0  0  0
    1.4435    1.6815    6.6920 H   0  0  0  0  0  0  0  0  0  0  0  0
    4.1196    1.2871    5.3172 H   0  0  0  0  0  0  0  0  0  0  0  0
    3.6879    0.6955    6.8648 H   0  0  0  0  0  0  0  0  0  0  0  0
    2.6281   -1.1119    6.1452 H   0  0  0  0  0  0  0  0  0  0  0  0
    0.6753   -0.1960    5.6397 H   0  0  0  0  0  0  0  0  0  0  0  0
    0.6953   -2.3935    4.9469 H   0  0  0  0  0  0  0  0  0  0  0  0
   -0.1881   -1.5505    3.7103 H   0  0  0  0  0  0  0  0  0  0  0  0
    1.3349   -3.1204    2.6851 H   0  0  0  0  0  0  0  0  0  0  0  0
    1.8160   -1.4884    2.2982 H   0  0  0  0  0  0  0  0  0  0  0  0
    2.9514   -3.2136    4.5296 H   0  0  0  0  0  0  0  0  0  0  0  0
    4.9514   -3.5113    3.3868 H   0  0  0  0  0  0  0  0  0  0  0  0
    3.7593   -5.3794    2.8124 H   0  0  0  0  0  0  0  0  0  0  0  0
    2.7819   -4.5283    1.6193 H   0  0  0  0  0  0  0  0  0  0  0  0
    5.5048   -5.5954    1.2384 H   0  0  0  0  0  0  0  0  0  0  0  0
    4.4082   -4.9091    0.0529 H   0  0  0  0  0  0  0  0  0  0  0  0
    6.5499   -3.5664    1.6841 H   0  0  0  0  0  0  0  0  0  0  0  0
    4.2596   -1.6299   -0.3990 H   0  0  0  0  0  0  0  0  0  0  0  0
    3.1909   -0.9971    0.7897 H   0  0  0  0  0  0  0  0  0  0  0  0
    3.0051   -2.6600    0.2630 H   0  0  0  0  0  0  0  0  0  0  0  0
    6.2724   -1.4740    2.8516 H   0  0  0  0  0  0  0  0  0  0  0  0
    5.7897   -0.4746    1.5225 H   0  0  0  0  0  0  0  0  0  0  0  0
    5.0084    0.4621    3.6294 H   0  0  0  0  0  0  0  0  0  0  0  0
    3.6473    0.0753    2.6331 H   0  0  0  0  0  0  0  0  0  0  0  0
    5.7521   -2.2186    4.8667 H   0  0  0  0  0  0  0  0  0  0  0  0
    4.5638   -2.3201    6.1347 H   0  0  0  0  0  0  0  0  0  0  0  0
    5.4113   -0.8138    5.8291 H   0  0  0  0  0  0  0  0  0  0  0  0
    1.5536    0.8212    2.9502 H   0  0  0  0  0  0  0  0  0  0  0  0
  1  2  1  0
  1 34  1  0
  1 35  1  0
  1 36  1  0
  2 32  1  0
  2  3  1  0
  2 37  1  1
  3  7  2  0
  3  4  1  0
  4  5  2  0
  4 38  1  0
  5  6  1  0
  6 33  1  0
  6  7  1  0
  7  8  1  0
  8 32  1  0
  8  9  1  6
  8 10  1  0
  9 39  1  0
  9 40  1  0
  9 41  1  0
 10 11  1  0
 10 42  1  0
 10 43  1  0
 11 12  1  0
 11 44  1  0
 11 45  1  0
 12 30  1  0
 12 13  1  0
 12 46  1  1
 13 14  1  0
 13 32  1  0
 13 47  1  1
 14 15  1  0
 14 48  1  0
 14 49  1  0
 15 16  1  0
 15 50  1  0
 15 51  1  0
 16 30  1  0
 16 17  1  0
 16 52  1  1
 17 26  1  0
 17 18  1  0
 17 53  1  1
 18 19  1  0
 18 54  1  0
 18 55  1  0
 19 20  1  0
 19 56  1  0
 19 57  1  0
 20 21  1  0
 20 26  1  0
 20 58  1  1
 21 22  1  0
 22 23  2  0
 22 24  2  0
 22 25  1  0
 26 27  1  6
 26 28  1  0
 27 59  1  0
 27 60  1  0
 27 61  1  0
 28 29  1  0
 28 62  1  0
 28 63  1  0
 29 30  1  0
 29 64  1  0
 29 65  1  0
 30 31  1  1
 31 66  1  0
 31 67  1  0
 31 68  1  0
 32 69  1  6
M  CHG  1  25  -1
M  END
>  <i_m_ct_stereo_status>  (241) 
1

>  <s_m_source_file>  (241) 
/var/tmp/pbs.5076255.sched01/tmpi5tju4vo/80qzp1lgse.sdf

>  <i_m_source_file_index>  (241) 
27

>  <i_lp_mmshare_version>  (241) 
48012

>  <i_f3d_flags>  (241) 
0

>  <s_epik_input>  (241) 
W25IXTFuW2NIXWMoYzFbQ0BAXTIzW0NIM10pW0NAQEhdKFtDSDNdKVtDQEBIXTNbQ0BASF00W0NASF0oW0NIMl1bQ0gyXTIpW0NAQF01KFtDSDNdKVtDQEBIXShbQ0gyXVtDSDJdNClbQ0BASF02W0NAQF0oW0NIM10pKFtDSDJdW0NIMl01KVtDQEBIXShbQ0gyXVtDSDJdNilPUyg9TykoPU8pW09IXQ==

>  <s_epik_cmdline>  (241) 
J2VwaWtfcHl0aG9uJywgJy1waHQnLCAnMi4wJywgJy1waCcsICc3LjAnLCAnLXRuJywgJzgnLCAnLW1hJywgJzIwMCcsICctaW1hZScsICc8aW5maWxlLm1hZT4nLCAnLW9tYWUnLCAnPG91dGZpbGUubWFlPic=

>  <r_lp_tautomer_probability>  (241) 
0.5

>  <r_epik_Ionization_Penalty>  (241) 
0.00588944

>  <r_epik_Ionization_Penalty_Charging>  (241) 
1.73521e-10

>  <r_epik_Ionization_Penalty_Neutral>  (241) 
0.00588944

>  <r_epik_State_Penalty>  (241) 
0.450489

>  <r_epik_Charging_Adjusted_Penalty>  (241) 
0.450489

>  <i_epik_Tot_Q>  (241) 
-1

>  <i_epik_Tot_abs_Q>  (241) 
1

>  <s_lp_Force_Field>  (241) 
OPLS3e

>  <r_lp_Energy>  (241) 
79.257

>  <b_lp_Chiralities_Consistent>  (241) 
1

>  <s_lp_Variant>  (241) 
78:0-2

>  <s_i_glide_gridfile>  (241) 
pfpi4k_grid

>  <i_i_glide_lignum>  (241) 
27

>  <i_i_glide_rotatable_bonds>  (241) 
2

>  <r_i_docking_score>  (241) 
-2.67885

>  <r_i_glide_ligand_efficiency>  (241) 
-0.083714

>  <r_i_glide_ligand_efficiency_sa>  (241) 
-0.265775

>  <r_i_glide_ligand_efficiency_ln>  (241) 
-0.599867

>  <r_i_glide_gscore>  (241) 
-2.67885

>  <r_i_glide_lipo>  (241) 
-0.355822

>  <r_i_glide_hbond>  (241) 
-0.209978

>  <r_i_glide_metal>  (241) 
-0

>  <r_i_glide_rewards>  (241) 
-0.261557

>  <r_i_glide_evdw>  (241) 
-28.0489

>  <r_i_glide_ecoul>  (241) 
-3.27626

>  <r_i_glide_erotb>  (241) 
0.0944947

>  <r_i_glide_esite>  (241) 
-0.0521032

>  <r_i_glide_emodel>  (241) 
-37.6838

>  <r_i_glide_energy>  (241) 
-31.3251

>  <r_i_glide_einternal>  (241) 
0.849925

>  <r_i_glide_intrahb_reward>  (241) 
-0

>  <i_i_glide_confnum>  (241) 
3

>  <i_i_glide_posenum>  (241) 
10

>  <r_i_glide_eff_state_penalty>  (241) 
0

>  <ligand_id>  (241) 
78

>  <original_smiles>  (241) 
CC1c2cn[nH]c2C2(C)CCC3C(CCC4C5CCC(OS(=O)(=O)O)C5(C)CCC34C)C12

>  <smiles>  (241) 
[H]c1nn([H])c2c1C([H])(C([H])([H])[H])C1([H])C3([H])C([H])([H])C([H])([H])C4([H])C5([H])C([H])([H])C([H])([H])C([H])(OS(=O)(=O)[O-])C5(C([H])([H])[H])C([H])([H])C([H])([H])C4(C([H])([H])[H])C3([H])C([H])([H])C([H])([H])C21C([H])([H])[H]

$$$$
79:0:0
     RDKit          3D

 15 16  0  0  1  0  0  0  0  0999 V2000
    0.6719  -10.4073    2.8922 C   0  0  0  0  0  0  0  0  0  0  0  0
    1.5389   -9.2881    2.3491 C   0  0  0  0  0  0  0  0  0  0  0  0
    2.9123   -9.4962    2.0805 C   0  0  0  0  0  0  0  0  0  0  0  0
    3.7136   -8.5255    1.5898 N   0  0  0  0  0  0  0  0  0  0  0  0
    3.0676   -7.3795    1.3828 N   0  0  0  0  0  0  0  0  0  0  0  0
    3.6521   -6.2607    0.8871 N   0  0  0  0  0  0  0  0  0  0  0  0
    2.6312   -5.4120    0.8407 C   0  0  0  0  0  0  0  0  0  0  0  0
    1.4200   -5.8856    1.2638 N   0  0  0  0  0  0  0  0  0  0  0  0
    1.7043   -7.1348    1.6224 C   0  0  0  0  0  0  0  0  0  0  0  0
    0.9002   -8.1092    2.1310 N   0  0  0  0  0  0  0  0  0  0  0  0
    1.2464  -11.3231    3.0470 H   0  0  0  0  0  0  0  0  0  0  0  0
   -0.1384  -10.6282    2.1953 H   0  0  0  0  0  0  0  0  0  0  0  0
    0.2327  -10.1100    3.8466 H   0  0  0  0  0  0  0  0  0  0  0  0
    3.3843  -10.4539    2.2580 H   0  0  0  0  0  0  0  0  0  0  0  0
    2.7656   -4.3991    0.4933 H   0  0  0  0  0  0  0  0  0  0  0  0
  1  2  1  0
  1 11  1  0
  1 12  1  0
  1 13  1  0
  2 10  2  0
  2  3  1  0
  3  4  2  0
  3 14  1  0
  4  5  1  0
  5  9  1  0
  5  6  1  0
  6  7  2  0
  7  8  1  0
  7 15  1  0
  8  9  2  0
  9 10  1  0
M  END
>  <i_m_ct_stereo_status>  (242) 
1

>  <s_m_source_file>  (242) 
/var/tmp/pbs.5076255.sched01/tmpi5tju4vo/80qzp1lgse.sdf

>  <i_m_source_file_index>  (242) 
28

>  <i_lp_mmshare_version>  (242) 
48012

>  <i_f3d_flags>  (242) 
0

>  <s_epik_input>  (242) 
bjFbY0hdYyhbQ0gzXSluYyhuMTIpbltjSF1uMg==

>  <s_epik_cmdline>  (242) 
J2VwaWtfcHl0aG9uJywgJy1waHQnLCAnMi4wJywgJy1waCcsICc3LjAnLCAnLXRuJywgJzgnLCAnLW1hJywgJzIwMCcsICctaW1hZScsICc8aW5maWxlLm1hZT4nLCAnLW9tYWUnLCAnPG91dGZpbGUubWFlPic=

>  <r_lp_tautomer_probability>  (242) 
1

>  <r_epik_Ionization_Penalty>  (242) 
2.21559e-10

>  <r_epik_Ionization_Penalty_Charging>  (242) 
0

>  <r_epik_Ionization_Penalty_Neutral>  (242) 
2.21559e-10

>  <r_epik_State_Penalty>  (242) 
-0

>  <r_epik_Charging_Adjusted_Penalty>  (242) 
0

>  <i_epik_Tot_Q>  (242) 
0

>  <i_epik_Tot_abs_Q>  (242) 
0

>  <s_lp_Force_Field>  (242) 
OPLS3e

>  <r_lp_Energy>  (242) 
16.5317

>  <b_lp_Chiralities_Consistent>  (242) 
1

>  <s_lp_Variant>  (242) 
79:0-1

>  <s_i_glide_gridfile>  (242) 
pfpi4k_grid

>  <i_i_glide_lignum>  (242) 
28

>  <i_i_glide_rotatable_bonds>  (242) 
0

>  <r_i_docking_score>  (242) 
-3.96926

>  <r_i_glide_ligand_efficiency>  (242) 
-0.396926

>  <r_i_glide_ligand_efficiency_sa>  (242) 
-0.85515

>  <r_i_glide_ligand_efficiency_ln>  (242) 
-1.20186

>  <r_i_glide_gscore>  (242) 
-3.96926

>  <r_i_glide_lipo>  (242) 
-0.191431

>  <r_i_glide_hbond>  (242) 
-0.144883

>  <r_i_glide_metal>  (242) 
-0

>  <r_i_glide_rewards>  (242) 
-2.33699

>  <r_i_glide_evdw>  (242) 
-13.3824

>  <r_i_glide_ecoul>  (242) 
-3.74024

>  <r_i_glide_erotb>  (242) 
0

>  <r_i_glide_esite>  (242) 
-0.0657969

>  <r_i_glide_emodel>  (242) 
-22.7366

>  <r_i_glide_energy>  (242) 
-17.1226

>  <r_i_glide_einternal>  (242) 
0

>  <r_i_glide_intrahb_reward>  (242) 
-0

>  <i_i_glide_confnum>  (242) 
2

>  <i_i_glide_posenum>  (242) 
10

>  <r_i_glide_eff_state_penalty>  (242) 
0

>  <ligand_id>  (242) 
79

>  <original_smiles>  (242) 
Cc1cnn2ncnc2n1

>  <smiles>  (242) 
[H]c1nc2nc(C([H])([H])[H])c([H])nn2n1

$$$$
79:0:1
     RDKit          3D

 15 16  0  0  1  0  0  0  0  0999 V2000
   -2.0969   -8.9115    2.7406 C   0  0  0  0  0  0  0  0  0  0  0  0
   -0.6566   -8.5322    2.4810 C   0  0  0  0  0  0  0  0  0  0  0  0
    0.4072   -9.3635    2.9038 C   0  0  0  0  0  0  0  0  0  0  0  0
    1.7048   -9.0596    2.6791 N   0  0  0  0  0  0  0  0  0  0  0  0
    1.8567   -7.9096    2.0203 N   0  0  0  0  0  0  0  0  0  0  0  0
    3.0599   -7.3768    1.6806 N   0  0  0  0  0  0  0  0  0  0  0  0
    2.7063   -6.2553    1.0619 C   0  0  0  0  0  0  0  0  0  0  0  0
    1.3655   -6.0125    0.9664 N   0  0  0  0  0  0  0  0  0  0  0  0
    0.8297   -7.0594    1.5835 C   0  0  0  0  0  0  0  0  0  0  0  0
   -0.4770   -7.3555    1.8251 N   0  0  0  0  0  0  0  0  0  0  0  0
   -2.1672   -9.8549    3.2757 H   0  0  0  0  0  0  0  0  0  0  0  0
   -2.6276   -9.0143    1.7949 H   0  0  0  0  0  0  0  0  0  0  0  0
   -2.5865   -8.1412    3.3365 H   0  0  0  0  0  0  0  0  0  0  0  0
    0.2197  -10.2876    3.4298 H   0  0  0  0  0  0  0  0  0  0  0  0
    3.4466   -5.5795    0.6538 H   0  0  0  0  0  0  0  0  0  0  0  0
  1  2  1  0
  1 11  1  0
  1 12  1  0
  1 13  1  0
  2 10  2  0
  2  3  1  0
  3  4  2  0
  3 14  1  0
  4  5  1  0
  5  9  1  0
  5  6  1  0
  6  7  2  0
  7  8  1  0
  7 15  1  0
  8  9  2  0
  9 10  1  0
M  END
>  <i_m_ct_stereo_status>  (243) 
1

>  <s_m_source_file>  (243) 
/var/tmp/pbs.5076255.sched01/tmpi5tju4vo/80qzp1lgse.sdf

>  <i_m_source_file_index>  (243) 
28

>  <i_lp_mmshare_version>  (243) 
48012

>  <i_f3d_flags>  (243) 
0

>  <s_epik_input>  (243) 
bjFbY0hdYyhbQ0gzXSluYyhuMTIpbltjSF1uMg==

>  <s_epik_cmdline>  (243) 
J2VwaWtfcHl0aG9uJywgJy1waHQnLCAnMi4wJywgJy1waCcsICc3LjAnLCAnLXRuJywgJzgnLCAnLW1hJywgJzIwMCcsICctaW1hZScsICc8aW5maWxlLm1hZT4nLCAnLW9tYWUnLCAnPG91dGZpbGUubWFlPic=

>  <r_lp_tautomer_probability>  (243) 
1

>  <r_epik_Ionization_Penalty>  (243) 
2.21559e-10

>  <r_epik_Ionization_Penalty_Charging>  (243) 
0

>  <r_epik_Ionization_Penalty_Neutral>  (243) 
2.21559e-10

>  <r_epik_State_Penalty>  (243) 
-0

>  <r_epik_Charging_Adjusted_Penalty>  (243) 
0

>  <i_epik_Tot_Q>  (243) 
0

>  <i_epik_Tot_abs_Q>  (243) 
0

>  <s_lp_Force_Field>  (243) 
OPLS3e

>  <r_lp_Energy>  (243) 
16.5317

>  <b_lp_Chiralities_Consistent>  (243) 
1

>  <s_lp_Variant>  (243) 
79:0-1

>  <s_i_glide_gridfile>  (243) 
pfpi4k_grid

>  <i_i_glide_lignum>  (243) 
28

>  <i_i_glide_rotatable_bonds>  (243) 
0

>  <r_i_docking_score>  (243) 
-3.94397

>  <r_i_glide_ligand_efficiency>  (243) 
-0.394397

>  <r_i_glide_ligand_efficiency_sa>  (243) 
-0.849702

>  <r_i_glide_ligand_efficiency_ln>  (243) 
-1.19421

>  <r_i_glide_gscore>  (243) 
-3.94397

>  <r_i_glide_lipo>  (243) 
-0.0436947

>  <r_i_glide_hbond>  (243) 
-0.16

>  <r_i_glide_metal>  (243) 
-0

>  <r_i_glide_rewards>  (243) 
-2.25

>  <r_i_glide_evdw>  (243) 
-15.625

>  <r_i_glide_ecoul>  (243) 
-4.0544

>  <r_i_glide_erotb>  (243) 
0

>  <r_i_glide_esite>  (243) 
-0.100863

>  <r_i_glide_emodel>  (243) 
-25.2568

>  <r_i_glide_energy>  (243) 
-19.6794

>  <r_i_glide_einternal>  (243) 
0

>  <r_i_glide_intrahb_reward>  (243) 
-0

>  <i_i_glide_confnum>  (243) 
1

>  <i_i_glide_posenum>  (243) 
1

>  <r_i_glide_eff_state_penalty>  (243) 
0

>  <ligand_id>  (243) 
79

>  <original_smiles>  (243) 
Cc1cnn2ncnc2n1

>  <smiles>  (243) 
[H]c1nc2nc(C([H])([H])[H])c([H])nn2n1

$$$$
79:0:2
     RDKit          3D

 15 16  0  0  1  0  0  0  0  0999 V2000
    2.7636   -5.6682    0.6522 C   0  0  0  0  0  0  0  0  0  0  0  0
    1.9365   -6.7483    1.3152 C   0  0  0  0  0  0  0  0  0  0  0  0
    2.5145   -7.9875    1.6834 C   0  0  0  0  0  0  0  0  0  0  0  0
    1.8094   -8.9708    2.2816 N   0  0  0  0  0  0  0  0  0  0  0  0
    0.5333   -8.6420    2.4772 N   0  0  0  0  0  0  0  0  0  0  0  0
   -0.3783   -9.4569    3.0505 N   0  0  0  0  0  0  0  0  0  0  0  0
   -1.4754   -8.7104    3.0313 C   0  0  0  0  0  0  0  0  0  0  0  0
   -1.3535   -7.4602    2.4924 N   0  0  0  0  0  0  0  0  0  0  0  0
   -0.0778   -7.4295    2.1243 C   0  0  0  0  0  0  0  0  0  0  0  0
    0.6302   -6.4378    1.5167 N   0  0  0  0  0  0  0  0  0  0  0  0
    3.7982   -5.9866    0.5106 H   0  0  0  0  0  0  0  0  0  0  0  0
    2.7616   -4.7644    1.2641 H   0  0  0  0  0  0  0  0  0  0  0  0
    2.3434   -5.4231   -0.3222 H   0  0  0  0  0  0  0  0  0  0  0  0
    3.5561   -8.2026    1.4964 H   0  0  0  0  0  0  0  0  0  0  0  0
   -2.4076   -9.0807    3.4320 H   0  0  0  0  0  0  0  0  0  0  0  0
  1  2  1  0
  1 11  1  0
  1 12  1  0
  1 13  1  0
  2 10  2  0
  2  3  1  0
  3  4  2  0
  3 14  1  0
  4  5  1  0
  5  9  1  0
  5  6  1  0
  6  7  2  0
  7  8  1  0
  7 15  1  0
  8  9  2  0
  9 10  1  0
M  END
>  <i_m_ct_stereo_status>  (244) 
1

>  <s_m_source_file>  (244) 
/var/tmp/pbs.5076255.sched01/tmpi5tju4vo/80qzp1lgse.sdf

>  <i_m_source_file_index>  (244) 
28

>  <i_lp_mmshare_version>  (244) 
48012

>  <i_f3d_flags>  (244) 
0

>  <s_epik_input>  (244) 
bjFbY0hdYyhbQ0gzXSluYyhuMTIpbltjSF1uMg==

>  <s_epik_cmdline>  (244) 
J2VwaWtfcHl0aG9uJywgJy1waHQnLCAnMi4wJywgJy1waCcsICc3LjAnLCAnLXRuJywgJzgnLCAnLW1hJywgJzIwMCcsICctaW1hZScsICc8aW5maWxlLm1hZT4nLCAnLW9tYWUnLCAnPG91dGZpbGUubWFlPic=

>  <r_lp_tautomer_probability>  (244) 
1

>  <r_epik_Ionization_Penalty>  (244) 
2.21559e-10

>  <r_epik_Ionization_Penalty_Charging>  (244) 
0

>  <r_epik_Ionization_Penalty_Neutral>  (244) 
2.21559e-10

>  <r_epik_State_Penalty>  (244) 
-0

>  <r_epik_Charging_Adjusted_Penalty>  (244) 
0

>  <i_epik_Tot_Q>  (244) 
0

>  <i_epik_Tot_abs_Q>  (244) 
0

>  <s_lp_Force_Field>  (244) 
OPLS3e

>  <r_lp_Energy>  (244) 
16.5317

>  <b_lp_Chiralities_Consistent>  (244) 
1

>  <s_lp_Variant>  (244) 
79:0-1

>  <s_i_glide_gridfile>  (244) 
pfpi4k_grid

>  <i_i_glide_lignum>  (244) 
28

>  <i_i_glide_rotatable_bonds>  (244) 
0

>  <r_i_docking_score>  (244) 
-3.79831

>  <r_i_glide_ligand_efficiency>  (244) 
-0.379831

>  <r_i_glide_ligand_efficiency_sa>  (244) 
-0.818321

>  <r_i_glide_ligand_efficiency_ln>  (244) 
-1.1501

>  <r_i_glide_gscore>  (244) 
-3.79831

>  <r_i_glide_lipo>  (244) 
0

>  <r_i_glide_hbond>  (244) 
-0.207002

>  <r_i_glide_metal>  (244) 
-0

>  <r_i_glide_rewards>  (244) 
-2.25

>  <r_i_glide_evdw>  (244) 
-16.2439

>  <r_i_glide_ecoul>  (244) 
-2.58474

>  <r_i_glide_erotb>  (244) 
0

>  <r_i_glide_esite>  (244) 
-0.141402

>  <r_i_glide_emodel>  (244) 
-24.2006

>  <r_i_glide_energy>  (244) 
-18.8287

>  <r_i_glide_einternal>  (244) 
0

>  <r_i_glide_intrahb_reward>  (244) 
-0

>  <i_i_glide_confnum>  (244) 
1

>  <i_i_glide_posenum>  (244) 
2

>  <r_i_glide_eff_state_penalty>  (244) 
0

>  <ligand_id>  (244) 
79

>  <original_smiles>  (244) 
Cc1cnn2ncnc2n1

>  <smiles>  (244) 
[H]c1nc2nc(C([H])([H])[H])c([H])nn2n1

$$$$
81:0:0
     RDKit          3D

 44 47  0  0  1  0  0  0  0  0999 V2000
    5.0778   -8.7665    1.5692 C   0  0  0  0  0  0  0  0  0  0  0  0
    4.9588   -7.5290    2.4806 C   0  0  2  0  0  0  0  0  0  0  0  0
    3.6640   -7.5178    3.3071 C   0  0  0  0  0  0  0  0  0  0  0  0
    2.4702   -7.2162    2.4315 C   0  0  0  0  0  0  0  0  0  0  0  0
    1.2743   -7.6802    2.8456 N   0  0  0  0  0  0  0  0  0  0  0  0
    0.2218   -7.3785    2.0961 C   0  0  0  0  0  0  0  0  0  0  0  0
   -1.0018   -7.7893    2.5383 N   0  0  0  0  0  0  0  0  0  0  0  0
    0.2240   -6.6653    0.9599 N   0  0  0  0  0  0  0  0  0  0  0  0
    1.4288   -6.2516    0.5187 C   0  0  0  0  0  0  0  0  0  0  0  0
    2.6170   -6.4676    1.2504 C   0  0  0  0  0  0  0  0  0  0  0  0
    3.9898   -6.0261    0.7329 C   0  0  1  0  0  0  0  0  0  0  0  0
    4.0169   -4.5697    0.2052 C   0  0  0  0  0  0  0  0  0  0  0  0
    5.4285   -4.2550   -0.3208 C   0  0  1  0  0  0  0  0  0  0  0  0
    5.7403   -2.8869   -0.9370 C   0  0  0  0  0  0  0  0  0  0  0  0
    7.2647   -2.7129   -0.7606 C   0  0  0  0  0  0  0  0  0  0  0  0
    7.7552   -3.9303    0.0470 C   0  0  1  0  0  0  0  0  0  0  0  0
    8.8372   -3.6598    0.8947 O   0  0  0  0  0  0  0  0  0  0  0  0
    6.4838   -4.4331    0.7663 C   0  0  1  0  0  0  0  0  0  0  0  0
    6.2174   -3.5283    1.8415 O   0  0  0  0  0  0  0  0  0  0  0  0
    6.4509   -5.8977    1.2708 C   0  0  0  0  0  0  0  0  0  0  0  0
    5.0718   -6.2393    1.7521 N   0  0  2  0  0  0  0  0  0  0  0  0
   -1.0004   -8.4937    3.2711 H   0  0  0  0  0  0  0  0  0  0  0  0
    5.0579   -9.6677    2.1844 H   0  0  0  0  0  0  0  0  0  0  0  0
    6.0178   -8.7682    1.0110 H   0  0  0  0  0  0  0  0  0  0  0  0
    4.2552   -8.8369    0.8507 H   0  0  0  0  0  0  0  0  0  0  0  0
    5.7766   -7.5747    3.1934 H   0  0  0  0  0  0  0  0  0  0  0  0
    3.5319   -8.4643    3.8350 H   0  0  0  0  0  0  0  0  0  0  0  0
    3.6943   -6.7245    4.0581 H   0  0  0  0  0  0  0  0  0  0  0  0
   -1.7538   -7.8147    1.8660 H   0  0  0  0  0  0  0  0  0  0  0  0
    1.4359   -5.7162   -0.4140 H   0  0  0  0  0  0  0  0  0  0  0  0
    4.1921   -6.6800   -0.1163 H   0  0  0  0  0  0  0  0  0  0  0  0
    3.3267   -4.4838   -0.6315 H   0  0  0  0  0  0  0  0  0  0  0  0
    3.7151   -3.8548    0.9774 H   0  0  0  0  0  0  0  0  0  0  0  0
    5.6360   -4.9886   -1.0987 H   0  0  0  0  0  0  0  0  0  0  0  0
    5.4453   -2.8619   -1.9843 H   0  0  0  0  0  0  0  0  0  0  0  0
    5.2072   -2.0911   -0.4144 H   0  0  0  0  0  0  0  0  0  0  0  0
    7.7811   -2.6692   -1.7157 H   0  0  0  0  0  0  0  0  0  0  0  0
    7.4610   -1.7785   -0.2398 H   0  0  0  0  0  0  0  0  0  0  0  0
    8.1535   -4.6590   -0.6488 H   0  0  0  0  0  0  0  0  0  0  0  0
    8.5113   -3.0666    1.5596 H   0  0  0  0  0  0  0  0  0  0  0  0
    5.3760   -3.6950    2.2302 H   0  0  0  0  0  0  0  0  0  0  0  0
    6.7612   -6.5891    0.4862 H   0  0  0  0  0  0  0  0  0  0  0  0
    7.1688   -6.0313    2.0816 H   0  0  0  0  0  0  0  0  0  0  0  0
    4.8900   -5.5619    2.4785 H   0  0  0  0  0  0  0  0  0  0  0  0
  1  2  1  0
  1 23  1  0
  1 24  1  0
  1 25  1  0
  2 21  1  0
  2  3  1  0
  2 26  1  1
  3 27  1  0
  3 28  1  0
  3  4  1  0
  4 10  2  0
  4  5  1  0
  5  6  2  0
  6  7  1  0
  6  8  1  0
  7 29  1  0
  7 22  1  0
  8  9  2  0
  9 30  1  0
  9 10  1  0
 10 11  1  0
 11 21  1  0
 11 12  1  0
 11 31  1  6
 12 13  1  0
 12 32  1  0
 12 33  1  0
 13 18  1  0
 13 14  1  0
 13 34  1  6
 14 15  1  0
 14 35  1  0
 14 36  1  0
 15 16  1  0
 15 37  1  0
 15 38  1  0
 16 17  1  0
 16 18  1  0
 16 39  1  6
 17 40  1  0
 18 19  1  1
 18 20  1  0
 19 41  1  0
 20 21  1  0
 20 42  1  0
 20 43  1  0
 21 44  1  1
M  CHG  1  21   1
M  END
>  <i_m_ct_stereo_status>  (245) 
1

>  <s_m_source_file>  (245) 
/var/tmp/pbs.5076255.sched01/tmpi5tju4vo/80qzp1lgse.sdf

>  <i_m_source_file_index>  (245) 
30

>  <i_lp_mmshare_version>  (245) 
48012

>  <i_f3d_flags>  (245) 
0

>  <s_epik_input>  (245) 
W2NIXTFuYyg9TlxbSF0pXFtuSF1jKFtDSDJdW0NAQEhdKFtDSDNdKU4yW0NIMl0zKWMxW0NASF0yW0NIMl1bQ0BIXShbQ0BAXTM0W09IXSlbQ0gyXVtDSDJdW0NASF00W09IXQ==

>  <s_epik_cmdline>  (245) 
J2VwaWtfcHl0aG9uJywgJy1waHQnLCAnMi4wJywgJy1waCcsICc3LjAnLCAnLXRuJywgJzgnLCAnLW1hJywgJzIwMCcsICctaW1hZScsICc8aW5maWxlLm1hZT4nLCAnLW9tYWUnLCAnPG91dGZpbGUubWFlPic=

>  <r_lp_tautomer_probability>  (245) 
1

>  <r_epik_Ionization_Penalty>  (245) 
0.0133942

>  <r_epik_Ionization_Penalty_Charging>  (245) 
0.0133485

>  <r_epik_Ionization_Penalty_Neutral>  (245) 
4.56276e-05

>  <r_epik_State_Penalty>  (245) 
0.0103838

>  <r_epik_Charging_Adjusted_Penalty>  (245) 
0.0237323

>  <i_epik_Tot_Q>  (245) 
1

>  <i_epik_Tot_abs_Q>  (245) 
1

>  <s_lp_Force_Field>  (245) 
OPLS3e

>  <r_lp_Energy>  (245) 
32.0489

>  <b_lp_Chiralities_Consistent>  (245) 
1

>  <s_lp_Variant>  (245) 
81:0-1

>  <s_i_glide_gridfile>  (245) 
pfpi4k_grid

>  <i_i_glide_lignum>  (245) 
30

>  <i_i_glide_rotatable_bonds>  (245) 
2

>  <r_i_docking_score>  (245) 
-4.09415

>  <r_i_glide_ligand_efficiency>  (245) 
-0.19496

>  <r_i_glide_ligand_efficiency_sa>  (245) 
-0.537879

>  <r_i_glide_ligand_efficiency_ln>  (245) 
-1.01227

>  <r_i_glide_gscore>  (245) 
-4.09415

>  <r_i_glide_lipo>  (245) 
-0.49963

>  <r_i_glide_hbond>  (245) 
-0.154765

>  <r_i_glide_metal>  (245) 
-0

>  <r_i_glide_rewards>  (245) 
-1.42249

>  <r_i_glide_evdw>  (245) 
-24.4751

>  <r_i_glide_ecoul>  (245) 
-4.39024

>  <r_i_glide_erotb>  (245) 
0

>  <r_i_glide_esite>  (245) 
-0.134978

>  <r_i_glide_emodel>  (245) 
-36.3788

>  <r_i_glide_energy>  (245) 
-28.8654

>  <r_i_glide_einternal>  (245) 
0.124986

>  <r_i_glide_intrahb_reward>  (245) 
-0

>  <i_i_glide_confnum>  (245) 
2

>  <i_i_glide_posenum>  (245) 
20

>  <r_i_glide_eff_state_penalty>  (245) 
0

>  <ligand_id>  (245) 
81

>  <original_smiles>  (245) 
CC1Cc2[nH]c(=N)ncc2C2CC3CCC(O)C3(O)CN12

>  <smiles>  (245) 
[H]OC1([H])C([H])([H])C([H])([H])C2([H])C([H])([H])C3([H])c4c([H])nc(N([H])[H])nc4C([H])([H])C([H])(C([H])([H])[H])[N+]3([H])C([H])([H])C12O[H]

$$$$
81:0:1
     RDKit          3D

 44 47  0  0  1  0  0  0  0  0999 V2000
    5.3021   -7.7925    1.6086 C   0  0  0  0  0  0  0  0  0  0  0  0
    4.9324   -6.5234    2.4106 C   0  0  2  0  0  0  0  0  0  0  0  0
    3.8337   -6.7874    3.4536 C   0  0  0  0  0  0  0  0  0  0  0  0
    2.4897   -6.9870    2.7875 C   0  0  0  0  0  0  0  0  0  0  0  0
    1.5760   -7.7172    3.4565 N   0  0  0  0  0  0  0  0  0  0  0  0
    0.3860   -7.8635    2.8766 C   0  0  0  0  0  0  0  0  0  0  0  0
   -0.5469   -8.5954    3.5545 N   0  0  0  0  0  0  0  0  0  0  0  0
    0.0091   -7.3460    1.7100 N   0  0  0  0  0  0  0  0  0  0  0  0
    0.9344   -6.6564    1.0148 C   0  0  0  0  0  0  0  0  0  0  0  0
    2.2243   -6.4038    1.5286 C   0  0  0  0  0  0  0  0  0  0  0  0
    3.3039   -5.6436    0.7402 C   0  0  1  0  0  0  0  0  0  0  0  0
    2.7946   -4.3344    0.0877 C   0  0  0  0  0  0  0  0  0  0  0  0
    3.9473   -3.6949   -0.7037 C   0  0  1  0  0  0  0  0  0  0  0  0
    3.7026   -2.4025   -1.4845 C   0  0  0  0  0  0  0  0  0  0  0  0
    5.0933   -1.7557   -1.6101 C   0  0  0  0  0  0  0  0  0  0  0  0
    6.0664   -2.6449   -0.7987 C   0  0  1  0  0  0  0  0  0  0  0  0
    7.0964   -1.8999   -0.1700 O   0  0  0  0  0  0  0  0  0  0  0  0
    5.1519   -3.4047    0.1884 C   0  0  1  0  0  0  0  0  0  0  0  0
    4.7921   -2.5336    1.2546 O   0  0  0  0  0  0  0  0  0  0  0  0
    5.6455   -4.7352    0.7987 C   0  0  0  0  0  0  0  0  0  0  0  0
    4.5255   -5.3725    1.5598 N   0  0  2  0  0  0  0  0  0  0  0  0
   -0.2735   -9.1258    4.3744 H   0  0  0  0  0  0  0  0  0  0  0  0
    5.6598   -8.5730    2.2814 H   0  0  0  0  0  0  0  0  0  0  0  0
    6.1001   -7.5960    0.8882 H   0  0  0  0  0  0  0  0  0  0  0  0
    4.4518   -8.2038    1.0578 H   0  0  0  0  0  0  0  0  0  0  0  0
    5.8217   -6.2349    2.9664 H   0  0  0  0  0  0  0  0  0  0  0  0
    4.0845   -7.6452    4.0822 H   0  0  0  0  0  0  0  0  0  0  0  0
    3.7302   -5.9251    4.1129 H   0  0  0  0  0  0  0  0  0  0  0  0
   -1.4012   -8.8619    3.0793 H   0  0  0  0  0  0  0  0  0  0  0  0
    0.6213   -6.2827    0.0528 H   0  0  0  0  0  0  0  0  0  0  0  0
    3.5831   -6.3190   -0.0655 H   0  0  0  0  0  0  0  0  0  0  0  0
    1.9912   -4.5622   -0.6101 H   0  0  0  0  0  0  0  0  0  0  0  0
    2.4105   -3.6382    0.8388 H   0  0  0  0  0  0  0  0  0  0  0  0
    4.2723   -4.4293   -1.4444 H   0  0  0  0  0  0  0  0  0  0  0  0
    3.2610   -2.6081   -2.4590 H   0  0  0  0  0  0  0  0  0  0  0  0
    3.0238   -1.7390   -0.9460 H   0  0  0  0  0  0  0  0  0  0  0  0
    5.4045   -1.6930   -2.6491 H   0  0  0  0  0  0  0  0  0  0  0  0
    5.0490   -0.7360   -1.2274 H   0  0  0  0  0  0  0  0  0  0  0  0
    6.5295   -3.3607   -1.4827 H   0  0  0  0  0  0  0  0  0  0  0  0
    6.7012   -1.3027    0.4505 H   0  0  0  0  0  0  0  0  0  0  0  0
    5.5631   -2.3474    1.7686 H   0  0  0  0  0  0  0  0  0  0  0  0
    6.0198   -5.4062    0.0246 H   0  0  0  0  0  0  0  0  0  0  0  0
    6.4802   -4.5396    1.4754 H   0  0  0  0  0  0  0  0  0  0  0  0
    4.2414   -4.6458    2.2005 H   0  0  0  0  0  0  0  0  0  0  0  0
  1  2  1  0
  1 23  1  0
  1 24  1  0
  1 25  1  0
  2 21  1  0
  2  3  1  0
  2 26  1  1
  3 27  1  0
  3 28  1  0
  3  4  1  0
  4 10  2  0
  4  5  1  0
  5  6  2  0
  6  7  1  0
  6  8  1  0
  7 29  1  0
  7 22  1  0
  8  9  2  0
  9 30  1  0
  9 10  1  0
 10 11  1  0
 11 21  1  0
 11 12  1  0
 11 31  1  6
 12 13  1  0
 12 32  1  0
 12 33  1  0
 13 18  1  0
 13 14  1  0
 13 34  1  6
 14 15  1  0
 14 35  1  0
 14 36  1  0
 15 16  1  0
 15 37  1  0
 15 38  1  0
 16 17  1  0
 16 18  1  0
 16 39  1  6
 17 40  1  0
 18 19  1  1
 18 20  1  0
 19 41  1  0
 20 21  1  0
 20 42  1  0
 20 43  1  0
 21 44  1  1
M  CHG  1  21   1
M  END
>  <i_m_ct_stereo_status>  (246) 
1

>  <s_m_source_file>  (246) 
/var/tmp/pbs.5076255.sched01/tmpi5tju4vo/80qzp1lgse.sdf

>  <i_m_source_file_index>  (246) 
30

>  <i_lp_mmshare_version>  (246) 
48012

>  <i_f3d_flags>  (246) 
0

>  <s_epik_input>  (246) 
W2NIXTFuYyg9TlxbSF0pXFtuSF1jKFtDSDJdW0NAQEhdKFtDSDNdKU4yW0NIMl0zKWMxW0NASF0yW0NIMl1bQ0BIXShbQ0BAXTM0W09IXSlbQ0gyXVtDSDJdW0NASF00W09IXQ==

>  <s_epik_cmdline>  (246) 
J2VwaWtfcHl0aG9uJywgJy1waHQnLCAnMi4wJywgJy1waCcsICc3LjAnLCAnLXRuJywgJzgnLCAnLW1hJywgJzIwMCcsICctaW1hZScsICc8aW5maWxlLm1hZT4nLCAnLW9tYWUnLCAnPG91dGZpbGUubWFlPic=

>  <r_lp_tautomer_probability>  (246) 
1

>  <r_epik_Ionization_Penalty>  (246) 
0.0133942

>  <r_epik_Ionization_Penalty_Charging>  (246) 
0.0133485

>  <r_epik_Ionization_Penalty_Neutral>  (246) 
4.56276e-05

>  <r_epik_State_Penalty>  (246) 
0.0103838

>  <r_epik_Charging_Adjusted_Penalty>  (246) 
0.0237323

>  <i_epik_Tot_Q>  (246) 
1

>  <i_epik_Tot_abs_Q>  (246) 
1

>  <s_lp_Force_Field>  (246) 
OPLS3e

>  <r_lp_Energy>  (246) 
32.0489

>  <b_lp_Chiralities_Consistent>  (246) 
1

>  <s_lp_Variant>  (246) 
81:0-1

>  <s_i_glide_gridfile>  (246) 
pfpi4k_grid

>  <i_i_glide_lignum>  (246) 
30

>  <i_i_glide_rotatable_bonds>  (246) 
2

>  <r_i_docking_score>  (246) 
-3.43488

>  <r_i_glide_ligand_efficiency>  (246) 
-0.163566

>  <r_i_glide_ligand_efficiency_sa>  (246) 
-0.451266

>  <r_i_glide_ligand_efficiency_ln>  (246) 
-0.849268

>  <r_i_glide_gscore>  (246) 
-3.43488

>  <r_i_glide_lipo>  (246) 
-0.190838

>  <r_i_glide_hbond>  (246) 
0

>  <r_i_glide_metal>  (246) 
-0

>  <r_i_glide_rewards>  (246) 
-1.42249

>  <r_i_glide_evdw>  (246) 
-25.7137

>  <r_i_glide_ecoul>  (246) 
-2.9422

>  <r_i_glide_erotb>  (246) 
0

>  <r_i_glide_esite>  (246) 
-0.0945428

>  <r_i_glide_emodel>  (246) 
-34.9161

>  <r_i_glide_energy>  (246) 
-28.6559

>  <r_i_glide_einternal>  (246) 
0.115846

>  <r_i_glide_intrahb_reward>  (246) 
-0

>  <i_i_glide_confnum>  (246) 
2

>  <i_i_glide_posenum>  (246) 
38

>  <r_i_glide_eff_state_penalty>  (246) 
0

>  <ligand_id>  (246) 
81

>  <original_smiles>  (246) 
CC1Cc2[nH]c(=N)ncc2C2CC3CCC(O)C3(O)CN12

>  <smiles>  (246) 
[H]OC1([H])C([H])([H])C([H])([H])C2([H])C([H])([H])C3([H])c4c([H])nc(N([H])[H])nc4C([H])([H])C([H])(C([H])([H])[H])[N+]3([H])C([H])([H])C12O[H]

$$$$
81:0:2
     RDKit          3D

 44 47  0  0  1  0  0  0  0  0999 V2000
    5.2380   -7.8300    1.6189 C   0  0  0  0  0  0  0  0  0  0  0  0
    4.8895   -6.5435    2.4008 C   0  0  2  0  0  0  0  0  0  0  0  0
    3.7900   -6.7759    3.4526 C   0  0  0  0  0  0  0  0  0  0  0  0
    2.4410   -6.9697    2.7948 C   0  0  0  0  0  0  0  0  0  0  0  0
    1.5172   -7.6769    3.4816 N   0  0  0  0  0  0  0  0  0  0  0  0
    0.3295   -7.8190    2.9128 C   0  0  0  0  0  0  0  0  0  0  0  0
   -0.6130   -8.5248    3.6045 N   0  0  0  0  0  0  0  0  0  0  0  0
   -0.0521   -7.3204    1.7331 N   0  0  0  0  0  0  0  0  0  0  0  0
    0.8814   -6.6572    1.0218 C   0  0  0  0  0  0  0  0  0  0  0  0
    2.1735   -6.4076    1.5265 C   0  0  0  0  0  0  0  0  0  0  0  0
    3.2609   -5.6743    0.7189 C   0  0  1  0  0  0  0  0  0  0  0  0
    2.7640   -4.3729    0.0499 C   0  0  0  0  0  0  0  0  0  0  0  0
    3.9201   -3.7658   -0.7596 C   0  0  1  0  0  0  0  0  0  0  0  0
    3.6909   -2.4837   -1.5650 C   0  0  0  0  0  0  0  0  0  0  0  0
    5.0884   -1.8623   -1.7070 C   0  0  0  0  0  0  0  0  0  0  0  0
    6.0472   -2.7469   -0.8803 C   0  0  1  0  0  0  0  0  0  0  0  0
    7.0498   -1.9641   -0.2578 O   0  0  0  0  0  0  0  0  0  0  0  0
    5.1282   -3.4789    0.1239 C   0  0  1  0  0  0  0  0  0  0  0  0
    4.7756   -2.6092    1.1915 O   0  0  0  0  0  0  0  0  0  0  0  0
    5.6148   -4.7992    0.7495 C   0  0  0  0  0  0  0  0  0  0  0  0
    4.4906   -5.4018    1.5309 N   0  0  2  0  0  0  0  0  0  0  0  0
   -0.3342   -9.0466    4.4260 H   0  0  0  0  0  0  0  0  0  0  0  0
    5.5921   -8.5991    2.3066 H   0  0  0  0  0  0  0  0  0  0  0  0
    6.0355   -7.6537    0.8911 H   0  0  0  0  0  0  0  0  0  0  0  0
    4.3789   -8.2464    1.0812 H   0  0  0  0  0  0  0  0  0  0  0  0
    5.7838   -6.2508    2.9486 H   0  0  0  0  0  0  0  0  0  0  0  0
    4.0335   -7.6284    4.0918 H   0  0  0  0  0  0  0  0  0  0  0  0
    3.6987   -5.8996    4.0953 H   0  0  0  0  0  0  0  0  0  0  0  0
   -1.4614   -8.7992    3.1294 H   0  0  0  0  0  0  0  0  0  0  0  0
    0.5737   -6.2978    0.0510 H   0  0  0  0  0  0  0  0  0  0  0  0
    3.5349   -6.3656   -0.0755 H   0  0  0  0  0  0  0  0  0  0  0  0
    1.9571   -4.6050   -0.6442 H   0  0  0  0  0  0  0  0  0  0  0  0
    2.3879   -3.6575    0.7872 H   0  0  0  0  0  0  0  0  0  0  0  0
    4.2387   -4.5156   -1.4878 H   0  0  0  0  0  0  0  0  0  0  0  0
    3.2458   -2.7039   -2.5343 H   0  0  0  0  0  0  0  0  0  0  0  0
    3.0245   -1.7976   -1.0384 H   0  0  0  0  0  0  0  0  0  0  0  0
    5.4062   -1.8170   -2.7457 H   0  0  0  0  0  0  0  0  0  0  0  0
    5.0672   -0.8393   -1.3351 H   0  0  0  0  0  0  0  0  0  0  0  0
    6.5184   -3.4740   -1.5537 H   0  0  0  0  0  0  0  0  0  0  0  0
    7.6739   -2.5421    0.1598 H   0  0  0  0  0  0  0  0  0  0  0  0
    5.5721   -2.2881    1.5921 H   0  0  0  0  0  0  0  0  0  0  0  0
    5.9742   -5.4898   -0.0123 H   0  0  0  0  0  0  0  0  0  0  0  0
    6.4493   -4.5981    1.4256 H   0  0  0  0  0  0  0  0  0  0  0  0
    4.2189   -4.6606    2.1567 H   0  0  0  0  0  0  0  0  0  0  0  0
  1  2  1  0
  1 23  1  0
  1 24  1  0
  1 25  1  0
  2 21  1  0
  2  3  1  0
  2 26  1  1
  3 27  1  0
  3 28  1  0
  3  4  1  0
  4 10  2  0
  4  5  1  0
  5  6  2  0
  6  7  1  0
  6  8  1  0
  7 29  1  0
  7 22  1  0
  8  9  2  0
  9 30  1  0
  9 10  1  0
 10 11  1  0
 11 21  1  0
 11 12  1  0
 11 31  1  6
 12 13  1  0
 12 32  1  0
 12 33  1  0
 13 18  1  0
 13 14  1  0
 13 34  1  6
 14 15  1  0
 14 35  1  0
 14 36  1  0
 15 16  1  0
 15 37  1  0
 15 38  1  0
 16 17  1  0
 16 18  1  0
 16 39  1  6
 17 40  1  0
 18 19  1  1
 18 20  1  0
 19 41  1  0
 20 21  1  0
 20 42  1  0
 20 43  1  0
 21 44  1  1
M  CHG  1  21   1
M  END
>  <i_m_ct_stereo_status>  (247) 
1

>  <s_m_source_file>  (247) 
/var/tmp/pbs.5076255.sched01/tmpi5tju4vo/80qzp1lgse.sdf

>  <i_m_source_file_index>  (247) 
30

>  <i_lp_mmshare_version>  (247) 
48012

>  <i_f3d_flags>  (247) 
0

>  <s_epik_input>  (247) 
W2NIXTFuYyg9TlxbSF0pXFtuSF1jKFtDSDJdW0NAQEhdKFtDSDNdKU4yW0NIMl0zKWMxW0NASF0yW0NIMl1bQ0BIXShbQ0BAXTM0W09IXSlbQ0gyXVtDSDJdW0NASF00W09IXQ==

>  <s_epik_cmdline>  (247) 
J2VwaWtfcHl0aG9uJywgJy1waHQnLCAnMi4wJywgJy1waCcsICc3LjAnLCAnLXRuJywgJzgnLCAnLW1hJywgJzIwMCcsICctaW1hZScsICc8aW5maWxlLm1hZT4nLCAnLW9tYWUnLCAnPG91dGZpbGUubWFlPic=

>  <r_lp_tautomer_probability>  (247) 
1

>  <r_epik_Ionization_Penalty>  (247) 
0.0133942

>  <r_epik_Ionization_Penalty_Charging>  (247) 
0.0133485

>  <r_epik_Ionization_Penalty_Neutral>  (247) 
4.56276e-05

>  <r_epik_State_Penalty>  (247) 
0.0103838

>  <r_epik_Charging_Adjusted_Penalty>  (247) 
0.0237323

>  <i_epik_Tot_Q>  (247) 
1

>  <i_epik_Tot_abs_Q>  (247) 
1

>  <s_lp_Force_Field>  (247) 
OPLS3e

>  <r_lp_Energy>  (247) 
32.0489

>  <b_lp_Chiralities_Consistent>  (247) 
1

>  <s_lp_Variant>  (247) 
81:0-1

>  <s_i_glide_gridfile>  (247) 
pfpi4k_grid

>  <i_i_glide_lignum>  (247) 
30

>  <i_i_glide_rotatable_bonds>  (247) 
2

>  <r_i_docking_score>  (247) 
-3.38005

>  <r_i_glide_ligand_efficiency>  (247) 
-0.160955

>  <r_i_glide_ligand_efficiency_sa>  (247) 
-0.444062

>  <r_i_glide_ligand_efficiency_ln>  (247) 
-0.83571

>  <r_i_glide_gscore>  (247) 
-3.38005

>  <r_i_glide_lipo>  (247) 
-0.191057

>  <r_i_glide_hbond>  (247) 
0

>  <r_i_glide_metal>  (247) 
-0

>  <r_i_glide_rewards>  (247) 
-1.42249

>  <r_i_glide_evdw>  (247) 
-25.6477

>  <r_i_glide_ecoul>  (247) 
-2.57823

>  <r_i_glide_erotb>  (247) 
0

>  <r_i_glide_esite>  (247) 
-0.0973871

>  <r_i_glide_emodel>  (247) 
-34.2433

>  <r_i_glide_energy>  (247) 
-28.2259

>  <r_i_glide_einternal>  (247) 
0.333236

>  <r_i_glide_intrahb_reward>  (247) 
-0

>  <i_i_glide_confnum>  (247) 
1

>  <i_i_glide_posenum>  (247) 
40

>  <r_i_glide_eff_state_penalty>  (247) 
0

>  <ligand_id>  (247) 
81

>  <original_smiles>  (247) 
CC1Cc2[nH]c(=N)ncc2C2CC3CCC(O)C3(O)CN12

>  <smiles>  (247) 
[H]OC1([H])C([H])([H])C([H])([H])C2([H])C([H])([H])C3([H])c4c([H])nc(N([H])[H])nc4C([H])([H])C([H])(C([H])([H])[H])[N+]3([H])C([H])([H])C12O[H]

$$$$
81:1:0
     RDKit          3D

 43 46  0  0  1  0  0  0  0  0999 V2000
    3.8662   -2.7135    4.3970 C   0  0  0  0  0  0  0  0  0  0  0  0
    4.7816   -1.5845    3.8771 C   0  0  2  0  0  0  0  0  0  0  0  0
    4.3797   -0.2150    4.4523 C   0  0  0  0  0  0  0  0  0  0  0  0
    3.1651    0.3478    3.7438 C   0  0  0  0  0  0  0  0  0  0  0  0
    2.4088    1.2305    4.4365 N   0  0  0  0  0  0  0  0  0  0  0  0
    1.3351    1.6938    3.8034 C   0  0  0  0  0  0  0  0  0  0  0  0
    0.5218    2.5238    4.5111 N   0  0  0  0  0  0  0  0  0  0  0  0
    0.9367    1.3993    2.5742 N   0  0  0  0  0  0  0  0  0  0  0  0
    1.6973    0.5335    1.8780 C   0  0  0  0  0  0  0  0  0  0  0  0
    2.8547   -0.0575    2.4292 C   0  0  0  0  0  0  0  0  0  0  0  0
    3.6630   -1.1544    1.7205 C   0  0  1  0  0  0  0  0  0  0  0  0
    3.9288   -0.8404    0.2237 C   0  0  0  0  0  0  0  0  0  0  0  0
    4.6619   -2.0405   -0.4015 C   0  0  1  0  0  0  0  0  0  0  0  0
    5.0355   -2.0274   -1.8876 C   0  0  0  0  0  0  0  0  0  0  0  0
    6.2126   -3.0262   -1.9866 C   0  0  0  0  0  0  0  0  0  0  0  0
    6.5555   -3.4555   -0.5417 C   0  0  1  0  0  0  0  0  0  0  0  0
    7.9386   -3.6885   -0.3381 O   0  0  0  0  0  0  0  0  0  0  0  0
    5.9714   -2.3248    0.3216 C   0  0  1  0  0  0  0  0  0  0  0  0
    6.8247   -1.1966    0.2424 O   0  0  0  0  0  0  0  0  0  0  0  0
    5.6652   -2.5943    1.8040 C   0  0  0  0  0  0  0  0  0  0  0  0
    4.9303   -1.4729    2.4206 N   0  0  0  0  0  0  0  0  0  0  0  0
    0.7800    2.8069    5.4417 H   0  0  0  0  0  0  0  0  0  0  0  0
    3.9136   -2.7477    5.4854 H   0  0  0  0  0  0  0  0  0  0  0  0
    4.1827   -3.6905    4.0384 H   0  0  0  0  0  0  0  0  0  0  0  0
    2.8207   -2.5641    4.1240 H   0  0  0  0  0  0  0  0  0  0  0  0
    5.7665   -1.7937    4.2894 H   0  0  0  0  0  0  0  0  0  0  0  0
    4.2267   -0.2549    5.5352 H   0  0  0  0  0  0  0  0  0  0  0  0
    5.1877    0.5001    4.2764 H   0  0  0  0  0  0  0  0  0  0  0  0
   -0.2543    2.9523    4.0327 H   0  0  0  0  0  0  0  0  0  0  0  0
    1.3480    0.3100    0.8839 H   0  0  0  0  0  0  0  0  0  0  0  0
    3.0176   -2.0350    1.7516 H   0  0  0  0  0  0  0  0  0  0  0  0
    3.0052   -0.6858   -0.3232 H   0  0  0  0  0  0  0  0  0  0  0  0
    4.5103    0.0785    0.1271 H   0  0  0  0  0  0  0  0  0  0  0  0
    4.0183   -2.9113   -0.2602 H   0  0  0  0  0  0  0  0  0  0  0  0
    4.1892   -2.3267   -2.5070 H   0  0  0  0  0  0  0  0  0  0  0  0
    5.3478   -1.0281   -2.1991 H   0  0  0  0  0  0  0  0  0  0  0  0
    5.9506   -3.8872   -2.5998 H   0  0  0  0  0  0  0  0  0  0  0  0
    7.0627   -2.5430   -2.4674 H   0  0  0  0  0  0  0  0  0  0  0  0
    6.0224   -4.3815   -0.3158 H   0  0  0  0  0  0  0  0  0  0  0  0
    8.4227   -2.9880   -0.7558 H   0  0  0  0  0  0  0  0  0  0  0  0
    6.4995   -0.5829    0.8891 H   0  0  0  0  0  0  0  0  0  0  0  0
    5.0852   -3.5100    1.8987 H   0  0  0  0  0  0  0  0  0  0  0  0
    6.5989   -2.7653    2.3338 H   0  0  0  0  0  0  0  0  0  0  0  0
  1  2  1  0
  1 23  1  0
  1 24  1  0
  1 25  1  0
  2 21  1  0
  2  3  1  0
  2 26  1  1
  3 27  1  0
  3 28  1  0
  3  4  1  0
  4 10  2  0
  4  5  1  0
  5  6  2  0
  6  7  1  0
  6  8  1  0
  7 29  1  0
  7 22  1  0
  8  9  2  0
  9 30  1  0
  9 10  1  0
 10 11  1  0
 11 21  1  0
 11 12  1  0
 11 31  1  6
 12 13  1  0
 12 32  1  0
 12 33  1  0
 13 18  1  0
 13 14  1  0
 13 34  1  6
 14 15  1  0
 14 35  1  0
 14 36  1  0
 15 16  1  0
 15 37  1  0
 15 38  1  0
 16 17  1  0
 16 18  1  0
 16 39  1  1
 17 40  1  0
 18 19  1  1
 18 20  1  0
 19 41  1  0
 20 21  1  0
 20 42  1  0
 20 43  1  0
M  END
>  <i_m_ct_stereo_status>  (248) 
1

>  <s_m_source_file>  (248) 
/var/tmp/pbs.5076255.sched01/tmpi5tju4vo/80qzp1lgse.sdf

>  <i_m_source_file_index>  (248) 
31

>  <i_lp_mmshare_version>  (248) 
48012

>  <i_f3d_flags>  (248) 
0

>  <s_epik_input>  (248) 
W2NIXTFuYyg9TlxbSF0pXFtuSF1jKFtDSDJdW0NAQEhdKFtDSDNdKU4yW0NIMl0zKWMxW0NASF0yW0NIMl1bQ0BIXShbQ0BAXTM0W09IXSlbQ0gyXVtDSDJdW0NASF00W09IXQ==

>  <s_epik_cmdline>  (248) 
J2VwaWtfcHl0aG9uJywgJy1waHQnLCAnMi4wJywgJy1waCcsICc3LjAnLCAnLXRuJywgJzgnLCAnLW1hJywgJzIwMCcsICctaW1hZScsICc8aW5maWxlLm1hZT4nLCAnLW9tYWUnLCAnPG91dGZpbGUubWFlPic=

>  <r_lp_tautomer_probability>  (248) 
1

>  <r_epik_Ionization_Penalty>  (248) 
2.26038

>  <r_epik_Ionization_Penalty_Charging>  (248) 
0

>  <r_epik_Ionization_Penalty_Neutral>  (248) 
2.26038

>  <r_epik_State_Penalty>  (248) 
2.40125

>  <r_epik_Charging_Adjusted_Penalty>  (248) 
2.40125

>  <i_epik_Tot_Q>  (248) 
0

>  <i_epik_Tot_abs_Q>  (248) 
0

>  <s_lp_Force_Field>  (248) 
OPLS3e

>  <r_lp_Energy>  (248) 
27.599

>  <b_lp_Chiralities_Consistent>  (248) 
1

>  <s_lp_Variant>  (248) 
81:0-2

>  <s_i_glide_gridfile>  (248) 
pfpi4k_grid

>  <i_i_glide_lignum>  (248) 
31

>  <i_i_glide_rotatable_bonds>  (248) 
2

>  <r_i_docking_score>  (248) 
-3.43783

>  <r_i_glide_ligand_efficiency>  (248) 
-0.163706

>  <r_i_glide_ligand_efficiency_sa>  (248) 
-0.451653

>  <r_i_glide_ligand_efficiency_ln>  (248) 
-0.849996

>  <r_i_glide_gscore>  (248) 
-3.43783

>  <r_i_glide_lipo>  (248) 
-0.389163

>  <r_i_glide_hbond>  (248) 
0

>  <r_i_glide_metal>  (248) 
-0

>  <r_i_glide_rewards>  (248) 
-1.42936

>  <r_i_glide_evdw>  (248) 
-23.0862

>  <r_i_glide_ecoul>  (248) 
-2.88977

>  <r_i_glide_erotb>  (248) 
0

>  <r_i_glide_esite>  (248) 
-0.0315276

>  <r_i_glide_emodel>  (248) 
-31.8102

>  <r_i_glide_energy>  (248) 
-25.976

>  <r_i_glide_einternal>  (248) 
0.266767

>  <r_i_glide_intrahb_reward>  (248) 
-0

>  <i_i_glide_confnum>  (248) 
2

>  <i_i_glide_posenum>  (248) 
28

>  <r_i_glide_eff_state_penalty>  (248) 
0

>  <ligand_id>  (248) 
81

>  <original_smiles>  (248) 
CC1Cc2[nH]c(=N)ncc2C2CC3CCC(O)C3(O)CN12

>  <smiles>  (248) 
[H]OC1([H])C([H])([H])C([H])([H])C2([H])C([H])([H])C3([H])c4c([H])nc(N([H])[H])nc4C([H])([H])C([H])(C([H])([H])[H])N3C([H])([H])C12O[H]

$$$$
81:1:1
     RDKit          3D

 43 46  0  0  1  0  0  0  0  0999 V2000
    5.5062   -7.6778    1.6501 C   0  0  0  0  0  0  0  0  0  0  0  0
    5.0262   -6.4012    2.3699 C   0  0  2  0  0  0  0  0  0  0  0  0
    3.9461   -6.7126    3.4166 C   0  0  0  0  0  0  0  0  0  0  0  0
    2.6018   -6.9478    2.7579 C   0  0  0  0  0  0  0  0  0  0  0  0
    1.7018   -7.6846    3.4455 N   0  0  0  0  0  0  0  0  0  0  0  0
    0.5141   -7.8579    2.8694 C   0  0  0  0  0  0  0  0  0  0  0  0
   -0.3914   -8.6060    3.5582 N   0  0  0  0  0  0  0  0  0  0  0  0
    0.1100   -7.3530    1.7068 N   0  0  0  0  0  0  0  0  0  0  0  0
    1.0210   -6.6561    0.9961 C   0  0  0  0  0  0  0  0  0  0  0  0
    2.3103   -6.3804    1.4982 C   0  0  0  0  0  0  0  0  0  0  0  0
    3.3824   -5.6290    0.6956 C   0  0  1  0  0  0  0  0  0  0  0  0
    2.8168   -4.3589   -0.0019 C   0  0  0  0  0  0  0  0  0  0  0  0
    3.9521   -3.7279   -0.8228 C   0  0  1  0  0  0  0  0  0  0  0  0
    3.6889   -2.4822   -1.6743 C   0  0  0  0  0  0  0  0  0  0  0  0
    5.0870   -1.8571   -1.8590 C   0  0  0  0  0  0  0  0  0  0  0  0
    6.0585   -2.7022   -1.0115 C   0  0  1  0  0  0  0  0  0  0  0  0
    7.0740   -1.8925   -0.4561 O   0  0  0  0  0  0  0  0  0  0  0  0
    5.1577   -3.3822    0.0394 C   0  0  1  0  0  0  0  0  0  0  0  0
    4.8215   -2.4303    1.0371 O   0  0  0  0  0  0  0  0  0  0  0  0
    5.6478   -4.6619    0.7366 C   0  0  0  0  0  0  0  0  0  0  0  0
    4.5723   -5.3044    1.5107 N   0  0  0  0  0  0  0  0  0  0  0  0
   -0.0826   -9.1322    4.3647 H   0  0  0  0  0  0  0  0  0  0  0  0
    5.8990   -8.3799    2.3833 H   0  0  0  0  0  0  0  0  0  0  0  0
    6.3112   -7.4644    0.9517 H   0  0  0  0  0  0  0  0  0  0  0  0
    4.7005   -8.1830    1.1131 H   0  0  0  0  0  0  0  0  0  0  0  0
    5.8838   -6.0408    2.9362 H   0  0  0  0  0  0  0  0  0  0  0  0
    4.2224   -7.5523    4.0594 H   0  0  0  0  0  0  0  0  0  0  0  0
    3.8179   -5.8474    4.0735 H   0  0  0  0  0  0  0  0  0  0  0  0
   -1.2380   -8.8962    3.0882 H   0  0  0  0  0  0  0  0  0  0  0  0
    0.6862   -6.3001    0.0329 H   0  0  0  0  0  0  0  0  0  0  0  0
    3.6843   -6.3171   -0.0963 H   0  0  0  0  0  0  0  0  0  0  0  0
    2.0009   -4.6078   -0.6754 H   0  0  0  0  0  0  0  0  0  0  0  0
    2.4381   -3.6502    0.7374 H   0  0  0  0  0  0  0  0  0  0  0  0
    4.2840   -4.4965   -1.5211 H   0  0  0  0  0  0  0  0  0  0  0  0
    3.2332   -2.7405   -2.6296 H   0  0  0  0  0  0  0  0  0  0  0  0
    3.0220   -1.7864   -1.1598 H   0  0  0  0  0  0  0  0  0  0  0  0
    5.3987   -1.8563   -2.9032 H   0  0  0  0  0  0  0  0  0  0  0  0
    5.0643   -0.8177   -1.5282 H   0  0  0  0  0  0  0  0  0  0  0  0
    6.5246   -3.4568   -1.6488 H   0  0  0  0  0  0  0  0  0  0  0  0
    7.6132   -2.4440    0.0944 H   0  0  0  0  0  0  0  0  0  0  0  0
    4.3416   -1.7319    0.6154 H   0  0  0  0  0  0  0  0  0  0  0  0
    6.0247   -5.3614   -0.0057 H   0  0  0  0  0  0  0  0  0  0  0  0
    6.4847   -4.4193    1.3919 H   0  0  0  0  0  0  0  0  0  0  0  0
  1  2  1  0
  1 23  1  0
  1 24  1  0
  1 25  1  0
  2 21  1  0
  2  3  1  0
  2 26  1  1
  3 27  1  0
  3 28  1  0
  3  4  1  0
  4 10  2  0
  4  5  1  0
  5  6  2  0
  6  7  1  0
  6  8  1  0
  7 29  1  0
  7 22  1  0
  8  9  2  0
  9 30  1  0
  9 10  1  0
 10 11  1  0
 11 21  1  0
 11 12  1  0
 11 31  1  6
 12 13  1  0
 12 32  1  0
 12 33  1  0
 13 18  1  0
 13 14  1  0
 13 34  1  6
 14 15  1  0
 14 35  1  0
 14 36  1  0
 15 16  1  0
 15 37  1  0
 15 38  1  0
 16 17  1  0
 16 18  1  0
 16 39  1  6
 17 40  1  0
 18 19  1  1
 18 20  1  0
 19 41  1  0
 20 21  1  0
 20 42  1  0
 20 43  1  0
M  END
>  <i_m_ct_stereo_status>  (249) 
1

>  <s_m_source_file>  (249) 
/var/tmp/pbs.5076255.sched01/tmpi5tju4vo/80qzp1lgse.sdf

>  <i_m_source_file_index>  (249) 
31

>  <i_lp_mmshare_version>  (249) 
48012

>  <i_f3d_flags>  (249) 
0

>  <s_epik_input>  (249) 
W2NIXTFuYyg9TlxbSF0pXFtuSF1jKFtDSDJdW0NAQEhdKFtDSDNdKU4yW0NIMl0zKWMxW0NASF0yW0NIMl1bQ0BIXShbQ0BAXTM0W09IXSlbQ0gyXVtDSDJdW0NASF00W09IXQ==

>  <s_epik_cmdline>  (249) 
J2VwaWtfcHl0aG9uJywgJy1waHQnLCAnMi4wJywgJy1waCcsICc3LjAnLCAnLXRuJywgJzgnLCAnLW1hJywgJzIwMCcsICctaW1hZScsICc8aW5maWxlLm1hZT4nLCAnLW9tYWUnLCAnPG91dGZpbGUubWFlPic=

>  <r_lp_tautomer_probability>  (249) 
1

>  <r_epik_Ionization_Penalty>  (249) 
2.26038

>  <r_epik_Ionization_Penalty_Charging>  (249) 
0

>  <r_epik_Ionization_Penalty_Neutral>  (249) 
2.26038

>  <r_epik_State_Penalty>  (249) 
2.40125

>  <r_epik_Charging_Adjusted_Penalty>  (249) 
2.40125

>  <i_epik_Tot_Q>  (249) 
0

>  <i_epik_Tot_abs_Q>  (249) 
0

>  <s_lp_Force_Field>  (249) 
OPLS3e

>  <r_lp_Energy>  (249) 
27.599

>  <b_lp_Chiralities_Consistent>  (249) 
1

>  <s_lp_Variant>  (249) 
81:0-2

>  <s_i_glide_gridfile>  (249) 
pfpi4k_grid

>  <i_i_glide_lignum>  (249) 
31

>  <i_i_glide_rotatable_bonds>  (249) 
2

>  <r_i_docking_score>  (249) 
-3.35405

>  <r_i_glide_ligand_efficiency>  (249) 
-0.159716

>  <r_i_glide_ligand_efficiency_sa>  (249) 
-0.440646

>  <r_i_glide_ligand_efficiency_ln>  (249) 
-0.829281

>  <r_i_glide_gscore>  (249) 
-3.35405

>  <r_i_glide_lipo>  (249) 
-0.197554

>  <r_i_glide_hbond>  (249) 
0

>  <r_i_glide_metal>  (249) 
-0

>  <r_i_glide_rewards>  (249) 
-1.42936

>  <r_i_glide_evdw>  (249) 
-25.3314

>  <r_i_glide_ecoul>  (249) 
-2.49175

>  <r_i_glide_erotb>  (249) 
0

>  <r_i_glide_esite>  (249) 
-0.0867986

>  <r_i_glide_emodel>  (249) 
-33.5265

>  <r_i_glide_energy>  (249) 
-27.8232

>  <r_i_glide_einternal>  (249) 
0.393039

>  <r_i_glide_intrahb_reward>  (249) 
-0

>  <i_i_glide_confnum>  (249) 
2

>  <i_i_glide_posenum>  (249) 
14

>  <r_i_glide_eff_state_penalty>  (249) 
0

>  <ligand_id>  (249) 
81

>  <original_smiles>  (249) 
CC1Cc2[nH]c(=N)ncc2C2CC3CCC(O)C3(O)CN12

>  <smiles>  (249) 
[H]OC1([H])C([H])([H])C([H])([H])C2([H])C([H])([H])C3([H])c4c([H])nc(N([H])[H])nc4C([H])([H])C([H])(C([H])([H])[H])N3C([H])([H])C12O[H]

$$$$
81:1:2
     RDKit          3D

 43 46  0  0  1  0  0  0  0  0999 V2000
    5.5023   -7.7183    1.5769 C   0  0  0  0  0  0  0  0  0  0  0  0
    5.0361   -6.4746    2.3579 C   0  0  2  0  0  0  0  0  0  0  0  0
    3.9613   -6.8327    3.3949 C   0  0  0  0  0  0  0  0  0  0  0  0
    2.6107   -7.0326    2.7345 C   0  0  0  0  0  0  0  0  0  0  0  0
    1.7149   -7.8004    3.3955 N   0  0  0  0  0  0  0  0  0  0  0  0
    0.5259   -7.9387    2.8186 C   0  0  0  0  0  0  0  0  0  0  0  0
   -0.3772   -8.7266    3.4731 N   0  0  0  0  0  0  0  0  0  0  0  0
    0.1106   -7.3790    1.6857 N   0  0  0  0  0  0  0  0  0  0  0  0
    1.0210   -6.6534    1.0029 C   0  0  0  0  0  0  0  0  0  0  0  0
    2.3147   -6.4068    1.5035 C   0  0  0  0  0  0  0  0  0  0  0  0
    3.3887   -5.6232    0.7283 C   0  0  1  0  0  0  0  0  0  0  0  0
    2.8286   -4.3237    0.0812 C   0  0  0  0  0  0  0  0  0  0  0  0
    3.9579   -3.6616   -0.7232 C   0  0  1  0  0  0  0  0  0  0  0  0
    3.6964   -2.3727   -1.5042 C   0  0  0  0  0  0  0  0  0  0  0  0
    5.0953   -1.7382   -1.6610 C   0  0  0  0  0  0  0  0  0  0  0  0
    6.0788   -2.6310   -0.8638 C   0  0  1  0  0  0  0  0  0  0  0  0
    7.1176   -1.8816   -0.2613 O   0  0  0  0  0  0  0  0  0  0  0  0
    5.1697   -3.3456    0.1497 C   0  0  1  0  0  0  0  0  0  0  0  0
    4.8445   -2.4014    1.1566 O   0  0  0  0  0  0  0  0  0  0  0  0
    5.6557   -4.6615    0.7973 C   0  0  0  0  0  0  0  0  0  0  0  0
    4.5811   -5.3308    1.5528 N   0  0  0  0  0  0  0  0  0  0  0  0
   -0.0769   -9.2806    4.2635 H   0  0  0  0  0  0  0  0  0  0  0  0
    5.8956   -8.4595    2.2749 H   0  0  0  0  0  0  0  0  0  0  0  0
    6.3088   -7.4774    0.8858 H   0  0  0  0  0  0  0  0  0  0  0  0
    4.6955   -8.1973    1.0181 H   0  0  0  0  0  0  0  0  0  0  0  0
    5.8993   -6.1483    2.9368 H   0  0  0  0  0  0  0  0  0  0  0  0
    4.2379   -7.7021    3.9934 H   0  0  0  0  0  0  0  0  0  0  0  0
    3.8400   -5.9986    4.0895 H   0  0  0  0  0  0  0  0  0  0  0  0
   -1.2339   -8.9799    3.0033 H   0  0  0  0  0  0  0  0  0  0  0  0
    0.6837   -6.2605    0.0551 H   0  0  0  0  0  0  0  0  0  0  0  0
    3.6824   -6.2808   -0.0916 H   0  0  0  0  0  0  0  0  0  0  0  0
    1.9991   -4.5425   -0.5932 H   0  0  0  0  0  0  0  0  0  0  0  0
    2.4550   -3.6473    0.8543 H   0  0  0  0  0  0  0  0  0  0  0  0
    4.2751   -4.4005   -1.4621 H   0  0  0  0  0  0  0  0  0  0  0  0
    3.2256   -2.5809   -2.4654 H   0  0  0  0  0  0  0  0  0  0  0  0
    3.0342   -1.7038   -0.9444 H   0  0  0  0  0  0  0  0  0  0  0  0
    5.3943   -1.6837   -2.7066 H   0  0  0  0  0  0  0  0  0  0  0  0
    5.0658   -0.7177   -1.2752 H   0  0  0  0  0  0  0  0  0  0  0  0
    6.5208   -3.3613   -1.5458 H   0  0  0  0  0  0  0  0  0  0  0  0
    6.7306   -1.3625    0.4382 H   0  0  0  0  0  0  0  0  0  0  0  0
    5.5686   -2.3781    1.7720 H   0  0  0  0  0  0  0  0  0  0  0  0
    6.0231   -5.3372    0.0282 H   0  0  0  0  0  0  0  0  0  0  0  0
    6.5024   -4.4617    1.4554 H   0  0  0  0  0  0  0  0  0  0  0  0
  1  2  1  0
  1 23  1  0
  1 24  1  0
  1 25  1  0
  2 21  1  0
  2  3  1  0
  2 26  1  1
  3 27  1  0
  3 28  1  0
  3  4  1  0
  4 10  2  0
  4  5  1  0
  5  6  2  0
  6  7  1  0
  6  8  1  0
  7 29  1  0
  7 22  1  0
  8  9  2  0
  9 30  1  0
  9 10  1  0
 10 11  1  0
 11 21  1  0
 11 12  1  0
 11 31  1  6
 12 13  1  0
 12 32  1  0
 12 33  1  0
 13 18  1  0
 13 14  1  0
 13 34  1  6
 14 15  1  0
 14 35  1  0
 14 36  1  0
 15 16  1  0
 15 37  1  0
 15 38  1  0
 16 17  1  0
 16 18  1  0
 16 39  1  6
 17 40  1  0
 18 19  1  1
 18 20  1  0
 19 41  1  0
 20 21  1  0
 20 42  1  0
 20 43  1  0
M  END
>  <i_m_ct_stereo_status>  (250) 
1

>  <s_m_source_file>  (250) 
/var/tmp/pbs.5076255.sched01/tmpi5tju4vo/80qzp1lgse.sdf

>  <i_m_source_file_index>  (250) 
31

>  <i_lp_mmshare_version>  (250) 
48012

>  <i_f3d_flags>  (250) 
0

>  <s_epik_input>  (250) 
W2NIXTFuYyg9TlxbSF0pXFtuSF1jKFtDSDJdW0NAQEhdKFtDSDNdKU4yW0NIMl0zKWMxW0NASF0yW0NIMl1bQ0BIXShbQ0BAXTM0W09IXSlbQ0gyXVtDSDJdW0NASF00W09IXQ==

>  <s_epik_cmdline>  (250) 
J2VwaWtfcHl0aG9uJywgJy1waHQnLCAnMi4wJywgJy1waCcsICc3LjAnLCAnLXRuJywgJzgnLCAnLW1hJywgJzIwMCcsICctaW1hZScsICc8aW5maWxlLm1hZT4nLCAnLW9tYWUnLCAnPG91dGZpbGUubWFlPic=

>  <r_lp_tautomer_probability>  (250) 
1

>  <r_epik_Ionization_Penalty>  (250) 
2.26038

>  <r_epik_Ionization_Penalty_Charging>  (250) 
0

>  <r_epik_Ionization_Penalty_Neutral>  (250) 
2.26038

>  <r_epik_State_Penalty>  (250) 
2.40125

>  <r_epik_Charging_Adjusted_Penalty>  (250) 
2.40125

>  <i_epik_Tot_Q>  (250) 
0

>  <i_epik_Tot_abs_Q>  (250) 
0

>  <s_lp_Force_Field>  (250) 
OPLS3e

>  <r_lp_Energy>  (250) 
27.599

>  <b_lp_Chiralities_Consistent>  (250) 
1

>  <s_lp_Variant>  (250) 
81:0-2

>  <s_i_glide_gridfile>  (250) 
pfpi4k_grid

>  <i_i_glide_lignum>  (250) 
31

>  <i_i_glide_rotatable_bonds>  (250) 
2

>  <r_i_docking_score>  (250) 
-3.2413

>  <r_i_glide_ligand_efficiency>  (250) 
-0.154348

>  <r_i_glide_ligand_efficiency_sa>  (250) 
-0.425833

>  <r_i_glide_ligand_efficiency_ln>  (250) 
-0.801404

>  <r_i_glide_gscore>  (250) 
-3.2413

>  <r_i_glide_lipo>  (250) 
-0.201003

>  <r_i_glide_hbond>  (250) 
0

>  <r_i_glide_metal>  (250) 
-0

>  <r_i_glide_rewards>  (250) 
-1.42936

>  <r_i_glide_evdw>  (250) 
-25.978

>  <r_i_glide_ecoul>  (250) 
-1.50657

>  <r_i_glide_erotb>  (250) 
0

>  <r_i_glide_esite>  (250) 
-0.0860519

>  <r_i_glide_emodel>  (250) 
-32.971

>  <r_i_glide_energy>  (250) 
-27.4845

>  <r_i_glide_einternal>  (250) 
0.241945

>  <r_i_glide_intrahb_reward>  (250) 
-0

>  <i_i_glide_confnum>  (250) 
1

>  <i_i_glide_posenum>  (250) 
25

>  <r_i_glide_eff_state_penalty>  (250) 
0

>  <ligand_id>  (250) 
81

>  <original_smiles>  (250) 
CC1Cc2[nH]c(=N)ncc2C2CC3CCC(O)C3(O)CN12

>  <smiles>  (250) 
[H]OC1([H])C([H])([H])C([H])([H])C2([H])C([H])([H])C3([H])c4c([H])nc(N([H])[H])nc4C([H])([H])C([H])(C([H])([H])[H])N3C([H])([H])C12O[H]

$$$$
82:0:0
     RDKit          3D

 42 45  0  0  1  0  0  0  0  0999 V2000
   -1.0451   -8.2677    3.3322 C   0  0  0  0  0  0  0  0  0  0  0  0
   -0.6158   -7.7067    2.1062 C   0  0  0  0  0  0  0  0  0  0  0  0
    0.2043   -6.6308    2.0274 N   0  0  0  0  0  0  0  0  0  0  0  0
    0.5952   -6.1846    3.2583 C   0  0  0  0  0  0  0  0  0  0  0  0
    0.1634   -6.7391    4.4959 C   0  0  0  0  0  0  0  0  0  0  0  0
   -0.6705   -7.7816    4.5416 N   0  0  0  0  0  0  0  0  0  0  0  0
    0.7041   -6.0516    5.5689 N   0  0  0  0  0  0  0  0  0  0  0  0
    1.4426   -5.1333    4.9519 C   0  0  0  0  0  0  0  0  0  0  0  0
    1.4465   -5.1391    3.6059 N   0  0  0  0  0  0  0  0  0  0  0  0
    2.1518   -4.2301    2.7253 C   0  0  0  0  0  0  0  0  0  0  0  0
    2.9829   -4.9481    1.6365 C   0  0  2  0  0  0  0  0  0  0  0  0
    3.8893   -6.0156    2.2815 C   0  0  0  0  0  0  0  0  0  0  0  0
    4.7467   -6.7046    1.2285 C   0  0  0  0  0  0  0  0  0  0  0  0
    5.5438   -5.6657    0.4317 C   0  0  0  0  0  0  0  0  0  0  0  0
    4.6611   -4.6549   -0.2162 N   0  0  2  0  0  0  0  0  0  0  0  0
    5.4506   -3.7004   -1.0456 C   0  0  0  0  0  0  0  0  0  0  0  0
    4.5584   -2.6604   -1.7482 C   0  0  0  0  0  0  0  0  0  0  0  0
    3.7014   -1.9079   -0.7313 C   0  0  0  0  0  0  0  0  0  0  0  0
    2.8962   -2.9125    0.0849 C   0  0  0  0  0  0  0  0  0  0  0  0
    3.8104   -3.9448    0.7897 C   0  0  1  0  0  0  0  0  0  0  0  0
   -1.7140   -9.1129    3.3445 H   0  0  0  0  0  0  0  0  0  0  0  0
   -0.9516   -8.1215    1.1680 H   0  0  0  0  0  0  0  0  0  0  0  0
    2.0200   -4.4082    5.5066 H   0  0  0  0  0  0  0  0  0  0  0  0
    1.4128   -3.5600    2.2927 H   0  0  0  0  0  0  0  0  0  0  0  0
    2.8021   -3.5997    3.3293 H   0  0  0  0  0  0  0  0  0  0  0  0
    2.3092   -5.4671    0.9504 H   0  0  0  0  0  0  0  0  0  0  0  0
    4.5232   -5.5539    3.0403 H   0  0  0  0  0  0  0  0  0  0  0  0
    3.3105   -6.7895    2.7894 H   0  0  0  0  0  0  0  0  0  0  0  0
    5.4321   -7.3927    1.7278 H   0  0  0  0  0  0  0  0  0  0  0  0
    4.1220   -7.3174    0.5721 H   0  0  0  0  0  0  0  0  0  0  0  0
    6.2726   -5.1718    1.0775 H   0  0  0  0  0  0  0  0  0  0  0  0
    6.1142   -6.1958   -0.3224 H   0  0  0  0  0  0  0  0  0  0  0  0
    6.1843   -3.1902   -0.4175 H   0  0  0  0  0  0  0  0  0  0  0  0
    5.9952   -4.2520   -1.8083 H   0  0  0  0  0  0  0  0  0  0  0  0
    5.1753   -1.9428   -2.2913 H   0  0  0  0  0  0  0  0  0  0  0  0
    3.9100   -3.1445   -2.4849 H   0  0  0  0  0  0  0  0  0  0  0  0
    4.3279   -1.3105   -0.0679 H   0  0  0  0  0  0  0  0  0  0  0  0
    3.0229   -1.2142   -1.2312 H   0  0  0  0  0  0  0  0  0  0  0  0
    2.3386   -2.3222    0.8079 H   0  0  0  0  0  0  0  0  0  0  0  0
    2.1649   -3.4155   -0.5551 H   0  0  0  0  0  0  0  0  0  0  0  0
    4.4888   -3.4125    1.4603 H   0  0  0  0  0  0  0  0  0  0  0  0
    4.0489   -5.1515   -0.8525 H   0  0  0  0  0  0  0  0  0  0  0  0
  1  6  2  0
  1  2  1  0
  1 21  1  0
  2  3  2  0
  2 22  1  0
  3  4  1  0
  4  9  1  0
  4  5  2  0
  5  6  1  0
  5  7  1  0
  7  8  2  0
  8  9  1  0
  8 23  1  0
  9 10  1  0
 10 11  1  0
 10 24  1  0
 10 25  1  0
 11 20  1  0
 11 12  1  0
 11 26  1  6
 12 13  1  0
 12 27  1  0
 12 28  1  0
 13 14  1  0
 13 29  1  0
 13 30  1  0
 14 15  1  0
 14 31  1  0
 14 32  1  0
 15 20  1  0
 15 16  1  0
 15 42  1  6
 16 17  1  0
 16 33  1  0
 16 34  1  0
 17 18  1  0
 17 35  1  0
 17 36  1  0
 18 19  1  0
 18 37  1  0
 18 38  1  0
 19 20  1  0
 19 39  1  0
 19 40  1  0
 20 41  1  1
M  CHG  1  15   1
M  END
>  <i_m_ct_stereo_status>  (251) 
1

>  <s_m_source_file>  (251) 
/var/tmp/pbs.5076255.sched01/tmpi5tju4vo/80qzp1lgse.sdf

>  <i_m_source_file_index>  (251) 
32

>  <i_lp_mmshare_version>  (251) 
48012

>  <i_f3d_flags>  (251) 
0

>  <s_epik_input>  (251) 
bjFbY0hdW2NIXW5jKGMxMiluW2NIXW4yW0NIMl1bQ0BIXShbQ0gyXVtDSDJdW0NIMl0zKVtDQEBIXShOMzQpW0NIMl1bQ0gyXVtDSDJdW0NIMl00

>  <s_epik_cmdline>  (251) 
J2VwaWtfcHl0aG9uJywgJy1waHQnLCAnMi4wJywgJy1waCcsICc3LjAnLCAnLXRuJywgJzgnLCAnLW1hJywgJzIwMCcsICctaW1hZScsICc8aW5maWxlLm1hZT4nLCAnLW9tYWUnLCAnPG91dGZpbGUubWFlPic=

>  <r_lp_tautomer_probability>  (251) 
1

>  <r_epik_Ionization_Penalty>  (251) 
0.000471476

>  <r_epik_Ionization_Penalty_Charging>  (251) 
0.000470666

>  <r_epik_Ionization_Penalty_Neutral>  (251) 
8.10477e-07

>  <r_epik_State_Penalty>  (251) 
0.000291637

>  <r_epik_Charging_Adjusted_Penalty>  (251) 
0.000762303

>  <i_epik_Tot_Q>  (251) 
1

>  <i_epik_Tot_abs_Q>  (251) 
1

>  <s_lp_Force_Field>  (251) 
OPLS3e

>  <r_lp_Energy>  (251) 
32.2542

>  <b_lp_Chiralities_Consistent>  (251) 
1

>  <s_lp_Variant>  (251) 
82:0-1

>  <s_i_glide_gridfile>  (251) 
pfpi4k_grid

>  <i_i_glide_lignum>  (251) 
32

>  <i_i_glide_rotatable_bonds>  (251) 
2

>  <r_i_docking_score>  (251) 
-3.31543

>  <r_i_glide_ligand_efficiency>  (251) 
-0.165771

>  <r_i_glide_ligand_efficiency_sa>  (251) 
-0.449973

>  <r_i_glide_ligand_efficiency_ln>  (251) 
-0.829743

>  <r_i_glide_gscore>  (251) 
-3.31543

>  <r_i_glide_lipo>  (251) 
-0.264366

>  <r_i_glide_hbond>  (251) 
-0.0986112

>  <r_i_glide_metal>  (251) 
-0

>  <r_i_glide_rewards>  (251) 
-1.55203

>  <r_i_glide_evdw>  (251) 
-18.8533

>  <r_i_glide_ecoul>  (251) 
-5.67323

>  <r_i_glide_erotb>  (251) 
0.483132

>  <r_i_glide_esite>  (251) 
-0.0899033

>  <r_i_glide_emodel>  (251) 
-31.0907

>  <r_i_glide_energy>  (251) 
-24.5265

>  <r_i_glide_einternal>  (251) 
0.65776

>  <r_i_glide_intrahb_reward>  (251) 
-0

>  <i_i_glide_confnum>  (251) 
4

>  <i_i_glide_posenum>  (251) 
8

>  <r_i_glide_eff_state_penalty>  (251) 
0

>  <ligand_id>  (251) 
82

>  <original_smiles>  (251) 
c1cnc2c(n1)ncn2CC1CCCN2CCCCC12

>  <smiles>  (251) 
[H]c1nc2nc([H])n(C([H])([H])C3([H])C([H])([H])C([H])([H])C([H])([H])[N+]4([H])C([H])([H])C([H])([H])C([H])([H])C([H])([H])C34[H])c2nc1[H]

$$$$
82:0:1
     RDKit          3D

 42 45  0  0  1  0  0  0  0  0999 V2000
    0.2864   -1.8107    4.5851 C   0  0  0  0  0  0  0  0  0  0  0  0
    1.0823   -2.8402    4.0196 C   0  0  0  0  0  0  0  0  0  0  0  0
    1.0769   -4.1141    4.4721 N   0  0  0  0  0  0  0  0  0  0  0  0
    0.2282   -4.2852    5.5258 C   0  0  0  0  0  0  0  0  0  0  0  0
   -0.5775   -3.2612    6.0959 C   0  0  0  0  0  0  0  0  0  0  0  0
   -0.5606   -2.0098    5.6259 N   0  0  0  0  0  0  0  0  0  0  0  0
   -1.3521   -3.7506    7.1341 N   0  0  0  0  0  0  0  0  0  0  0  0
   -0.9812   -5.0313    7.1572 C   0  0  0  0  0  0  0  0  0  0  0  0
   -0.0798   -5.4355    6.2427 N   0  0  0  0  0  0  0  0  0  0  0  0
    0.4557   -6.7696    6.0536 C   0  0  0  0  0  0  0  0  0  0  0  0
    0.2257   -7.3415    4.6293 C   0  0  2  0  0  0  0  0  0  0  0  0
   -1.2083   -7.0706    4.1452 C   0  0  0  0  0  0  0  0  0  0  0  0
   -1.4528   -7.6516    2.7530 C   0  0  0  0  0  0  0  0  0  0  0  0
   -1.1246   -9.1496    2.7239 C   0  0  0  0  0  0  0  0  0  0  0  0
    0.2651   -9.4174    3.1900 N   0  0  2  0  0  0  0  0  0  0  0  0
    0.5908  -10.8661    3.1123 C   0  0  0  0  0  0  0  0  0  0  0  0
    2.0475  -11.1628    3.5181 C   0  0  0  0  0  0  0  0  0  0  0  0
    2.3326  -10.6257    4.9231 C   0  0  0  0  0  0  0  0  0  0  0  0
    2.0076   -9.1364    4.9681 C   0  0  0  0  0  0  0  0  0  0  0  0
    0.5396   -8.8600    4.5565 C   0  0  1  0  0  0  0  0  0  0  0  0
    0.3372   -0.8091    4.1931 H   0  0  0  0  0  0  0  0  0  0  0  0
    1.7336   -2.6326    3.1842 H   0  0  0  0  0  0  0  0  0  0  0  0
   -1.4066   -5.7232    7.8661 H   0  0  0  0  0  0  0  0  0  0  0  0
    1.5166   -6.7328    6.3020 H   0  0  0  0  0  0  0  0  0  0  0  0
   -0.0160   -7.4269    6.7828 H   0  0  0  0  0  0  0  0  0  0  0  0
    0.8953   -6.8209    3.9408 H   0  0  0  0  0  0  0  0  0  0  0  0
   -1.9256   -7.4762    4.8594 H   0  0  0  0  0  0  0  0  0  0  0  0
   -1.3868   -6.0012    4.0799 H   0  0  0  0  0  0  0  0  0  0  0  0
   -2.5023   -7.4995    2.4914 H   0  0  0  0  0  0  0  0  0  0  0  0
   -0.8650   -7.1070    2.0098 H   0  0  0  0  0  0  0  0  0  0  0  0
   -1.8387   -9.6846    3.3467 H   0  0  0  0  0  0  0  0  0  0  0  0
   -1.2570   -9.5240    1.7089 H   0  0  0  0  0  0  0  0  0  0  0  0
   -0.0797  -11.4221    3.7687 H   0  0  0  0  0  0  0  0  0  0  0  0
    0.4115  -11.2024    2.0922 H   0  0  0  0  0  0  0  0  0  0  0  0
    2.2225  -12.2398    3.5116 H   0  0  0  0  0  0  0  0  0  0  0  0
    2.7520  -10.7251    2.8052 H   0  0  0  0  0  0  0  0  0  0  0  0
    1.7305  -11.1528    5.6638 H   0  0  0  0  0  0  0  0  0  0  0  0
    3.3741  -10.7919    5.1999 H   0  0  0  0  0  0  0  0  0  0  0  0
    2.1856   -8.8142    5.9913 H   0  0  0  0  0  0  0  0  0  0  0  0
    2.7020   -8.5781    4.3333 H   0  0  0  0  0  0  0  0  0  0  0  0
   -0.1254   -9.3846    5.2457 H   0  0  0  0  0  0  0  0  0  0  0  0
    0.8816   -8.9547    2.5411 H   0  0  0  0  0  0  0  0  0  0  0  0
  1  6  2  0
  1  2  1  0
  1 21  1  0
  2  3  2  0
  2 22  1  0
  3  4  1  0
  4  9  1  0
  4  5  2  0
  5  6  1  0
  5  7  1  0
  7  8  2  0
  8  9  1  0
  8 23  1  0
  9 10  1  0
 10 11  1  0
 10 24  1  0
 10 25  1  0
 11 20  1  0
 11 12  1  0
 11 26  1  6
 12 13  1  0
 12 27  1  0
 12 28  1  0
 13 14  1  0
 13 29  1  0
 13 30  1  0
 14 15  1  0
 14 31  1  0
 14 32  1  0
 15 20  1  0
 15 16  1  0
 15 42  1  6
 16 17  1  0
 16 33  1  0
 16 34  1  0
 17 18  1  0
 17 35  1  0
 17 36  1  0
 18 19  1  0
 18 37  1  0
 18 38  1  0
 19 20  1  0
 19 39  1  0
 19 40  1  0
 20 41  1  1
M  CHG  1  15   1
M  END
>  <i_m_ct_stereo_status>  (252) 
1

>  <s_m_source_file>  (252) 
/var/tmp/pbs.5076255.sched01/tmpi5tju4vo/80qzp1lgse.sdf

>  <i_m_source_file_index>  (252) 
32

>  <i_lp_mmshare_version>  (252) 
48012

>  <i_f3d_flags>  (252) 
0

>  <s_epik_input>  (252) 
bjFbY0hdW2NIXW5jKGMxMiluW2NIXW4yW0NIMl1bQ0BIXShbQ0gyXVtDSDJdW0NIMl0zKVtDQEBIXShOMzQpW0NIMl1bQ0gyXVtDSDJdW0NIMl00

>  <s_epik_cmdline>  (252) 
J2VwaWtfcHl0aG9uJywgJy1waHQnLCAnMi4wJywgJy1waCcsICc3LjAnLCAnLXRuJywgJzgnLCAnLW1hJywgJzIwMCcsICctaW1hZScsICc8aW5maWxlLm1hZT4nLCAnLW9tYWUnLCAnPG91dGZpbGUubWFlPic=

>  <r_lp_tautomer_probability>  (252) 
1

>  <r_epik_Ionization_Penalty>  (252) 
0.000471476

>  <r_epik_Ionization_Penalty_Charging>  (252) 
0.000470666

>  <r_epik_Ionization_Penalty_Neutral>  (252) 
8.10477e-07

>  <r_epik_State_Penalty>  (252) 
0.000291637

>  <r_epik_Charging_Adjusted_Penalty>  (252) 
0.000762303

>  <i_epik_Tot_Q>  (252) 
1

>  <i_epik_Tot_abs_Q>  (252) 
1

>  <s_lp_Force_Field>  (252) 
OPLS3e

>  <r_lp_Energy>  (252) 
32.2542

>  <b_lp_Chiralities_Consistent>  (252) 
1

>  <s_lp_Variant>  (252) 
82:0-1

>  <s_i_glide_gridfile>  (252) 
pfpi4k_grid

>  <i_i_glide_lignum>  (252) 
32

>  <i_i_glide_rotatable_bonds>  (252) 
2

>  <r_i_docking_score>  (252) 
-3.18726

>  <r_i_glide_ligand_efficiency>  (252) 
-0.159363

>  <r_i_glide_ligand_efficiency_sa>  (252) 
-0.432577

>  <r_i_glide_ligand_efficiency_ln>  (252) 
-0.797665

>  <r_i_glide_gscore>  (252) 
-3.18726

>  <r_i_glide_lipo>  (252) 
-0.241148

>  <r_i_glide_hbond>  (252) 
0

>  <r_i_glide_metal>  (252) 
-0

>  <r_i_glide_rewards>  (252) 
-1.64585

>  <r_i_glide_evdw>  (252) 
-19.5953

>  <r_i_glide_ecoul>  (252) 
-4.99643

>  <r_i_glide_erotb>  (252) 
0.483132

>  <r_i_glide_esite>  (252) 
-0.05416

>  <r_i_glide_emodel>  (252) 
-30.9309

>  <r_i_glide_energy>  (252) 
-24.5917

>  <r_i_glide_einternal>  (252) 
0.657338

>  <r_i_glide_intrahb_reward>  (252) 
-0

>  <i_i_glide_confnum>  (252) 
4

>  <i_i_glide_posenum>  (252) 
2

>  <r_i_glide_eff_state_penalty>  (252) 
0

>  <ligand_id>  (252) 
82

>  <original_smiles>  (252) 
c1cnc2c(n1)ncn2CC1CCCN2CCCCC12

>  <smiles>  (252) 
[H]c1nc2nc([H])n(C([H])([H])C3([H])C([H])([H])C([H])([H])C([H])([H])[N+]4([H])C([H])([H])C([H])([H])C([H])([H])C([H])([H])C34[H])c2nc1[H]

$$$$
82:0:2
     RDKit          3D

 42 45  0  0  1  0  0  0  0  0999 V2000
    0.6595   -2.5062    4.1364 C   0  0  0  0  0  0  0  0  0  0  0  0
    1.5062   -3.5585    3.7174 C   0  0  0  0  0  0  0  0  0  0  0  0
    1.5488   -4.7649    4.3284 N   0  0  0  0  0  0  0  0  0  0  0  0
    0.6845   -4.8457    5.3810 C   0  0  0  0  0  0  0  0  0  0  0  0
   -0.1671   -3.7909    5.8139 C   0  0  0  0  0  0  0  0  0  0  0  0
   -0.1878   -2.6074    5.1919 N   0  0  0  0  0  0  0  0  0  0  0  0
   -0.9347   -4.1788    6.8983 N   0  0  0  0  0  0  0  0  0  0  0  0
   -0.5163   -5.4298    7.0829 C   0  0  0  0  0  0  0  0  0  0  0  0
    0.4128   -5.9087    6.2339 N   0  0  0  0  0  0  0  0  0  0  0  0
    1.0315   -7.2204    6.2405 C   0  0  0  0  0  0  0  0  0  0  0  0
    1.0014   -7.9350    4.8633 C   0  0  2  0  0  0  0  0  0  0  0  0
   -0.4244   -7.9234    4.2748 C   0  0  0  0  0  0  0  0  0  0  0  0
   -0.4656   -8.6453    2.9267 C   0  0  0  0  0  0  0  0  0  0  0  0
    0.0962  -10.0694    3.0527 C   0  0  0  0  0  0  0  0  0  0  0  0
    1.4747  -10.0772    3.6136 N   0  0  2  0  0  0  0  0  0  0  0  0
    2.0272  -11.4606    3.6755 C   0  0  0  0  0  0  0  0  0  0  0  0
    3.4784  -11.4829    4.1922 C   0  0  0  0  0  0  0  0  0  0  0  0
    3.5772  -10.8049    5.5588 C   0  0  0  0  0  0  0  0  0  0  0  0
    3.0194   -9.3893    5.4590 C   0  0  0  0  0  0  0  0  0  0  0  0
    1.5553   -9.3853    4.9445 C   0  0  1  0  0  0  0  0  0  0  0  0
    0.6581   -1.5644    3.6123 H   0  0  0  0  0  0  0  0  0  0  0  0
    2.1610   -3.4332    2.8678 H   0  0  0  0  0  0  0  0  0  0  0  0
   -0.9105   -6.0433    7.8801 H   0  0  0  0  0  0  0  0  0  0  0  0
    2.0472   -7.0837    6.6079 H   0  0  0  0  0  0  0  0  0  0  0  0
    0.5149   -7.8400    6.9719 H   0  0  0  0  0  0  0  0  0  0  0  0
    1.6422   -7.3889    4.1679 H   0  0  0  0  0  0  0  0  0  0  0  0
   -1.1166   -8.3994    4.9712 H   0  0  0  0  0  0  0  0  0  0  0  0
   -0.7909   -6.9067    4.1171 H   0  0  0  0  0  0  0  0  0  0  0  0
   -1.5028   -8.6883    2.5866 H   0  0  0  0  0  0  0  0  0  0  0  0
    0.0829   -8.0709    2.1750 H   0  0  0  0  0  0  0  0  0  0  0  0
   -0.5642  -10.6601    3.6803 H   0  0  0  0  0  0  0  0  0  0  0  0
    0.0974  -10.5449    2.0745 H   0  0  0  0  0  0  0  0  0  0  0  0
    1.3958  -12.0791    4.3183 H   0  0  0  0  0  0  0  0  0  0  0  0
    2.0139  -11.9024    2.6800 H   0  0  0  0  0  0  0  0  0  0  0  0
    3.8179  -12.5158    4.2851 H   0  0  0  0  0  0  0  0  0  0  0  0
    4.1525  -10.9882    3.4860 H   0  0  0  0  0  0  0  0  0  0  0  0
    3.0148  -11.3705    6.3019 H   0  0  0  0  0  0  0  0  0  0  0  0
    4.6120  -10.7750    5.9049 H   0  0  0  0  0  0  0  0  0  0  0  0
    3.0778   -8.9778    6.4636 H   0  0  0  0  0  0  0  0  0  0  0  0
    3.6599   -8.7739    4.8191 H   0  0  0  0  0  0  0  0  0  0  0  0
    0.9344   -9.9590    5.6366 H   0  0  0  0  0  0  0  0  0  0  0  0
    2.0522   -9.5639    2.9643 H   0  0  0  0  0  0  0  0  0  0  0  0
  1  6  2  0
  1  2  1  0
  1 21  1  0
  2  3  2  0
  2 22  1  0
  3  4  1  0
  4  9  1  0
  4  5  2  0
  5  6  1  0
  5  7  1  0
  7  8  2  0
  8  9  1  0
  8 23  1  0
  9 10  1  0
 10 11  1  0
 10 24  1  0
 10 25  1  0
 11 20  1  0
 11 12  1  0
 11 26  1  6
 12 13  1  0
 12 27  1  0
 12 28  1  0
 13 14  1  0
 13 29  1  0
 13 30  1  0
 14 15  1  0
 14 31  1  0
 14 32  1  0
 15 20  1  0
 15 16  1  0
 15 42  1  6
 16 17  1  0
 16 33  1  0
 16 34  1  0
 17 18  1  0
 17 35  1  0
 17 36  1  0
 18 19  1  0
 18 37  1  0
 18 38  1  0
 19 20  1  0
 19 39  1  0
 19 40  1  0
 20 41  1  1
M  CHG  1  15   1
M  END
>  <i_m_ct_stereo_status>  (253) 
1

>  <s_m_source_file>  (253) 
/var/tmp/pbs.5076255.sched01/tmpi5tju4vo/80qzp1lgse.sdf

>  <i_m_source_file_index>  (253) 
32

>  <i_lp_mmshare_version>  (253) 
48012

>  <i_f3d_flags>  (253) 
0

>  <s_epik_input>  (253) 
bjFbY0hdW2NIXW5jKGMxMiluW2NIXW4yW0NIMl1bQ0BIXShbQ0gyXVtDSDJdW0NIMl0zKVtDQEBIXShOMzQpW0NIMl1bQ0gyXVtDSDJdW0NIMl00

>  <s_epik_cmdline>  (253) 
J2VwaWtfcHl0aG9uJywgJy1waHQnLCAnMi4wJywgJy1waCcsICc3LjAnLCAnLXRuJywgJzgnLCAnLW1hJywgJzIwMCcsICctaW1hZScsICc8aW5maWxlLm1hZT4nLCAnLW9tYWUnLCAnPG91dGZpbGUubWFlPic=

>  <r_lp_tautomer_probability>  (253) 
1

>  <r_epik_Ionization_Penalty>  (253) 
0.000471476

>  <r_epik_Ionization_Penalty_Charging>  (253) 
0.000470666

>  <r_epik_Ionization_Penalty_Neutral>  (253) 
8.10477e-07

>  <r_epik_State_Penalty>  (253) 
0.000291637

>  <r_epik_Charging_Adjusted_Penalty>  (253) 
0.000762303

>  <i_epik_Tot_Q>  (253) 
1

>  <i_epik_Tot_abs_Q>  (253) 
1

>  <s_lp_Force_Field>  (253) 
OPLS3e

>  <r_lp_Energy>  (253) 
32.2542

>  <b_lp_Chiralities_Consistent>  (253) 
1

>  <s_lp_Variant>  (253) 
82:0-1

>  <s_i_glide_gridfile>  (253) 
pfpi4k_grid

>  <i_i_glide_lignum>  (253) 
32

>  <i_i_glide_rotatable_bonds>  (253) 
2

>  <r_i_docking_score>  (253) 
-2.91086

>  <r_i_glide_ligand_efficiency>  (253) 
-0.145543

>  <r_i_glide_ligand_efficiency_sa>  (253) 
-0.395064

>  <r_i_glide_ligand_efficiency_ln>  (253) 
-0.728491

>  <r_i_glide_gscore>  (253) 
-2.91086

>  <r_i_glide_lipo>  (253) 
-0.100659

>  <r_i_glide_hbond>  (253) 
0

>  <r_i_glide_metal>  (253) 
-0

>  <r_i_glide_rewards>  (253) 
-1.64643

>  <r_i_glide_evdw>  (253) 
-17.2398

>  <r_i_glide_ecoul>  (253) 
-5.13011

>  <r_i_glide_erotb>  (253) 
0.483132

>  <r_i_glide_esite>  (253) 
-0.0153909

>  <r_i_glide_emodel>  (253) 
-28.0698

>  <r_i_glide_energy>  (253) 
-22.37

>  <r_i_glide_einternal>  (253) 
0.722683

>  <r_i_glide_intrahb_reward>  (253) 
-0

>  <i_i_glide_confnum>  (253) 
4

>  <i_i_glide_posenum>  (253) 
22

>  <r_i_glide_eff_state_penalty>  (253) 
0

>  <ligand_id>  (253) 
82

>  <original_smiles>  (253) 
c1cnc2c(n1)ncn2CC1CCCN2CCCCC12

>  <smiles>  (253) 
[H]c1nc2nc([H])n(C([H])([H])C3([H])C([H])([H])C([H])([H])C([H])([H])[N+]4([H])C([H])([H])C([H])([H])C([H])([H])C([H])([H])C34[H])c2nc1[H]

$$$$
83:0:0
     RDKit          3D

 42 44  0  0  1  0  0  0  0  0999 V2000
    2.1021   -4.3873    3.8724 C   0  0  0  0  0  0  0  0  0  0  0  0
    3.2152   -3.4108    4.2787 C   0  0  0  0  0  0  0  0  0  0  0  0
    2.7506   -2.3364    5.3035 C   0  0  0  0  0  0  0  0  0  0  0  0
    3.9328   -2.8357    3.1231 N   0  0  0  0  0  0  0  0  0  0  0  0
    4.9289   -3.7965    2.6212 C   0  0  0  0  0  0  0  0  0  0  0  0
    5.8993   -3.1458    1.6120 C   0  0  0  0  0  0  0  0  0  0  0  0
    5.2215   -2.4553    0.5082 N   0  0  0  0  0  0  0  0  0  0  0  0
    5.8161   -2.3221   -0.7016 C   0  0  0  0  0  0  0  0  0  0  0  0
    7.0350   -2.4223   -0.8704 O   0  0  0  0  0  0  0  0  0  0  0  0
    4.9515   -2.1806   -1.9131 C   0  0  0  0  0  0  0  0  0  0  0  0
    4.2206   -1.0140   -2.1820 C   0  0  0  0  0  0  0  0  0  0  0  0
    3.4620   -0.9718   -3.3711 C   0  0  0  0  0  0  0  0  0  0  0  0
    3.4529   -1.9937   -4.2491 N   0  0  0  0  0  0  0  0  0  0  0  0
    4.1547   -3.1051   -3.9993 N   0  0  0  0  0  0  0  0  0  0  0  0
    4.8945   -3.2168   -2.8817 C   0  0  0  0  0  0  0  0  0  0  0  0
    4.0440   -1.6881    0.9561 C   0  0  2  0  0  0  0  0  0  0  0  0
    4.4481   -0.3227    1.5529 C   0  0  0  0  0  0  0  0  0  0  0  0
    2.9636    0.2458    2.4450 S   0  0  0  0  0  0  0  0  0  0  0  0
    3.3226    0.4783    3.8466 O   0  0  0  0  0  0  0  0  0  0  0  0
    2.2618    1.2831    1.6692 O   0  0  0  0  0  0  0  0  0  0  0  0
    2.0537   -1.3277    2.2555 C   0  0  0  0  0  0  0  0  0  0  0  0
    3.1257   -2.3963    1.9648 C   0  0  2  0  0  0  0  0  0  0  0  0
    1.7649   -4.9576    4.7367 H   0  0  0  0  0  0  0  0  0  0  0  0
    2.4394   -5.1134    3.1314 H   0  0  0  0  0  0  0  0  0  0  0  0
    1.2356   -3.8738    3.4580 H   0  0  0  0  0  0  0  0  0  0  0  0
    3.9546   -3.9746    4.8383 H   0  0  0  0  0  0  0  0  0  0  0  0
    2.4110   -2.8262    6.2228 H   0  0  0  0  0  0  0  0  0  0  0  0
    1.9153   -1.7046    4.9972 H   0  0  0  0  0  0  0  0  0  0  0  0
    3.5773   -1.6688    5.5667 H   0  0  0  0  0  0  0  0  0  0  0  0
    5.5231   -4.1838    3.4492 H   0  0  0  0  0  0  0  0  0  0  0  0
    4.4361   -4.6699    2.1804 H   0  0  0  0  0  0  0  0  0  0  0  0
    6.5638   -2.4328    2.0982 H   0  0  0  0  0  0  0  0  0  0  0  0
    6.5454   -3.9352    1.2121 H   0  0  0  0  0  0  0  0  0  0  0  0
    4.2330   -0.1775   -1.5068 H   0  0  0  0  0  0  0  0  0  0  0  0
    2.8746   -0.1001   -3.6086 H   0  0  0  0  0  0  0  0  0  0  0  0
    5.4422   -4.1368   -2.7698 H   0  0  0  0  0  0  0  0  0  0  0  0
    3.3760   -1.5163    0.1169 H   0  0  0  0  0  0  0  0  0  0  0  0
    5.2419   -0.4374    2.2997 H   0  0  0  0  0  0  0  0  0  0  0  0
    4.7499    0.4134    0.8071 H   0  0  0  0  0  0  0  0  0  0  0  0
    1.3657   -1.5101    3.0693 H   0  0  0  0  0  0  0  0  0  0  0  0
    1.4398   -1.1951    1.3561 H   0  0  0  0  0  0  0  0  0  0  0  0
    2.6623   -3.2669    1.4994 H   0  0  0  0  0  0  0  0  0  0  0  0
  1  2  1  0
  1 23  1  0
  1 24  1  0
  1 25  1  0
  2  3  1  0
  2  4  1  0
  2 26  1  0
  3 27  1  0
  3 28  1  0
  3 29  1  0
  4 22  1  0
  4  5  1  0
  5  6  1  0
  5 30  1  0
  5 31  1  0
  6  7  1  0
  6 32  1  0
  6 33  1  0
  7  8  1  0
  7 16  1  0
  8  9  2  0
  8 10  1  0
 10 15  1  0
 10 11  2  0
 11 12  1  0
 11 34  1  0
 12 13  2  0
 12 35  1  0
 13 14  1  0
 14 15  2  0
 15 36  1  0
 16 22  1  0
 16 17  1  0
 16 37  1  6
 17 18  1  0
 17 38  1  0
 17 39  1  0
 18 19  2  0
 18 20  2  0
 18 21  1  0
 21 22  1  0
 21 40  1  0
 21 41  1  0
 22 42  1  6
M  END
>  <i_m_ct_stereo_status>  (254) 
1

>  <s_m_source_file>  (254) 
/var/tmp/pbs.5076255.sched01/tmpi5tju4vo/80qzp1lgse.sdf

>  <i_m_source_file_index>  (254) 
33

>  <i_lp_mmshare_version>  (254) 
48012

>  <i_f3d_flags>  (254) 
0

>  <s_epik_input>  (254) 
W0NIMl0xUyg9TykoPU8pW0NIMl1bQ0BASF0oW0NAQEhdMTIpTihbQ0hdKFtDSDNdKVtDSDNdKVtDSDJdW0NIMl1OMkMoPU8pYzNbY0hdW2NIXW5uW2NIXTM=

>  <s_epik_cmdline>  (254) 
J2VwaWtfcHl0aG9uJywgJy1waHQnLCAnMi4wJywgJy1waCcsICc3LjAnLCAnLXRuJywgJzgnLCAnLW1hJywgJzIwMCcsICctaW1hZScsICc8aW5maWxlLm1hZT4nLCAnLW9tYWUnLCAnPG91dGZpbGUubWFlPic=

>  <r_lp_tautomer_probability>  (254) 
1

>  <r_epik_Ionization_Penalty>  (254) 
3.32427e-05

>  <r_epik_Ionization_Penalty_Charging>  (254) 
0

>  <r_epik_Ionization_Penalty_Neutral>  (254) 
3.32427e-05

>  <r_epik_State_Penalty>  (254) 
-0

>  <r_epik_Charging_Adjusted_Penalty>  (254) 
0

>  <i_epik_Tot_Q>  (254) 
0

>  <i_epik_Tot_abs_Q>  (254) 
0

>  <s_lp_Force_Field>  (254) 
OPLS3e

>  <r_lp_Energy>  (254) 
29.6512

>  <b_lp_Chiralities_Consistent>  (254) 
1

>  <s_lp_Variant>  (254) 
83:0-1

>  <s_i_glide_gridfile>  (254) 
pfpi4k_grid

>  <i_i_glide_lignum>  (254) 
33

>  <i_i_glide_rotatable_bonds>  (254) 
3

>  <r_i_docking_score>  (254) 
-4.07673

>  <r_i_glide_ligand_efficiency>  (254) 
-0.185306

>  <r_i_glide_ligand_efficiency_sa>  (254) 
-0.519235

>  <r_i_glide_ligand_efficiency_ln>  (254) 
-0.996502

>  <r_i_glide_gscore>  (254) 
-4.07673

>  <r_i_glide_lipo>  (254) 
-0.537675

>  <r_i_glide_hbond>  (254) 
-0.127921

>  <r_i_glide_metal>  (254) 
-0

>  <r_i_glide_rewards>  (254) 
-1.28079

>  <r_i_glide_evdw>  (254) 
-30.0801

>  <r_i_glide_ecoul>  (254) 
-6.12186

>  <r_i_glide_erotb>  (254) 
0.355911

>  <r_i_glide_esite>  (254) 
-0.0639786

>  <r_i_glide_emodel>  (254) 
-41.4251

>  <r_i_glide_energy>  (254) 
-36.2019

>  <r_i_glide_einternal>  (254) 
5.16891

>  <r_i_glide_intrahb_reward>  (254) 
-0

>  <i_i_glide_confnum>  (254) 
5

>  <i_i_glide_posenum>  (254) 
26

>  <r_i_glide_eff_state_penalty>  (254) 
0

>  <ligand_id>  (254) 
83

>  <original_smiles>  (254) 
CC(C)N1CCN(C(=O)c2ccnnc2)C2CS(=O)(=O)CC21

>  <smiles>  (254) 
[H]c1nnc([H])c(C(=O)N2C([H])([H])C([H])([H])N(C([H])(C([H])([H])[H])C([H])([H])[H])C3([H])C2([H])C([H])([H])S(=O)(=O)C3([H])[H])c1[H]

$$$$
83:0:1
     RDKit          3D

 42 44  0  0  1  0  0  0  0  0999 V2000
    3.9598   -3.5068    5.5314 C   0  0  0  0  0  0  0  0  0  0  0  0
    3.0213   -3.3993    4.3106 C   0  0  0  0  0  0  0  0  0  0  0  0
    2.3385   -4.7435    3.9929 C   0  0  0  0  0  0  0  0  0  0  0  0
    3.7101   -2.7975    3.1529 N   0  0  0  0  0  0  0  0  0  0  0  0
    4.7891   -3.6398    2.6304 C   0  0  0  0  0  0  0  0  0  0  0  0
    5.6823   -2.8610    1.6474 C   0  0  0  0  0  0  0  0  0  0  0  0
    4.9135   -2.2299    0.5715 N   0  0  0  0  0  0  0  0  0  0  0  0
    5.4777   -1.9750   -0.6284 C   0  0  0  0  0  0  0  0  0  0  0  0
    6.6938   -1.8746   -0.7957 O   0  0  0  0  0  0  0  0  0  0  0  0
    4.5729   -1.8870   -1.8165 C   0  0  0  0  0  0  0  0  0  0  0  0
    3.7283   -2.9519   -2.1883 C   0  0  0  0  0  0  0  0  0  0  0  0
    2.9567   -2.7795   -3.3535 C   0  0  0  0  0  0  0  0  0  0  0  0
    3.0293   -1.6628   -4.1098 N   0  0  0  0  0  0  0  0  0  0  0  0
    3.8380   -0.6583   -3.7645 N   0  0  0  0  0  0  0  0  0  0  0  0
    4.5891   -0.7512   -2.6480 C   0  0  0  0  0  0  0  0  0  0  0  0
    3.6797   -1.5591    1.0145 C   0  0  2  0  0  0  0  0  0  0  0  0
    3.9571   -0.1865    1.6545 C   0  0  0  0  0  0  0  0  0  0  0  0
    2.4287    0.2234    2.5658 S   0  0  0  0  0  0  0  0  0  0  0  0
    2.7679    0.4853    3.9723 O   0  0  0  0  0  0  0  0  0  0  0  0
    1.6328    1.1733    1.7808 O   0  0  0  0  0  0  0  0  0  0  0  0
    1.6947   -1.4411    2.4109 C   0  0  0  0  0  0  0  0  0  0  0  0
    2.8468   -2.3873    2.0254 C   0  0  2  0  0  0  0  0  0  0  0  0
    3.3845   -3.7071    6.4386 H   0  0  0  0  0  0  0  0  0  0  0  0
    4.5078   -2.5779    5.6966 H   0  0  0  0  0  0  0  0  0  0  0  0
    4.6856   -4.3158    5.4380 H   0  0  0  0  0  0  0  0  0  0  0  0
    2.2519   -2.7036    4.6351 H   0  0  0  0  0  0  0  0  0  0  0  0
    1.7410   -5.0727    4.8445 H   0  0  0  0  0  0  0  0  0  0  0  0
    3.0616   -5.5338    3.7870 H   0  0  0  0  0  0  0  0  0  0  0  0
    1.6641   -4.6692    3.1403 H   0  0  0  0  0  0  0  0  0  0  0  0
    5.4268   -3.9884    3.4369 H   0  0  0  0  0  0  0  0  0  0  0  0
    4.3702   -4.5326    2.1610 H   0  0  0  0  0  0  0  0  0  0  0  0
    6.2541   -2.0924    2.1678 H   0  0  0  0  0  0  0  0  0  0  0  0
    6.4004   -3.5669    1.2254 H   0  0  0  0  0  0  0  0  0  0  0  0
    3.6745   -3.8742   -1.6300 H   0  0  0  0  0  0  0  0  0  0  0  0
    2.2851   -3.5482   -3.7034 H   0  0  0  0  0  0  0  0  0  0  0  0
    5.2281    0.0849   -2.4183 H   0  0  0  0  0  0  0  0  0  0  0  0
    3.0273   -1.3851    0.1565 H   0  0  0  0  0  0  0  0  0  0  0  0
    4.7516   -0.2530    2.4020 H   0  0  0  0  0  0  0  0  0  0  0  0
    4.1945    0.6015    0.9407 H   0  0  0  0  0  0  0  0  0  0  0  0
    1.1066   -1.6887    3.2876 H   0  0  0  0  0  0  0  0  0  0  0  0
    1.0066   -1.3735    1.5675 H   0  0  0  0  0  0  0  0  0  0  0  0
    2.4472   -3.2793    1.5404 H   0  0  0  0  0  0  0  0  0  0  0  0
  1  2  1  0
  1 23  1  0
  1 24  1  0
  1 25  1  0
  2  3  1  0
  2  4  1  0
  2 26  1  0
  3 27  1  0
  3 28  1  0
  3 29  1  0
  4 22  1  0
  4  5  1  0
  5  6  1  0
  5 30  1  0
  5 31  1  0
  6  7  1  0
  6 32  1  0
  6 33  1  0
  7  8  1  0
  7 16  1  0
  8  9  2  0
  8 10  1  0
 10 15  1  0
 10 11  2  0
 11 12  1  0
 11 34  1  0
 12 13  2  0
 12 35  1  0
 13 14  1  0
 14 15  2  0
 15 36  1  0
 16 22  1  0
 16 17  1  0
 16 37  1  6
 17 18  1  0
 17 38  1  0
 17 39  1  0
 18 19  2  0
 18 20  2  0
 18 21  1  0
 21 22  1  0
 21 40  1  0
 21 41  1  0
 22 42  1  6
M  END
>  <i_m_ct_stereo_status>  (255) 
1

>  <s_m_source_file>  (255) 
/var/tmp/pbs.5076255.sched01/tmpi5tju4vo/80qzp1lgse.sdf

>  <i_m_source_file_index>  (255) 
33

>  <i_lp_mmshare_version>  (255) 
48012

>  <i_f3d_flags>  (255) 
0

>  <s_epik_input>  (255) 
W0NIMl0xUyg9TykoPU8pW0NIMl1bQ0BASF0oW0NAQEhdMTIpTihbQ0hdKFtDSDNdKVtDSDNdKVtDSDJdW0NIMl1OMkMoPU8pYzNbY0hdW2NIXW5uW2NIXTM=

>  <s_epik_cmdline>  (255) 
J2VwaWtfcHl0aG9uJywgJy1waHQnLCAnMi4wJywgJy1waCcsICc3LjAnLCAnLXRuJywgJzgnLCAnLW1hJywgJzIwMCcsICctaW1hZScsICc8aW5maWxlLm1hZT4nLCAnLW9tYWUnLCAnPG91dGZpbGUubWFlPic=

>  <r_lp_tautomer_probability>  (255) 
1

>  <r_epik_Ionization_Penalty>  (255) 
3.32427e-05

>  <r_epik_Ionization_Penalty_Charging>  (255) 
0

>  <r_epik_Ionization_Penalty_Neutral>  (255) 
3.32427e-05

>  <r_epik_State_Penalty>  (255) 
-0

>  <r_epik_Charging_Adjusted_Penalty>  (255) 
0

>  <i_epik_Tot_Q>  (255) 
0

>  <i_epik_Tot_abs_Q>  (255) 
0

>  <s_lp_Force_Field>  (255) 
OPLS3e

>  <r_lp_Energy>  (255) 
29.6512

>  <b_lp_Chiralities_Consistent>  (255) 
1

>  <s_lp_Variant>  (255) 
83:0-1

>  <s_i_glide_gridfile>  (255) 
pfpi4k_grid

>  <i_i_glide_lignum>  (255) 
33

>  <i_i_glide_rotatable_bonds>  (255) 
3

>  <r_i_docking_score>  (255) 
-3.72075

>  <r_i_glide_ligand_efficiency>  (255) 
-0.169125

>  <r_i_glide_ligand_efficiency_sa>  (255) 
-0.473894

>  <r_i_glide_ligand_efficiency_ln>  (255) 
-0.909486

>  <r_i_glide_gscore>  (255) 
-3.72075

>  <r_i_glide_lipo>  (255) 
-0.29696

>  <r_i_glide_hbond>  (255) 
-0.16

>  <r_i_glide_metal>  (255) 
-0

>  <r_i_glide_rewards>  (255) 
-1.22353

>  <r_i_glide_evdw>  (255) 
-28.96

>  <r_i_glide_ecoul>  (255) 
-5.80699

>  <r_i_glide_erotb>  (255) 
0.355911

>  <r_i_glide_esite>  (255) 
-0.0771207

>  <r_i_glide_emodel>  (255) 
-41.7584

>  <r_i_glide_energy>  (255) 
-34.767

>  <r_i_glide_einternal>  (255) 
1.64463

>  <r_i_glide_intrahb_reward>  (255) 
-0

>  <i_i_glide_confnum>  (255) 
5

>  <i_i_glide_posenum>  (255) 
11

>  <r_i_glide_eff_state_penalty>  (255) 
0

>  <ligand_id>  (255) 
83

>  <original_smiles>  (255) 
CC(C)N1CCN(C(=O)c2ccnnc2)C2CS(=O)(=O)CC21

>  <smiles>  (255) 
[H]c1nnc([H])c(C(=O)N2C([H])([H])C([H])([H])N(C([H])(C([H])([H])[H])C([H])([H])[H])C3([H])C2([H])C([H])([H])S(=O)(=O)C3([H])[H])c1[H]

$$$$
83:0:2
     RDKit          3D

 42 44  0  0  1  0  0  0  0  0999 V2000
    0.7503    5.6494    3.6676 C   0  0  0  0  0  0  0  0  0  0  0  0
    1.2496    4.5894    4.6697 C   0  0  0  0  0  0  0  0  0  0  0  0
    2.6618    4.9090    5.1931 C   0  0  0  0  0  0  0  0  0  0  0  0
    1.1302    3.2322    4.1073 N   0  0  0  0  0  0  0  0  0  0  0  0
    2.0357    3.0203    2.9714 C   0  0  0  0  0  0  0  0  0  0  0  0
    1.6092    1.7755    2.1819 C   0  0  0  0  0  0  0  0  0  0  0  0
    1.6702    0.5845    3.0274 N   0  0  0  0  0  0  0  0  0  0  0  0
    1.8970   -0.6516    2.5183 C   0  0  0  0  0  0  0  0  0  0  0  0
    1.0769   -1.5698    2.6655 O   0  0  0  0  0  0  0  0  0  0  0  0
    3.2857   -0.9880    1.9753 C   0  0  0  0  0  0  0  0  0  0  0  0
    3.7804   -2.3158    2.1423 C   0  0  0  0  0  0  0  0  0  0  0  0
    5.0593   -2.6262    1.6153 C   0  0  0  0  0  0  0  0  0  0  0  0
    5.8293   -1.7304    0.9744 N   0  0  0  0  0  0  0  0  0  0  0  0
    5.3964   -0.4759    0.8398 N   0  0  0  0  0  0  0  0  0  0  0  0
    4.1807   -0.0864    1.3123 C   0  0  0  0  0  0  0  0  0  0  0  0
    0.9161    0.7719    4.2874 C   0  0  2  0  0  0  0  0  0  0  0  0
   -0.6258    0.7709    4.1361 C   0  0  0  0  0  0  0  0  0  0  0  0
   -1.2703    1.5397    5.6694 S   0  0  0  0  0  0  0  0  0  0  0  0
   -2.1174    2.6986    5.2896 O   0  0  0  0  0  0  0  0  0  0  0  0
   -1.7643    0.5194    6.5983 O   0  0  0  0  0  0  0  0  0  0  0  0
    0.3554    2.1379    6.2514 C   0  0  0  0  0  0  0  0  0  0  0  0
    1.2929    2.0887    5.0313 C   0  0  2  0  0  0  0  0  0  0  0  0
    0.5934    6.6003    4.1692 H   0  0  0  0  0  0  0  0  0  0  0  0
   -0.1951    5.3547    3.2101 H   0  0  0  0  0  0  0  0  0  0  0  0
    1.4526    5.8363    2.8554 H   0  0  0  0  0  0  0  0  0  0  0  0
    0.5471    4.6438    5.4967 H   0  0  0  0  0  0  0  0  0  0  0  0
    2.6420    5.8616    5.7142 H   0  0  0  0  0  0  0  0  0  0  0  0
    3.3955    4.9947    4.3900 H   0  0  0  0  0  0  0  0  0  0  0  0
    3.0118    4.1583    5.9001 H   0  0  0  0  0  0  0  0  0  0  0  0
    1.9781    3.8431    2.2608 H   0  0  0  0  0  0  0  0  0  0  0  0
    3.0858    2.9730    3.3006 H   0  0  0  0  0  0  0  0  0  0  0  0
    0.5976    1.8467    1.7801 H   0  0  0  0  0  0  0  0  0  0  0  0
    2.2321    1.7329    1.3004 H   0  0  0  0  0  0  0  0  0  0  0  0
    3.2215   -3.1070    2.6449 H   0  0  0  0  0  0  0  0  0  0  0  0
    5.5093   -3.6134    1.6746 H   0  0  0  0  0  0  0  0  0  0  0  0
    3.9841    0.9596    1.1268 H   0  0  0  0  0  0  0  0  0  0  0  0
    1.1749   -0.0477    4.9755 H   0  0  0  0  0  0  0  0  0  0  0  0
   -0.9335    1.4048    3.3027 H   0  0  0  0  0  0  0  0  0  0  0  0
   -1.0508   -0.2214    4.0100 H   0  0  0  0  0  0  0  0  0  0  0  0
    0.2573    3.0939    6.7562 H   0  0  0  0  0  0  0  0  0  0  0  0
    0.6989    1.4124    6.9888 H   0  0  0  0  0  0  0  0  0  0  0  0
    2.3281    2.0518    5.3652 H   0  0  0  0  0  0  0  0  0  0  0  0
  1  2  1  0
  1 23  1  0
  1 24  1  0
  1 25  1  0
  2  3  1  0
  2  4  1  0
  2 26  1  0
  3 27  1  0
  3 28  1  0
  3 29  1  0
  4 22  1  0
  4  5  1  0
  5  6  1  0
  5 30  1  0
  5 31  1  0
  6  7  1  0
  6 32  1  0
  6 33  1  0
  7  8  1  0
  7 16  1  0
  8  9  2  0
  8 10  1  0
 10 15  1  0
 10 11  2  0
 11 12  1  0
 11 34  1  0
 12 13  2  0
 12 35  1  0
 13 14  1  0
 14 15  2  0
 15 36  1  0
 16 22  1  0
 16 17  1  0
 16 37  1  1
 17 18  1  0
 17 38  1  0
 17 39  1  0
 18 19  2  0
 18 20  2  0
 18 21  1  0
 21 22  1  0
 21 40  1  0
 21 41  1  0
 22 42  1  1
M  END
>  <i_m_ct_stereo_status>  (256) 
1

>  <s_m_source_file>  (256) 
/var/tmp/pbs.5076255.sched01/tmpi5tju4vo/80qzp1lgse.sdf

>  <i_m_source_file_index>  (256) 
33

>  <i_lp_mmshare_version>  (256) 
48012

>  <i_f3d_flags>  (256) 
0

>  <s_epik_input>  (256) 
W0NIMl0xUyg9TykoPU8pW0NIMl1bQ0BASF0oW0NAQEhdMTIpTihbQ0hdKFtDSDNdKVtDSDNdKVtDSDJdW0NIMl1OMkMoPU8pYzNbY0hdW2NIXW5uW2NIXTM=

>  <s_epik_cmdline>  (256) 
J2VwaWtfcHl0aG9uJywgJy1waHQnLCAnMi4wJywgJy1waCcsICc3LjAnLCAnLXRuJywgJzgnLCAnLW1hJywgJzIwMCcsICctaW1hZScsICc8aW5maWxlLm1hZT4nLCAnLW9tYWUnLCAnPG91dGZpbGUubWFlPic=

>  <r_lp_tautomer_probability>  (256) 
1

>  <r_epik_Ionization_Penalty>  (256) 
3.32427e-05

>  <r_epik_Ionization_Penalty_Charging>  (256) 
0

>  <r_epik_Ionization_Penalty_Neutral>  (256) 
3.32427e-05

>  <r_epik_State_Penalty>  (256) 
-0

>  <r_epik_Charging_Adjusted_Penalty>  (256) 
0

>  <i_epik_Tot_Q>  (256) 
0

>  <i_epik_Tot_abs_Q>  (256) 
0

>  <s_lp_Force_Field>  (256) 
OPLS3e

>  <r_lp_Energy>  (256) 
29.6512

>  <b_lp_Chiralities_Consistent>  (256) 
1

>  <s_lp_Variant>  (256) 
83:0-1

>  <s_i_glide_gridfile>  (256) 
pfpi4k_grid

>  <i_i_glide_lignum>  (256) 
33

>  <i_i_glide_rotatable_bonds>  (256) 
3

>  <r_i_docking_score>  (256) 
-2.918

>  <r_i_glide_ligand_efficiency>  (256) 
-0.132637

>  <r_i_glide_ligand_efficiency_sa>  (256) 
-0.371653

>  <r_i_glide_ligand_efficiency_ln>  (256) 
-0.713267

>  <r_i_glide_gscore>  (256) 
-2.918

>  <r_i_glide_lipo>  (256) 
-0.115483

>  <r_i_glide_hbond>  (256) 
0

>  <r_i_glide_metal>  (256) 
-0

>  <r_i_glide_rewards>  (256) 
-1.19728

>  <r_i_glide_evdw>  (256) 
-24.8166

>  <r_i_glide_ecoul>  (256) 
-3.74754

>  <r_i_glide_erotb>  (256) 
0.355911

>  <r_i_glide_esite>  (256) 
-0.158194

>  <r_i_glide_emodel>  (256) 
-31.7828

>  <r_i_glide_energy>  (256) 
-28.5642

>  <r_i_glide_einternal>  (256) 
5.26723

>  <r_i_glide_intrahb_reward>  (256) 
-0

>  <i_i_glide_confnum>  (256) 
3

>  <i_i_glide_posenum>  (256) 
1

>  <r_i_glide_eff_state_penalty>  (256) 
0

>  <ligand_id>  (256) 
83

>  <original_smiles>  (256) 
CC(C)N1CCN(C(=O)c2ccnnc2)C2CS(=O)(=O)CC21

>  <smiles>  (256) 
[H]c1nnc([H])c(C(=O)N2C([H])([H])C([H])([H])N(C([H])(C([H])([H])[H])C([H])([H])[H])C3([H])C2([H])C([H])([H])S(=O)(=O)C3([H])[H])c1[H]

$$$$
84:0:0
     RDKit          3D

 29 30  0  0  1  0  0  0  0  0999 V2000
    3.0987   -0.0260   -5.2731 C   0  0  0  0  0  0  0  0  0  0  0  0
    3.7881   -0.9162   -4.3491 N   0  0  0  0  0  0  0  0  0  0  0  0
    4.0441   -0.1375   -3.1519 C   0  0  0  0  0  0  0  0  0  0  0  0
    4.8386   -0.9523   -2.1264 C   0  0  0  0  0  0  0  0  0  0  0  0
    4.0801   -2.1718   -1.7769 N   0  0  0  0  0  0  0  0  0  0  0  0
    3.7584   -2.5906   -0.5286 C   0  0  0  0  0  0  0  0  0  0  0  0
    3.0771   -3.5939   -0.2994 O   0  0  0  0  0  0  0  0  0  0  0  0
    4.2592   -1.7708    0.6240 C   0  0  0  0  0  0  0  0  0  0  0  0
    5.6410   -1.6189    0.8837 C   0  0  0  0  0  0  0  0  0  0  0  0
    5.9710   -0.8529    2.0145 C   0  0  0  0  0  0  0  0  0  0  0  0
    5.0284   -0.2835    2.7980 N   0  0  0  0  0  0  0  0  0  0  0  0
    3.7546   -0.4970    2.4594 C   0  0  0  0  0  0  0  0  0  0  0  0
    3.3207   -1.2150    1.4313 N   0  0  0  0  0  0  0  0  0  0  0  0
    3.7243   -2.9561   -2.9691 C   0  0  0  0  0  0  0  0  0  0  0  0
    2.9671   -2.0810   -3.9534 C   0  0  0  0  0  0  0  0  0  0  0  0
    3.6677    0.8885   -5.4732 H   0  0  0  0  0  0  0  0  0  0  0  0
    2.1207    0.2740   -4.8863 H   0  0  0  0  0  0  0  0  0  0  0  0
    3.0335   -0.5490   -6.2232 H   0  0  0  0  0  0  0  0  0  0  0  0
    4.5744    0.7836   -3.4168 H   0  0  0  0  0  0  0  0  0  0  0  0
    3.0678    0.1130   -2.7304 H   0  0  0  0  0  0  0  0  0  0  0  0
    5.7900   -1.3129   -2.5170 H   0  0  0  0  0  0  0  0  0  0  0  0
    5.0321   -0.2488   -1.3078 H   0  0  0  0  0  0  0  0  0  0  0  0
    6.3954   -2.0453    0.2612 H   0  0  0  0  0  0  0  0  0  0  0  0
    7.0020   -0.6737    2.3208 H   0  0  0  0  0  0  0  0  0  0  0  0
    3.0005   -0.0487    3.1046 H   0  0  0  0  0  0  0  0  0  0  0  0
    4.6372   -3.3447   -3.4158 H   0  0  0  0  0  0  0  0  0  0  0  0
    3.0824   -3.8077   -2.7364 H   0  0  0  0  0  0  0  0  0  0  0  0
    2.0150   -1.8073   -3.4951 H   0  0  0  0  0  0  0  0  0  0  0  0
    2.7540   -2.7570   -4.7704 H   0  0  0  0  0  0  0  0  0  0  0  0
  1  2  1  0
  1 16  1  0
  1 17  1  0
  1 18  1  0
  2 15  1  0
  2  3  1  0
  3  4  1  0
  3 19  1  0
  3 20  1  0
  4  5  1  0
  4 21  1  0
  4 22  1  0
  5  6  1  0
  5 14  1  0
  6  7  2  0
  6  8  1  0
  8 13  1  0
  8  9  2  0
  9 10  1  0
  9 23  1  0
 10 11  2  0
 10 24  1  0
 11 12  1  0
 12 13  2  0
 12 25  1  0
 14 15  1  0
 14 26  1  0
 14 27  1  0
 15 28  1  0
 15 29  1  0
M  END
>  <i_m_ct_stereo_status>  (257) 
1

>  <s_m_source_file>  (257) 
/var/tmp/pbs.5076255.sched01/tmpi5tju4vo/80qzp1lgse.sdf

>  <i_m_source_file_index>  (257) 
34

>  <i_lp_mmshare_version>  (257) 
48012

>  <i_f3d_flags>  (257) 
0

>  <s_epik_input>  (257) 
W0NIM11OMVtDSDJdW0NIMl1OKFtDSDJdW0NIMl0xKUMoPU8pYzJbY0hdW2NIXW5bY0hdbjI=

>  <s_epik_cmdline>  (257) 
J2VwaWtfcHl0aG9uJywgJy1waHQnLCAnMi4wJywgJy1waCcsICc3LjAnLCAnLXRuJywgJzgnLCAnLW1hJywgJzIwMCcsICctaW1hZScsICc8aW5maWxlLm1hZT4nLCAnLW9tYWUnLCAnPG91dGZpbGUubWFlPic=

>  <r_lp_tautomer_probability>  (257) 
1

>  <r_epik_Ionization_Penalty>  (257) 
0.167902

>  <r_epik_Ionization_Penalty_Charging>  (257) 
0

>  <r_epik_Ionization_Penalty_Neutral>  (257) 
0.167902

>  <r_epik_State_Penalty>  (257) 
0.157262

>  <r_epik_Charging_Adjusted_Penalty>  (257) 
0.157262

>  <i_epik_Tot_Q>  (257) 
0

>  <i_epik_Tot_abs_Q>  (257) 
0

>  <s_epik_Chemistry_Notes>  (257) 
This compound contains an electron-poor aromatic ring that is susceptible to covalent hydrolysis at low pH, typically resulting in measured values for nitrogen ring protonation that are around two units higher than predicted values.

>  <s_lp_Force_Field>  (257) 
OPLS3e

>  <r_lp_Energy>  (257) 
40.0558

>  <b_lp_Chiralities_Consistent>  (257) 
1

>  <s_lp_Variant>  (257) 
84:0-1

>  <s_i_glide_gridfile>  (257) 
pfpi4k_grid

>  <i_i_glide_lignum>  (257) 
34

>  <i_i_glide_rotatable_bonds>  (257) 
2

>  <r_i_docking_score>  (257) 
-3.33026

>  <r_i_glide_ligand_efficiency>  (257) 
-0.222017

>  <r_i_glide_ligand_efficiency_sa>  (257) 
-0.547541

>  <r_i_glide_ligand_efficiency_ln>  (257) 
-0.898116

>  <r_i_glide_gscore>  (257) 
-3.33026

>  <r_i_glide_lipo>  (257) 
-0.56051

>  <r_i_glide_hbond>  (257) 
-0.0588051

>  <r_i_glide_metal>  (257) 
-0

>  <r_i_glide_rewards>  (257) 
-2.0366

>  <r_i_glide_evdw>  (257) 
-20.8168

>  <r_i_glide_ecoul>  (257) 
-2.3921

>  <r_i_glide_erotb>  (257) 
0.775793

>  <r_i_glide_esite>  (257) 
-0.0504806

>  <r_i_glide_emodel>  (257) 
-27.4164

>  <r_i_glide_energy>  (257) 
-23.2089

>  <r_i_glide_einternal>  (257) 
1.03954

>  <r_i_glide_intrahb_reward>  (257) 
-0

>  <i_i_glide_confnum>  (257) 
1

>  <i_i_glide_posenum>  (257) 
9

>  <r_i_glide_eff_state_penalty>  (257) 
0

>  <ligand_id>  (257) 
84

>  <original_smiles>  (257) 
CN1CCN(C(=O)c2ccncn2)CC1

>  <smiles>  (257) 
[H]c1nc([H])c([H])c(C(=O)N2C([H])([H])C([H])([H])N(C([H])([H])[H])C([H])([H])C2([H])[H])n1

$$$$
84:0:1
     RDKit          3D

 29 30  0  0  1  0  0  0  0  0999 V2000
    3.4391   -0.2857   -4.6110 C   0  0  0  0  0  0  0  0  0  0  0  0
    3.8576   -1.4138   -3.7924 N   0  0  0  0  0  0  0  0  0  0  0  0
    4.4101   -0.8775   -2.5608 C   0  0  0  0  0  0  0  0  0  0  0  0
    4.8897   -1.9977   -1.6628 C   0  0  0  0  0  0  0  0  0  0  0  0
    3.7825   -2.9030   -1.3126 N   0  0  0  0  0  0  0  0  0  0  0  0
    3.4121   -3.3391   -0.0734 C   0  0  0  0  0  0  0  0  0  0  0  0
    2.6051   -4.2669    0.0769 O   0  0  0  0  0  0  0  0  0  0  0  0
    3.8922   -2.6101    1.1654 C   0  0  0  0  0  0  0  0  0  0  0  0
    5.2476   -2.2941    1.3994 C   0  0  0  0  0  0  0  0  0  0  0  0
    5.5255   -1.4974    2.5136 C   0  0  0  0  0  0  0  0  0  0  0  0
    4.5776   -1.1628    3.4285 N   0  0  0  0  0  0  0  0  0  0  0  0
    3.3492   -1.6026    3.1733 C   0  0  0  0  0  0  0  0  0  0  0  0
    2.9503   -2.2859    2.0935 N   0  0  0  0  0  0  0  0  0  0  0  0
    3.1340   -3.4130   -2.5341 C   0  0  0  0  0  0  0  0  0  0  0  0
    2.7057   -2.2455   -3.4351 C   0  0  0  0  0  0  0  0  0  0  0  0
    4.3052    0.3315   -4.8650 H   0  0  0  0  0  0  0  0  0  0  0  0
    2.7108    0.3502   -4.0938 H   0  0  0  0  0  0  0  0  0  0  0  0
    3.0023   -0.6520   -5.5418 H   0  0  0  0  0  0  0  0  0  0  0  0
    5.2580   -0.2281   -2.7403 H   0  0  0  0  0  0  0  0  0  0  0  0
    3.6836   -0.2754   -2.0227 H   0  0  0  0  0  0  0  0  0  0  0  0
    5.6923   -2.5725   -2.1271 H   0  0  0  0  0  0  0  0  0  0  0  0
    5.3000   -1.3828   -0.8754 H   0  0  0  0  0  0  0  0  0  0  0  0
    6.0469   -2.5955    0.7534 H   0  0  0  0  0  0  0  0  0  0  0  0
    6.5234   -1.1150    2.6924 H   0  0  0  0  0  0  0  0  0  0  0  0
    2.6077   -1.4246    3.9414 H   0  0  0  0  0  0  0  0  0  0  0  0
    3.8228   -4.0671   -3.0711 H   0  0  0  0  0  0  0  0  0  0  0  0
    2.2292   -3.9854   -2.3236 H   0  0  0  0  0  0  0  0  0  0  0  0
    1.9683   -1.6708   -2.8763 H   0  0  0  0  0  0  0  0  0  0  0  0
    2.2278   -2.6274   -4.3414 H   0  0  0  0  0  0  0  0  0  0  0  0
  1  2  1  0
  1 16  1  0
  1 17  1  0
  1 18  1  0
  2 15  1  0
  2  3  1  0
  3  4  1  0
  3 19  1  0
  3 20  1  0
  4  5  1  0
  4 21  1  0
  4 22  1  0
  5  6  1  0
  5 14  1  0
  6  7  2  0
  6  8  1  0
  8 13  1  0
  8  9  2  0
  9 10  1  0
  9 23  1  0
 10 11  2  0
 10 24  1  0
 11 12  1  0
 12 13  2  0
 12 25  1  0
 14 15  1  0
 14 26  1  0
 14 27  1  0
 15 28  1  0
 15 29  1  0
M  END
>  <i_m_ct_stereo_status>  (258) 
1

>  <s_m_source_file>  (258) 
/var/tmp/pbs.5076255.sched01/tmpi5tju4vo/80qzp1lgse.sdf

>  <i_m_source_file_index>  (258) 
34

>  <i_lp_mmshare_version>  (258) 
48012

>  <i_f3d_flags>  (258) 
0

>  <s_epik_input>  (258) 
W0NIM11OMVtDSDJdW0NIMl1OKFtDSDJdW0NIMl0xKUMoPU8pYzJbY0hdW2NIXW5bY0hdbjI=

>  <s_epik_cmdline>  (258) 
J2VwaWtfcHl0aG9uJywgJy1waHQnLCAnMi4wJywgJy1waCcsICc3LjAnLCAnLXRuJywgJzgnLCAnLW1hJywgJzIwMCcsICctaW1hZScsICc8aW5maWxlLm1hZT4nLCAnLW9tYWUnLCAnPG91dGZpbGUubWFlPic=

>  <r_lp_tautomer_probability>  (258) 
1

>  <r_epik_Ionization_Penalty>  (258) 
0.167902

>  <r_epik_Ionization_Penalty_Charging>  (258) 
0

>  <r_epik_Ionization_Penalty_Neutral>  (258) 
0.167902

>  <r_epik_State_Penalty>  (258) 
0.157262

>  <r_epik_Charging_Adjusted_Penalty>  (258) 
0.157262

>  <i_epik_Tot_Q>  (258) 
0

>  <i_epik_Tot_abs_Q>  (258) 
0

>  <s_epik_Chemistry_Notes>  (258) 
This compound contains an electron-poor aromatic ring that is susceptible to covalent hydrolysis at low pH, typically resulting in measured values for nitrogen ring protonation that are around two units higher than predicted values.

>  <s_lp_Force_Field>  (258) 
OPLS3e

>  <r_lp_Energy>  (258) 
40.0558

>  <b_lp_Chiralities_Consistent>  (258) 
1

>  <s_lp_Variant>  (258) 
84:0-1

>  <s_i_glide_gridfile>  (258) 
pfpi4k_grid

>  <i_i_glide_lignum>  (258) 
34

>  <i_i_glide_rotatable_bonds>  (258) 
2

>  <r_i_docking_score>  (258) 
-3.23153

>  <r_i_glide_ligand_efficiency>  (258) 
-0.215436

>  <r_i_glide_ligand_efficiency_sa>  (258) 
-0.53131

>  <r_i_glide_ligand_efficiency_ln>  (258) 
-0.871492

>  <r_i_glide_gscore>  (258) 
-3.23153

>  <r_i_glide_lipo>  (258) 
-0.671335

>  <r_i_glide_hbond>  (258) 
0

>  <r_i_glide_metal>  (258) 
-0

>  <r_i_glide_rewards>  (258) 
-2.02943

>  <r_i_glide_evdw>  (258) 
-19.01

>  <r_i_glide_ecoul>  (258) 
-2.26933

>  <r_i_glide_erotb>  (258) 
0.775793

>  <r_i_glide_esite>  (258) 
-0.0156673

>  <r_i_glide_emodel>  (258) 
-24.9386

>  <r_i_glide_energy>  (258) 
-21.2793

>  <r_i_glide_einternal>  (258) 
0.654269

>  <r_i_glide_intrahb_reward>  (258) 
-0

>  <i_i_glide_confnum>  (258) 
1

>  <i_i_glide_posenum>  (258) 
12

>  <r_i_glide_eff_state_penalty>  (258) 
0

>  <ligand_id>  (258) 
84

>  <original_smiles>  (258) 
CN1CCN(C(=O)c2ccncn2)CC1

>  <smiles>  (258) 
[H]c1nc([H])c([H])c(C(=O)N2C([H])([H])C([H])([H])N(C([H])([H])[H])C([H])([H])C2([H])[H])n1

$$$$
84:0:2
     RDKit          3D

 29 30  0  0  1  0  0  0  0  0999 V2000
    0.3536   -5.6568    7.6870 C   0  0  0  0  0  0  0  0  0  0  0  0
    0.2147   -6.5639    6.5585 N   0  0  0  0  0  0  0  0  0  0  0  0
   -0.7287   -6.0133    5.5845 C   0  0  0  0  0  0  0  0  0  0  0  0
   -0.9053   -6.9876    4.3999 C   0  0  0  0  0  0  0  0  0  0  0  0
    0.3970   -7.2817    3.7743 N   0  0  0  0  0  0  0  0  0  0  0  0
    0.6238   -7.1373    2.4416 C   0  0  0  0  0  0  0  0  0  0  0  0
   -0.1958   -6.6265    1.6717 O   0  0  0  0  0  0  0  0  0  0  0  0
    1.9513   -7.5898    1.8969 C   0  0  0  0  0  0  0  0  0  0  0  0
    2.3819   -8.9262    2.0419 C   0  0  0  0  0  0  0  0  0  0  0  0
    3.6697   -9.2310    1.5744 C   0  0  0  0  0  0  0  0  0  0  0  0
    4.4503   -8.2979    0.9918 N   0  0  0  0  0  0  0  0  0  0  0  0
    3.9425   -7.0695    0.8826 C   0  0  0  0  0  0  0  0  0  0  0  0
    2.7372   -6.6688    1.2889 N   0  0  0  0  0  0  0  0  0  0  0  0
    1.3887   -7.7490    4.7629 C   0  0  0  0  0  0  0  0  0  0  0  0
    1.5088   -6.7512    5.9199 C   0  0  0  0  0  0  0  0  0  0  0  0
   -0.5999   -5.5393    8.2012 H   0  0  0  0  0  0  0  0  0  0  0  0
    0.7013   -4.6725    7.3702 H   0  0  0  0  0  0  0  0  0  0  0  0
    1.0704   -6.0565    8.4039 H   0  0  0  0  0  0  0  0  0  0  0  0
   -1.6935   -5.8519    6.0681 H   0  0  0  0  0  0  0  0  0  0  0  0
   -0.3824   -5.0397    5.2264 H   0  0  0  0  0  0  0  0  0  0  0  0
   -1.3416   -7.9288    4.7386 H   0  0  0  0  0  0  0  0  0  0  0  0
   -1.6218   -6.5724    3.6893 H   0  0  0  0  0  0  0  0  0  0  0  0
    1.7699   -9.6780    2.5175 H   0  0  0  0  0  0  0  0  0  0  0  0
    4.0867  -10.2244    1.6778 H   0  0  0  0  0  0  0  0  0  0  0  0
    4.5751   -6.3282    0.4139 H   0  0  0  0  0  0  0  0  0  0  0  0
    1.0892   -8.7365    5.1187 H   0  0  0  0  0  0  0  0  0  0  0  0
    2.4015   -7.8432    4.3709 H   0  0  0  0  0  0  0  0  0  0  0  0
    1.8979   -5.7979    5.5565 H   0  0  0  0  0  0  0  0  0  0  0  0
    2.2226   -7.1382    6.6458 H   0  0  0  0  0  0  0  0  0  0  0  0
  1  2  1  0
  1 16  1  0
  1 17  1  0
  1 18  1  0
  2 15  1  0
  2  3  1  0
  3  4  1  0
  3 19  1  0
  3 20  1  0
  4  5  1  0
  4 21  1  0
  4 22  1  0
  5  6  1  0
  5 14  1  0
  6  7  2  0
  6  8  1  0
  8 13  1  0
  8  9  2  0
  9 10  1  0
  9 23  1  0
 10 11  2  0
 10 24  1  0
 11 12  1  0
 12 13  2  0
 12 25  1  0
 14 15  1  0
 14 26  1  0
 14 27  1  0
 15 28  1  0
 15 29  1  0
M  END
>  <i_m_ct_stereo_status>  (259) 
1

>  <s_m_source_file>  (259) 
/var/tmp/pbs.5076255.sched01/tmpi5tju4vo/80qzp1lgse.sdf

>  <i_m_source_file_index>  (259) 
34

>  <i_lp_mmshare_version>  (259) 
48012

>  <i_f3d_flags>  (259) 
0

>  <s_epik_input>  (259) 
W0NIM11OMVtDSDJdW0NIMl1OKFtDSDJdW0NIMl0xKUMoPU8pYzJbY0hdW2NIXW5bY0hdbjI=

>  <s_epik_cmdline>  (259) 
J2VwaWtfcHl0aG9uJywgJy1waHQnLCAnMi4wJywgJy1waCcsICc3LjAnLCAnLXRuJywgJzgnLCAnLW1hJywgJzIwMCcsICctaW1hZScsICc8aW5maWxlLm1hZT4nLCAnLW9tYWUnLCAnPG91dGZpbGUubWFlPic=

>  <r_lp_tautomer_probability>  (259) 
1

>  <r_epik_Ionization_Penalty>  (259) 
0.167902

>  <r_epik_Ionization_Penalty_Charging>  (259) 
0

>  <r_epik_Ionization_Penalty_Neutral>  (259) 
0.167902

>  <r_epik_State_Penalty>  (259) 
0.157262

>  <r_epik_Charging_Adjusted_Penalty>  (259) 
0.157262

>  <i_epik_Tot_Q>  (259) 
0

>  <i_epik_Tot_abs_Q>  (259) 
0

>  <s_epik_Chemistry_Notes>  (259) 
This compound contains an electron-poor aromatic ring that is susceptible to covalent hydrolysis at low pH, typically resulting in measured values for nitrogen ring protonation that are around two units higher than predicted values.

>  <s_lp_Force_Field>  (259) 
OPLS3e

>  <r_lp_Energy>  (259) 
40.0558

>  <b_lp_Chiralities_Consistent>  (259) 
1

>  <s_lp_Variant>  (259) 
84:0-1

>  <s_i_glide_gridfile>  (259) 
pfpi4k_grid

>  <i_i_glide_lignum>  (259) 
34

>  <i_i_glide_rotatable_bonds>  (259) 
2

>  <r_i_docking_score>  (259) 
-3.16536

>  <r_i_glide_ligand_efficiency>  (259) 
-0.211024

>  <r_i_glide_ligand_efficiency_sa>  (259) 
-0.520429

>  <r_i_glide_ligand_efficiency_ln>  (259) 
-0.853644

>  <r_i_glide_gscore>  (259) 
-3.16536

>  <r_i_glide_lipo>  (259) 
0

>  <r_i_glide_hbond>  (259) 
-0.245768

>  <r_i_glide_metal>  (259) 
-0

>  <r_i_glide_rewards>  (259) 
-2.16006

>  <r_i_glide_evdw>  (259) 
-16.924

>  <r_i_glide_ecoul>  (259) 
-4.04414

>  <r_i_glide_erotb>  (259) 
0.775793

>  <r_i_glide_esite>  (259) 
-0.0825058

>  <r_i_glide_emodel>  (259) 
-25.4696

>  <r_i_glide_energy>  (259) 
-20.9681

>  <r_i_glide_einternal>  (259) 
0.532656

>  <r_i_glide_intrahb_reward>  (259) 
-0

>  <i_i_glide_confnum>  (259) 
6

>  <i_i_glide_posenum>  (259) 
28

>  <r_i_glide_eff_state_penalty>  (259) 
0

>  <ligand_id>  (259) 
84

>  <original_smiles>  (259) 
CN1CCN(C(=O)c2ccncn2)CC1

>  <smiles>  (259) 
[H]c1nc([H])c([H])c(C(=O)N2C([H])([H])C([H])([H])N(C([H])([H])[H])C([H])([H])C2([H])[H])n1

$$$$
84:1:0
     RDKit          3D

 30 31  0  0  1  0  0  0  0  0999 V2000
    2.3441  -12.0748    4.7522 C   0  0  0  0  0  0  0  0  0  0  0  0
    1.8192  -11.2649    3.6376 N   0  0  0  0  0  0  0  0  0  0  0  0
    0.5136  -10.6518    3.9654 C   0  0  0  0  0  0  0  0  0  0  0  0
   -0.0458   -9.8423    2.7809 C   0  0  0  0  0  0  0  0  0  0  0  0
    0.9598   -8.8575    2.3032 N   0  0  0  0  0  0  0  0  0  0  0  0
    0.6608   -7.5528    2.1413 C   0  0  0  0  0  0  0  0  0  0  0  0
   -0.4723   -7.0758    2.3600 O   0  0  0  0  0  0  0  0  0  0  0  0
    1.7275   -6.6382    1.6243 C   0  0  0  0  0  0  0  0  0  0  0  0
    3.0112   -6.5735    2.2278 C   0  0  0  0  0  0  0  0  0  0  0  0
    3.9487   -5.7599    1.6285 C   0  0  0  0  0  0  0  0  0  0  0  0
    3.6665   -4.9796    0.5488 N   0  0  0  0  0  0  0  0  0  0  0  0
    2.4132   -5.0800    0.0820 C   0  0  0  0  0  0  0  0  0  0  0  0
    1.4324   -5.8547    0.5588 N   0  0  0  0  0  0  0  0  0  0  0  0
    2.2542   -9.4981    1.9454 C   0  0  0  0  0  0  0  0  0  0  0  0
    2.7924  -10.2542    3.1710 C   0  0  0  0  0  0  0  0  0  0  0  0
    2.5042  -11.4641    5.6450 H   0  0  0  0  0  0  0  0  0  0  0  0
    3.2888  -12.5506    4.4770 H   0  0  0  0  0  0  0  0  0  0  0  0
    1.6260  -12.8650    4.9885 H   0  0  0  0  0  0  0  0  0  0  0  0
   -0.1847  -11.4428    4.2539 H   0  0  0  0  0  0  0  0  0  0  0  0
    0.6147   -9.9906    4.8310 H   0  0  0  0  0  0  0  0  0  0  0  0
   -0.2928  -10.5145    1.9628 H   0  0  0  0  0  0  0  0  0  0  0  0
   -0.9946   -9.3822    3.0709 H   0  0  0  0  0  0  0  0  0  0  0  0
    3.2515   -7.1620    3.1055 H   0  0  0  0  0  0  0  0  0  0  0  0
    4.9743   -5.7064    1.9823 H   0  0  0  0  0  0  0  0  0  0  0  0
    2.1719   -4.4351   -0.7559 H   0  0  0  0  0  0  0  0  0  0  0  0
    2.0825  -10.2107    1.1257 H   0  0  0  0  0  0  0  0  0  0  0  0
    3.0397   -8.8180    1.6067 H   0  0  0  0  0  0  0  0  0  0  0  0
    2.9763   -9.5585    3.9878 H   0  0  0  0  0  0  0  0  0  0  0  0
    3.7427  -10.7318    2.9348 H   0  0  0  0  0  0  0  0  0  0  0  0
    1.6659  -11.9001    2.8636 H   0  0  0  0  0  0  0  0  0  0  0  0
  1  2  1  0
  1 16  1  0
  1 17  1  0
  1 18  1  0
  2 15  1  0
  2  3  1  0
  2 30  1  0
  3  4  1  0
  3 19  1  0
  3 20  1  0
  4  5  1  0
  4 21  1  0
  4 22  1  0
  5  6  1  0
  5 14  1  0
  6  7  2  0
  6  8  1  0
  8 13  1  0
  8  9  2  0
  9 10  1  0
  9 23  1  0
 10 11  2  0
 10 24  1  0
 11 12  1  0
 12 13  2  0
 12 25  1  0
 14 15  1  0
 14 26  1  0
 14 27  1  0
 15 28  1  0
 15 29  1  0
M  CHG  1   2   1
M  END
>  <i_m_ct_stereo_status>  (260) 
1

>  <s_m_source_file>  (260) 
/var/tmp/pbs.5076255.sched01/tmpi5tju4vo/80qzp1lgse.sdf

>  <i_m_source_file_index>  (260) 
35

>  <i_lp_mmshare_version>  (260) 
48012

>  <i_f3d_flags>  (260) 
0

>  <s_epik_input>  (260) 
W0NIM11OMVtDSDJdW0NIMl1OKFtDSDJdW0NIMl0xKUMoPU8pYzJbY0hdW2NIXW5bY0hdbjI=

>  <s_epik_cmdline>  (260) 
J2VwaWtfcHl0aG9uJywgJy1waHQnLCAnMi4wJywgJy1waCcsICc3LjAnLCAnLXRuJywgJzgnLCAnLW1hJywgJzIwMCcsICctaW1hZScsICc8aW5maWxlLm1hZT4nLCAnLW9tYWUnLCAnPG91dGZpbGUubWFlPic=

>  <r_lp_tautomer_probability>  (260) 
1

>  <r_epik_Ionization_Penalty>  (260) 
0.829064

>  <r_epik_Ionization_Penalty_Charging>  (260) 
0.829064

>  <r_epik_Ionization_Penalty_Neutral>  (260) 
3.87098e-08

>  <r_epik_State_Penalty>  (260) 
0.862775

>  <r_epik_Charging_Adjusted_Penalty>  (260) 
1.69184

>  <i_epik_Tot_Q>  (260) 
1

>  <i_epik_Tot_abs_Q>  (260) 
1

>  <s_epik_Chemistry_Notes>  (260) 
This compound contains an electron-poor aromatic ring that is susceptible to covalent hydrolysis at low pH, typically resulting in measured values for nitrogen ring protonation that are around two units higher than predicted values.

>  <s_lp_Force_Field>  (260) 
OPLS3e

>  <r_lp_Energy>  (260) 
40.3321

>  <b_lp_Chiralities_Consistent>  (260) 
1

>  <s_lp_Variant>  (260) 
84:0-2

>  <s_i_glide_gridfile>  (260) 
pfpi4k_grid

>  <i_i_glide_lignum>  (260) 
35

>  <i_i_glide_rotatable_bonds>  (260) 
2

>  <r_i_docking_score>  (260) 
-4.02433

>  <r_i_glide_ligand_efficiency>  (260) 
-0.268289

>  <r_i_glide_ligand_efficiency_sa>  (260) 
-0.661657

>  <r_i_glide_ligand_efficiency_ln>  (260) 
-1.0853

>  <r_i_glide_gscore>  (260) 
-4.02433

>  <r_i_glide_lipo>  (260) 
-0.0918184

>  <r_i_glide_hbond>  (260) 
-0.274246

>  <r_i_glide_metal>  (260) 
-0

>  <r_i_glide_rewards>  (260) 
-1.99601

>  <r_i_glide_evdw>  (260) 
-16.2324

>  <r_i_glide_ecoul>  (260) 
-9.99747

>  <r_i_glide_erotb>  (260) 
0.769488

>  <r_i_glide_esite>  (260) 
-0.120506

>  <r_i_glide_emodel>  (260) 
-36.5274

>  <r_i_glide_energy>  (260) 
-26.2298

>  <r_i_glide_einternal>  (260) 
0.377904

>  <r_i_glide_intrahb_reward>  (260) 
-0

>  <i_i_glide_confnum>  (260) 
2

>  <i_i_glide_posenum>  (260) 
40

>  <r_i_glide_eff_state_penalty>  (260) 
0

>  <ligand_id>  (260) 
84

>  <original_smiles>  (260) 
CN1CCN(C(=O)c2ccncn2)CC1

>  <smiles>  (260) 
[H]c1nc([H])c([H])c(C(=O)N2C([H])([H])C([H])([H])[N+]([H])(C([H])([H])[H])C([H])([H])C2([H])[H])n1

$$$$
84:1:1
     RDKit          3D

 30 31  0  0  1  0  0  0  0  0999 V2000
   -0.2148   -9.4202    7.0080 C   0  0  0  0  0  0  0  0  0  0  0  0
   -0.1538   -9.4108    5.5302 N   0  0  0  0  0  0  0  0  0  0  0  0
   -1.0011   -8.3731    4.8970 C   0  0  0  0  0  0  0  0  0  0  0  0
   -0.9478   -8.4278    3.3588 C   0  0  0  0  0  0  0  0  0  0  0  0
    0.4564   -8.3925    2.8975 N   0  0  0  0  0  0  0  0  0  0  0  0
    0.8553   -7.4921    1.9655 C   0  0  0  0  0  0  0  0  0  0  0  0
    0.0977   -6.6550    1.4613 O   0  0  0  0  0  0  0  0  0  0  0  0
    2.3244   -7.4857    1.5808 C   0  0  0  0  0  0  0  0  0  0  0  0
    3.0204   -8.6863    1.2675 C   0  0  0  0  0  0  0  0  0  0  0  0
    4.3719   -8.5725    0.9559 C   0  0  0  0  0  0  0  0  0  0  0  0
    4.9902   -7.3724    0.8758 N   0  0  0  0  0  0  0  0  0  0  0  0
    4.2411   -6.3013    1.1385 C   0  0  0  0  0  0  0  0  0  0  0  0
    2.9443   -6.2969    1.4677 N   0  0  0  0  0  0  0  0  0  0  0  0
    1.3266   -9.4071    3.5359 C   0  0  0  0  0  0  0  0  0  0  0  0
    1.2388   -9.3233    5.0530 C   0  0  0  0  0  0  0  0  0  0  0  0
    0.1537   -8.4738    7.4141 H   0  0  0  0  0  0  0  0  0  0  0  0
    0.4025  -10.2298    7.4132 H   0  0  0  0  0  0  0  0  0  0  0  0
   -1.2425   -9.5776    7.3412 H   0  0  0  0  0  0  0  0  0  0  0  0
   -2.0301   -8.5404    5.2066 H   0  0  0  0  0  0  0  0  0  0  0  0
   -0.6833   -7.3781    5.2238 H   0  0  0  0  0  0  0  0  0  0  0  0
   -1.3935   -9.3483    2.9903 H   0  0  0  0  0  0  0  0  0  0  0  0
   -1.5669   -7.6219    2.9427 H   0  0  0  0  0  0  0  0  0  0  0  0
    2.5248   -9.6531    1.2454 H   0  0  0  0  0  0  0  0  0  0  0  0
    4.9760   -9.4388    0.7076 H   0  0  0  0  0  0  0  0  0  0  0  0
    4.7406   -5.3434    1.0834 H   0  0  0  0  0  0  0  0  0  0  0  0
    1.0033  -10.3940    3.1875 H   0  0  0  0  0  0  0  0  0  0  0  0
    2.4019   -9.2923    3.3539 H   0  0  0  0  0  0  0  0  0  0  0  0
    1.6681   -8.3720    5.3649 H   0  0  0  0  0  0  0  0  0  0  0  0
    1.8501  -10.1098    5.4890 H   0  0  0  0  0  0  0  0  0  0  0  0
   -0.5471  -10.2997    5.2178 H   0  0  0  0  0  0  0  0  0  0  0  0
  1  2  1  0
  1 16  1  0
  1 17  1  0
  1 18  1  0
  2 15  1  0
  2  3  1  0
  2 30  1  0
  3  4  1  0
  3 19  1  0
  3 20  1  0
  4  5  1  0
  4 21  1  0
  4 22  1  0
  5  6  1  0
  5 14  1  0
  6  7  2  0
  6  8  1  0
  8 13  1  0
  8  9  2  0
  9 10  1  0
  9 23  1  0
 10 11  2  0
 10 24  1  0
 11 12  1  0
 12 13  2  0
 12 25  1  0
 14 15  1  0
 14 26  1  0
 14 27  1  0
 15 28  1  0
 15 29  1  0
M  CHG  1   2   1
M  END
>  <i_m_ct_stereo_status>  (261) 
1

>  <s_m_source_file>  (261) 
/var/tmp/pbs.5076255.sched01/tmpi5tju4vo/80qzp1lgse.sdf

>  <i_m_source_file_index>  (261) 
35

>  <i_lp_mmshare_version>  (261) 
48012

>  <i_f3d_flags>  (261) 
0

>  <s_epik_input>  (261) 
W0NIM11OMVtDSDJdW0NIMl1OKFtDSDJdW0NIMl0xKUMoPU8pYzJbY0hdW2NIXW5bY0hdbjI=

>  <s_epik_cmdline>  (261) 
J2VwaWtfcHl0aG9uJywgJy1waHQnLCAnMi4wJywgJy1waCcsICc3LjAnLCAnLXRuJywgJzgnLCAnLW1hJywgJzIwMCcsICctaW1hZScsICc8aW5maWxlLm1hZT4nLCAnLW9tYWUnLCAnPG91dGZpbGUubWFlPic=

>  <r_lp_tautomer_probability>  (261) 
1

>  <r_epik_Ionization_Penalty>  (261) 
0.829064

>  <r_epik_Ionization_Penalty_Charging>  (261) 
0.829064

>  <r_epik_Ionization_Penalty_Neutral>  (261) 
3.87098e-08

>  <r_epik_State_Penalty>  (261) 
0.862775

>  <r_epik_Charging_Adjusted_Penalty>  (261) 
1.69184

>  <i_epik_Tot_Q>  (261) 
1

>  <i_epik_Tot_abs_Q>  (261) 
1

>  <s_epik_Chemistry_Notes>  (261) 
This compound contains an electron-poor aromatic ring that is susceptible to covalent hydrolysis at low pH, typically resulting in measured values for nitrogen ring protonation that are around two units higher than predicted values.

>  <s_lp_Force_Field>  (261) 
OPLS3e

>  <r_lp_Energy>  (261) 
40.3321

>  <b_lp_Chiralities_Consistent>  (261) 
1

>  <s_lp_Variant>  (261) 
84:0-2

>  <s_i_glide_gridfile>  (261) 
pfpi4k_grid

>  <i_i_glide_lignum>  (261) 
35

>  <i_i_glide_rotatable_bonds>  (261) 
2

>  <r_i_docking_score>  (261) 
-3.76464

>  <r_i_glide_ligand_efficiency>  (261) 
-0.250976

>  <r_i_glide_ligand_efficiency_sa>  (261) 
-0.61896

>  <r_i_glide_ligand_efficiency_ln>  (261) 
-1.01526

>  <r_i_glide_gscore>  (261) 
-3.76464

>  <r_i_glide_lipo>  (261) 
0

>  <r_i_glide_hbond>  (261) 
-0.307001

>  <r_i_glide_metal>  (261) 
-0

>  <r_i_glide_rewards>  (261) 
-2.11193

>  <r_i_glide_evdw>  (261) 
-17.3153

>  <r_i_glide_ecoul>  (261) 
-7.17243

>  <r_i_glide_erotb>  (261) 
0.769488

>  <r_i_glide_esite>  (261) 
-0.173569

>  <r_i_glide_emodel>  (261) 
-33.5029

>  <r_i_glide_energy>  (261) 
-24.4878

>  <r_i_glide_einternal>  (261) 
0.693595

>  <r_i_glide_intrahb_reward>  (261) 
-0

>  <i_i_glide_confnum>  (261) 
2

>  <i_i_glide_posenum>  (261) 
18

>  <r_i_glide_eff_state_penalty>  (261) 
0

>  <ligand_id>  (261) 
84

>  <original_smiles>  (261) 
CN1CCN(C(=O)c2ccncn2)CC1

>  <smiles>  (261) 
[H]c1nc([H])c([H])c(C(=O)N2C([H])([H])C([H])([H])[N+]([H])(C([H])([H])[H])C([H])([H])C2([H])[H])n1

$$$$
84:1:2
     RDKit          3D

 30 31  0  0  1  0  0  0  0  0999 V2000
    3.4194   -1.5563   -1.8649 C   0  0  0  0  0  0  0  0  0  0  0  0
    3.8289   -2.4867   -0.7950 N   0  0  0  0  0  0  0  0  0  0  0  0
    2.7152   -2.7629    0.1288 C   0  0  0  0  0  0  0  0  0  0  0  0
    3.1585   -3.6577    1.2746 C   0  0  0  0  0  0  0  0  0  0  0  0
    3.7688   -4.9085    0.7628 N   0  0  0  0  0  0  0  0  0  0  0  0
    3.4281   -6.1813    1.1218 C   0  0  0  0  0  0  0  0  0  0  0  0
    4.0889   -7.1560    0.7776 O   0  0  0  0  0  0  0  0  0  0  0  0
    2.1476   -6.3979    1.8838 C   0  0  0  0  0  0  0  0  0  0  0  0
    1.9135   -5.8097    3.1484 C   0  0  0  0  0  0  0  0  0  0  0  0
    0.6319   -5.9981    3.7067 C   0  0  0  0  0  0  0  0  0  0  0  0
   -0.3051   -6.7406    3.0951 N   0  0  0  0  0  0  0  0  0  0  0  0
    0.0502   -7.3400    1.9588 C   0  0  0  0  0  0  0  0  0  0  0  0
    1.2012   -7.1706    1.3062 N   0  0  0  0  0  0  0  0  0  0  0  0
    4.8821   -4.6653   -0.1771 C   0  0  0  0  0  0  0  0  0  0  0  0
    4.4329   -3.7363   -1.3200 C   0  0  0  0  0  0  0  0  0  0  0  0
    2.6113   -1.9775   -2.4767 H   0  0  0  0  0  0  0  0  0  0  0  0
    4.2582   -1.2858   -2.5143 H   0  0  0  0  0  0  0  0  0  0  0  0
    3.0285   -0.6616   -1.4137 H   0  0  0  0  0  0  0  0  0  0  0  0
    2.3121   -1.8468    0.5535 H   0  0  0  0  0  0  0  0  0  0  0  0
    1.9023   -3.2532   -0.4108 H   0  0  0  0  0  0  0  0  0  0  0  0
    3.8995   -3.1573    1.9099 H   0  0  0  0  0  0  0  0  0  0  0  0
    2.2345   -3.7433    1.8480 H   0  0  0  0  0  0  0  0  0  0  0  0
    2.6499   -5.2000    3.6531 H   0  0  0  0  0  0  0  0  0  0  0  0
    0.3465   -5.4950    4.6189 H   0  0  0  0  0  0  0  0  0  0  0  0
   -0.6868   -7.9845    1.4982 H   0  0  0  0  0  0  0  0  0  0  0  0
    5.7159   -4.2270    0.3709 H   0  0  0  0  0  0  0  0  0  0  0  0
    5.2762   -5.5820   -0.6301 H   0  0  0  0  0  0  0  0  0  0  0  0
    3.6858   -4.2531   -1.9199 H   0  0  0  0  0  0  0  0  0  0  0  0
    5.2717   -3.5083   -1.9747 H   0  0  0  0  0  0  0  0  0  0  0  0
    4.5324   -2.0280   -0.2359 H   0  0  0  0  0  0  0  0  0  0  0  0
  1  2  1  0
  1 16  1  0
  1 17  1  0
  1 18  1  0
  2 15  1  0
  2  3  1  0
  2 30  1  0
  3  4  1  0
  3 19  1  0
  3 20  1  0
  4  5  1  0
  4 21  1  0
  4 22  1  0
  5  6  1  0
  5 14  1  0
  6  7  2  0
  6  8  1  0
  8 13  1  0
  8  9  2  0
  9 10  1  0
  9 23  1  0
 10 11  2  0
 10 24  1  0
 11 12  1  0
 12 13  2  0
 12 25  1  0
 14 15  1  0
 14 26  1  0
 14 27  1  0
 15 28  1  0
 15 29  1  0
M  CHG  1   2   1
M  END
>  <i_m_ct_stereo_status>  (262) 
1

>  <s_m_source_file>  (262) 
/var/tmp/pbs.5076255.sched01/tmpi5tju4vo/80qzp1lgse.sdf

>  <i_m_source_file_index>  (262) 
35

>  <i_lp_mmshare_version>  (262) 
48012

>  <i_f3d_flags>  (262) 
0

>  <s_epik_input>  (262) 
W0NIM11OMVtDSDJdW0NIMl1OKFtDSDJdW0NIMl0xKUMoPU8pYzJbY0hdW2NIXW5bY0hdbjI=

>  <s_epik_cmdline>  (262) 
J2VwaWtfcHl0aG9uJywgJy1waHQnLCAnMi4wJywgJy1waCcsICc3LjAnLCAnLXRuJywgJzgnLCAnLW1hJywgJzIwMCcsICctaW1hZScsICc8aW5maWxlLm1hZT4nLCAnLW9tYWUnLCAnPG91dGZpbGUubWFlPic=

>  <r_lp_tautomer_probability>  (262) 
1

>  <r_epik_Ionization_Penalty>  (262) 
0.829064

>  <r_epik_Ionization_Penalty_Charging>  (262) 
0.829064

>  <r_epik_Ionization_Penalty_Neutral>  (262) 
3.87098e-08

>  <r_epik_State_Penalty>  (262) 
0.862775

>  <r_epik_Charging_Adjusted_Penalty>  (262) 
1.69184

>  <i_epik_Tot_Q>  (262) 
1

>  <i_epik_Tot_abs_Q>  (262) 
1

>  <s_epik_Chemistry_Notes>  (262) 
This compound contains an electron-poor aromatic ring that is susceptible to covalent hydrolysis at low pH, typically resulting in measured values for nitrogen ring protonation that are around two units higher than predicted values.

>  <s_lp_Force_Field>  (262) 
OPLS3e

>  <r_lp_Energy>  (262) 
40.3321

>  <b_lp_Chiralities_Consistent>  (262) 
1

>  <s_lp_Variant>  (262) 
84:0-2

>  <s_i_glide_gridfile>  (262) 
pfpi4k_grid

>  <i_i_glide_lignum>  (262) 
35

>  <i_i_glide_rotatable_bonds>  (262) 
2

>  <r_i_docking_score>  (262) 
-3.37444

>  <r_i_glide_ligand_efficiency>  (262) 
-0.224963

>  <r_i_glide_ligand_efficiency_sa>  (262) 
-0.554806

>  <r_i_glide_ligand_efficiency_ln>  (262) 
-0.910031

>  <r_i_glide_gscore>  (262) 
-3.37444

>  <r_i_glide_lipo>  (262) 
-0.0172194

>  <r_i_glide_hbond>  (262) 
-0.149964

>  <r_i_glide_metal>  (262) 
-0

>  <r_i_glide_rewards>  (262) 
-2.05319

>  <r_i_glide_evdw>  (262) 
-16.0386

>  <r_i_glide_ecoul>  (262) 
-6.75352

>  <r_i_glide_erotb>  (262) 
0.769488

>  <r_i_glide_esite>  (262) 
-0.1086

>  <r_i_glide_emodel>  (262) 
-31.0984

>  <r_i_glide_energy>  (262) 
-22.7921

>  <r_i_glide_einternal>  (262) 
0.620595

>  <r_i_glide_intrahb_reward>  (262) 
-0

>  <i_i_glide_confnum>  (262) 
5

>  <i_i_glide_posenum>  (262) 
3

>  <r_i_glide_eff_state_penalty>  (262) 
0

>  <ligand_id>  (262) 
84

>  <original_smiles>  (262) 
CN1CCN(C(=O)c2ccncn2)CC1

>  <smiles>  (262) 
[H]c1nc([H])c([H])c(C(=O)N2C([H])([H])C([H])([H])[N+]([H])(C([H])([H])[H])C([H])([H])C2([H])[H])n1

$$$$
85:0:0
     RDKit          3D

 56 61  0  0  1  0  0  0  0  0999 V2000
    8.7891   -2.8470   -0.0121 C   0  0  0  0  0  0  0  0  0  0  0  0
    7.2888   -2.9049    0.3683 C   0  0  2  0  0  0  0  0  0  0  0  0
    7.0230   -3.9245    1.4944 C   0  0  0  0  0  0  0  0  0  0  0  0
    5.7226   -4.6492    1.1839 C   0  0  2  0  0  0  0  0  0  0  0  0
    5.6825   -5.9798    1.6928 O   0  0  0  0  0  0  0  0  0  0  0  0
    5.8457   -4.7135   -0.3463 C   0  0  1  0  0  0  0  0  0  0  0  0
    4.5891   -4.9082   -1.0402 N   0  0  0  0  0  0  0  0  0  0  0  0
    3.7864   -3.6926   -0.8693 C   0  0  1  0  0  0  0  0  0  0  0  0
    2.5275   -3.6221   -1.7647 C   0  0  0  0  0  0  0  0  0  0  0  0
    3.4160   -3.6199    0.5857 C   0  0  1  0  0  0  0  0  0  0  0  0
    4.5179   -3.7982    1.6037 C   0  0  1  0  0  0  0  0  0  0  0  0
    4.1433   -3.9239    3.0864 C   0  0  0  0  0  0  0  0  0  0  0  0
    4.3740   -2.4923    0.8302 C   0  0  2  0  0  0  0  0  0  0  0  0
    4.0192   -1.1784    1.6160 C   0  0  0  0  0  0  0  0  0  0  0  0
    3.3496   -0.0081    0.8720 C   0  0  0  0  0  0  0  0  0  0  0  0
    5.1705   -0.6687    2.5086 C   0  0  0  0  0  0  0  0  0  0  0  0
    4.8589   -2.5965   -0.6622 C   0  0  2  0  0  0  0  0  0  0  0  0
    4.9674   -1.3232   -1.4272 C   0  0  0  0  0  0  0  0  0  0  0  0
    5.7263   -0.5342   -0.9310 O   0  0  0  0  0  0  0  0  0  0  0  0
    4.3514   -1.0657   -2.7794 C   0  0  0  0  0  0  0  0  0  0  0  0
    4.1480    0.1983   -3.4349 C   0  0  0  0  0  0  0  0  0  0  0  0
    3.5817   -0.0702   -4.6623 C   0  0  0  0  0  0  0  0  0  0  0  0
    3.4854   -1.4083   -4.8176 O   0  0  0  0  0  0  0  0  0  0  0  0
    4.0402   -2.0129   -3.7144 C   0  0  0  0  0  0  0  0  0  0  0  0
    6.2694   -3.2961   -0.7458 C   0  0  1  0  0  0  0  0  0  0  0  0
    6.9046   -3.2709   -2.1815 C   0  0  0  0  0  0  0  0  0  0  0  0
    9.1593   -3.8029   -0.3848 H   0  0  0  0  0  0  0  0  0  0  0  0
    9.3973   -2.5713    0.8463 H   0  0  0  0  0  0  0  0  0  0  0  0
    8.9815   -2.0988   -0.7782 H   0  0  0  0  0  0  0  0  0  0  0  0
    7.0381   -1.9142    0.7368 H   0  0  0  0  0  0  0  0  0  0  0  0
    7.8422   -4.6441    1.5729 H   0  0  0  0  0  0  0  0  0  0  0  0
    6.8477   -3.3985    2.4174 H   0  0  0  0  0  0  0  0  0  0  0  0
    4.8750   -6.3830    1.4278 H   0  0  0  0  0  0  0  0  0  0  0  0
    6.5409   -5.5346   -0.4546 H   0  0  0  0  0  0  0  0  0  0  0  0
    4.7612   -5.0701   -2.0354 H   0  0  0  0  0  0  0  0  0  0  0  0
    2.1183   -2.6058   -1.7459 H   0  0  0  0  0  0  0  0  0  0  0  0
    1.7216   -4.2767   -1.3639 H   0  0  0  0  0  0  0  0  0  0  0  0
    2.7196   -3.8061   -2.8030 H   0  0  0  0  0  0  0  0  0  0  0  0
    2.3681   -3.5829    0.8966 H   0  0  0  0  0  0  0  0  0  0  0  0
    3.1747   -3.4602    3.2644 H   0  0  0  0  0  0  0  0  0  0  0  0
    4.8881   -3.4352    3.7140 H   0  0  0  0  0  0  0  0  0  0  0  0
    4.0724   -4.9699    3.3889 H   0  0  0  0  0  0  0  0  0  0  0  0
    3.2404   -1.4996    2.3076 H   0  0  0  0  0  0  0  0  0  0  0  0
    4.0918    0.5951    0.3372 H   0  0  0  0  0  0  0  0  0  0  0  0
    2.8168    0.6525    1.5654 H   0  0  0  0  0  0  0  0  0  0  0  0
    2.6344   -0.3921    0.1568 H   0  0  0  0  0  0  0  0  0  0  0  0
    5.9984   -0.2705    1.9203 H   0  0  0  0  0  0  0  0  0  0  0  0
    5.5677   -1.4523    3.1495 H   0  0  0  0  0  0  0  0  0  0  0  0
    4.8146    0.1181    3.1728 H   0  0  0  0  0  0  0  0  0  0  0  0
    4.4162    1.1858   -3.1111 H   0  0  0  0  0  0  0  0  0  0  0  0
    3.2783    0.5239   -5.5126 H   0  0  0  0  0  0  0  0  0  0  0  0
    4.1202   -3.0897   -3.8060 H   0  0  0  0  0  0  0  0  0  0  0  0
    6.2255   -3.6703   -2.9358 H   0  0  0  0  0  0  0  0  0  0  0  0
    7.8555   -3.8106   -2.2526 H   0  0  0  0  0  0  0  0  0  0  0  0
    7.2147   -2.2774   -2.4824 H   0  0  0  0  0  0  0  0  0  0  0  0
    4.0860   -5.7066   -0.6513 H   0  0  0  0  0  0  0  0  0  0  0  0
  1  2  1  0
  1 27  1  0
  1 28  1  0
  1 29  1  0
  2 25  1  0
  2  3  1  0
  2 30  1  1
  3  4  1  0
  3 31  1  0
  3 32  1  0
  4 11  1  0
  4  5  1  1
  4  6  1  0
  5 33  1  0
  6 25  1  0
  6  7  1  0
  6 34  1  1
  7  8  1  0
  7 35  1  0
  7 56  1  0
  8 17  1  0
  8  9  1  6
  8 10  1  0
  9 36  1  0
  9 37  1  0
  9 38  1  0
 10 13  1  0
 10 11  1  0
 10 39  1  1
 11 12  1  1
 11 13  1  0
 12 40  1  0
 12 41  1  0
 12 42  1  0
 13 14  1  1
 13 17  1  0
 14 15  1  0
 14 16  1  0
 14 43  1  0
 15 44  1  0
 15 45  1  0
 15 46  1  0
 16 47  1  0
 16 48  1  0
 16 49  1  0
 17 18  1  6
 17 25  1  0
 18 19  2  0
 18 20  1  0
 20 24  2  0
 20 21  1  0
 21 22  2  0
 21 50  1  0
 22 23  1  0
 22 51  1  0
 23 24  1  0
 24 52  1  0
 25 26  1  6
 26 53  1  0
 26 54  1  0
 26 55  1  0
M  CHG  1   7   1
M  END
>  <i_m_ct_stereo_status>  (263) 
1

>  <s_m_source_file>  (263) 
/var/tmp/pbs.5076255.sched01/tmpi5tju4vo/80qzp1lgse.sdf

>  <i_m_source_file_index>  (263) 
36

>  <i_lp_mmshare_version>  (263) 
48012

>  <i_f3d_flags>  (263) 
0

>  <s_epik_input>  (263) 
W2NIXTFvW2NIXVtjSF1jMUMoPU8pW0NAXTIoW0NAQF0oW0NIM10pKFtDQEhdKFtDSDNdKVtDSDJdMylbQ0BIXTRbQ0BAXTM1W09IXSlbQ0BdKFtOSF00KShbQ0gzXSlbQ0BIXTZbQ0BdNShbQ0gzXSlbQ0BAXTI2W0NIXShbQ0gzXSlbQ0gzXQ==

>  <s_epik_cmdline>  (263) 
J2VwaWtfcHl0aG9uJywgJy1waHQnLCAnMi4wJywgJy1waCcsICc3LjAnLCAnLXRuJywgJzgnLCAnLW1hJywgJzIwMCcsICctaW1hZScsICc8aW5maWxlLm1hZT4nLCAnLW9tYWUnLCAnPG91dGZpbGUubWFlPic=

>  <r_epik_Ionization_Penalty>  (263) 
0.000384394

>  <r_epik_Ionization_Penalty_Charging>  (263) 
0.00038438

>  <r_epik_Ionization_Penalty_Neutral>  (263) 
1.43041e-08

>  <r_epik_State_Penalty>  (263) 
0.000234952

>  <r_epik_Charging_Adjusted_Penalty>  (263) 
0.000619332

>  <i_epik_Tot_Q>  (263) 
1

>  <i_epik_Tot_abs_Q>  (263) 
1

>  <s_lp_Force_Field>  (263) 
OPLS3e

>  <r_lp_Energy>  (263) 
54.4604

>  <b_lp_Chiralities_Consistent>  (263) 
1

>  <s_lp_Variant>  (263) 
85:0-1

>  <s_i_glide_gridfile>  (263) 
pfpi4k_grid

>  <i_i_glide_lignum>  (263) 
36

>  <i_i_glide_rotatable_bonds>  (263) 
4

>  <r_i_docking_score>  (263) 
-3.45162

>  <r_i_glide_ligand_efficiency>  (263) 
-0.132755

>  <r_i_glide_ligand_efficiency_sa>  (263) 
-0.393285

>  <r_i_glide_ligand_efficiency_ln>  (263) 
-0.810602

>  <r_i_glide_gscore>  (263) 
-3.45162

>  <r_i_glide_lipo>  (263) 
-1.06781

>  <r_i_glide_hbond>  (263) 
-0.339154

>  <r_i_glide_metal>  (263) 
-0

>  <r_i_glide_rewards>  (263) 
-0.978556

>  <r_i_glide_evdw>  (263) 
-9.00389

>  <r_i_glide_ecoul>  (263) 
-5.61155

>  <r_i_glide_erotb>  (263) 
0.301122

>  <r_i_glide_esite>  (263) 
-0.0752922

>  <r_i_glide_emodel>  (263) 
-14.5639

>  <r_i_glide_energy>  (263) 
-14.6154

>  <r_i_glide_einternal>  (263) 
2.4232

>  <r_i_glide_intrahb_reward>  (263) 
-0

>  <i_i_glide_confnum>  (263) 
1

>  <i_i_glide_posenum>  (263) 
9

>  <r_i_glide_eff_state_penalty>  (263) 
0

>  <ligand_id>  (263) 
85

>  <original_smiles>  (263) 
CC1CC2(O)C3NC4(C)C5C2(C)C5(C(C)C)C4(C(=O)c2ccoc2)C13C

>  <smiles>  (263) 
[H]OC12C([H])([H])C([H])(C([H])([H])[H])C3(C([H])([H])[H])C4(C(=O)c5c([H])oc([H])c5[H])C5(C([H])(C([H])([H])[H])C([H])([H])[H])C([H])(C15C([H])([H])[H])C4(C([H])([H])[H])[N+]([H])([H])C23[H]

$$$$
85:0:1
     RDKit          3D

 56 61  0  0  1  0  0  0  0  0999 V2000
    5.3670   -3.3641    5.0000 C   0  0  0  0  0  0  0  0  0  0  0  0
    5.3105   -3.0709    3.4819 C   0  0  2  0  0  0  0  0  0  0  0  0
    5.5559   -1.5729    3.1649 C   0  0  0  0  0  0  0  0  0  0  0  0
    4.5779   -1.2076    2.0534 C   0  0  2  0  0  0  0  0  0  0  0  0
    4.1956    0.1434    2.0800 O   0  0  0  0  0  0  0  0  0  0  0  0
    3.3538   -2.0878    2.4165 C   0  0  1  0  0  0  0  0  0  0  0  0
    2.4547   -2.3205    1.2773 N   0  0  0  0  0  0  0  0  0  0  0  0
    3.1899   -3.1989    0.3588 C   0  0  1  0  0  0  0  0  0  0  0  0
    2.3297   -3.7581   -0.7690 C   0  0  0  0  0  0  0  0  0  0  0  0
    4.2824   -2.3642   -0.2291 C   0  0  1  0  0  0  0  0  0  0  0  0
    5.1709   -1.6124    0.7052 C   0  0  1  0  0  0  0  0  0  0  0  0
    6.1754   -0.6124    0.1340 C   0  0  0  0  0  0  0  0  0  0  0  0
    5.3479   -3.1036    0.5140 C   0  0  2  0  0  0  0  0  0  0  0  0
    6.6376   -3.7348   -0.1611 C   0  0  0  0  0  0  0  0  0  0  0  0
    7.8915   -3.5922    0.7295 C   0  0  0  0  0  0  0  0  0  0  0  0
    6.9631   -3.2616   -1.6089 C   0  0  0  0  0  0  0  0  0  0  0  0
    4.2413   -3.9821    1.2490 C   0  0  2  0  0  0  0  0  0  0  0  0
    4.4365   -5.5238    1.2252 C   0  0  0  0  0  0  0  0  0  0  0  0
    5.5457   -6.0553    1.3216 O   0  0  0  0  0  0  0  0  0  0  0  0
    3.2870   -6.5031    1.3477 C   0  0  0  0  0  0  0  0  0  0  0  0
    3.3330   -7.8456    1.8191 C   0  0  0  0  0  0  0  0  0  0  0  0
    2.0852   -8.3612    1.7144 C   0  0  0  0  0  0  0  0  0  0  0  0
    1.2314   -7.4591    1.2366 O   0  0  0  0  0  0  0  0  0  0  0  0
    1.9243   -6.2927    1.0626 C   0  0  0  0  0  0  0  0  0  0  0  0
    4.0028   -3.4427    2.7182 C   0  0  1  0  0  0  0  0  0  0  0  0
    3.0094   -4.2817    3.5807 C   0  0  0  0  0  0  0  0  0  0  0  0
    4.6001   -2.8230    5.5534 H   0  0  0  0  0  0  0  0  0  0  0  0
    6.3269   -3.0719    5.4264 H   0  0  0  0  0  0  0  0  0  0  0  0
    5.2542   -4.4288    5.2142 H   0  0  0  0  0  0  0  0  0  0  0  0
    6.0956   -3.6795    3.0574 H   0  0  0  0  0  0  0  0  0  0  0  0
    5.3490   -0.9771    4.0510 H   0  0  0  0  0  0  0  0  0  0  0  0
    6.5803   -1.3644    2.8507 H   0  0  0  0  0  0  0  0  0  0  0  0
    3.5838    0.3055    1.3795 H   0  0  0  0  0  0  0  0  0  0  0  0
    2.8425   -1.6735    3.2844 H   0  0  0  0  0  0  0  0  0  0  0  0
    1.6272   -2.7802    1.6369 H   0  0  0  0  0  0  0  0  0  0  0  0
    2.8165   -4.6336   -1.1926 H   0  0  0  0  0  0  0  0  0  0  0  0
    1.9938   -3.0260   -1.5108 H   0  0  0  0  0  0  0  0  0  0  0  0
    1.3966   -4.0964   -0.3994 H   0  0  0  0  0  0  0  0  0  0  0  0
    4.2936   -2.1827   -1.3026 H   0  0  0  0  0  0  0  0  0  0  0  0
    6.2240   -0.7526   -0.9390 H   0  0  0  0  0  0  0  0  0  0  0  0
    7.1475   -0.6873    0.6357 H   0  0  0  0  0  0  0  0  0  0  0  0
    5.8024    0.3937    0.2338 H   0  0  0  0  0  0  0  0  0  0  0  0
    6.5038   -4.7932   -0.3245 H   0  0  0  0  0  0  0  0  0  0  0  0
    8.2878   -2.5779    0.7768 H   0  0  0  0  0  0  0  0  0  0  0  0
    8.6981   -4.2365    0.3886 H   0  0  0  0  0  0  0  0  0  0  0  0
    7.7008   -3.9174    1.7420 H   0  0  0  0  0  0  0  0  0  0  0  0
    7.3380   -2.2503   -1.6964 H   0  0  0  0  0  0  0  0  0  0  0  0
    6.0971   -3.3902   -2.2636 H   0  0  0  0  0  0  0  0  0  0  0  0
    7.7978   -3.8266   -2.0312 H   0  0  0  0  0  0  0  0  0  0  0  0
    4.1935   -8.3870    2.2054 H   0  0  0  0  0  0  0  0  0  0  0  0
    1.5717   -9.3179    1.9090 H   0  0  0  0  0  0  0  0  0  0  0  0
    1.2701   -5.5520    0.7622 H   0  0  0  0  0  0  0  0  0  0  0  0
    2.0695   -4.4621    3.0644 H   0  0  0  0  0  0  0  0  0  0  0  0
    2.7377   -3.7838    4.5130 H   0  0  0  0  0  0  0  0  0  0  0  0
    3.4133   -5.2534    3.8633 H   0  0  0  0  0  0  0  0  0  0  0  0
    2.1734   -1.4566    0.8110 H   0  0  0  0  0  0  0  0  0  0  0  0
  1  2  1  0
  1 27  1  0
  1 28  1  0
  1 29  1  0
  2 25  1  0
  2  3  1  0
  2 30  1  6
  3  4  1  0
  3 31  1  0
  3 32  1  0
  4 11  1  0
  4  5  1  6
  4  6  1  0
  5 33  1  0
  6 25  1  0
  6  7  1  0
  6 34  1  1
  7  8  1  0
  7 35  1  0
  7 56  1  0
  8 17  1  0
  8  9  1  6
  8 10  1  0
  9 36  1  0
  9 37  1  0
  9 38  1  0
 10 13  1  0
 10 11  1  0
 10 39  1  6
 11 12  1  6
 11 13  1  0
 12 40  1  0
 12 41  1  0
 12 42  1  0
 13 14  1  6
 13 17  1  0
 14 15  1  0
 14 16  1  0
 14 43  1  0
 15 44  1  0
 15 45  1  0
 15 46  1  0
 16 47  1  0
 16 48  1  0
 16 49  1  0
 17 18  1  1
 17 25  1  0
 18 19  2  0
 18 20  1  0
 20 24  2  0
 20 21  1  0
 21 22  2  0
 21 50  1  0
 22 23  1  0
 22 51  1  0
 23 24  1  0
 24 52  1  0
 25 26  1  1
 26 53  1  0
 26 54  1  0
 26 55  1  0
M  CHG  1   7   1
M  END
>  <i_m_ct_stereo_status>  (264) 
1

>  <s_m_source_file>  (264) 
/var/tmp/pbs.5076255.sched01/tmpi5tju4vo/80qzp1lgse.sdf

>  <i_m_source_file_index>  (264) 
36

>  <i_lp_mmshare_version>  (264) 
48012

>  <i_f3d_flags>  (264) 
0

>  <s_epik_input>  (264) 
W2NIXTFvW2NIXVtjSF1jMUMoPU8pW0NAXTIoW0NAQF0oW0NIM10pKFtDQEhdKFtDSDNdKVtDSDJdMylbQ0BIXTRbQ0BAXTM1W09IXSlbQ0BdKFtOSF00KShbQ0gzXSlbQ0BIXTZbQ0BdNShbQ0gzXSlbQ0BAXTI2W0NIXShbQ0gzXSlbQ0gzXQ==

>  <s_epik_cmdline>  (264) 
J2VwaWtfcHl0aG9uJywgJy1waHQnLCAnMi4wJywgJy1waCcsICc3LjAnLCAnLXRuJywgJzgnLCAnLW1hJywgJzIwMCcsICctaW1hZScsICc8aW5maWxlLm1hZT4nLCAnLW9tYWUnLCAnPG91dGZpbGUubWFlPic=

>  <r_epik_Ionization_Penalty>  (264) 
0.000384394

>  <r_epik_Ionization_Penalty_Charging>  (264) 
0.00038438

>  <r_epik_Ionization_Penalty_Neutral>  (264) 
1.43041e-08

>  <r_epik_State_Penalty>  (264) 
0.000234952

>  <r_epik_Charging_Adjusted_Penalty>  (264) 
0.000619332

>  <i_epik_Tot_Q>  (264) 
1

>  <i_epik_Tot_abs_Q>  (264) 
1

>  <s_lp_Force_Field>  (264) 
OPLS3e

>  <r_lp_Energy>  (264) 
54.4604

>  <b_lp_Chiralities_Consistent>  (264) 
1

>  <s_lp_Variant>  (264) 
85:0-1

>  <s_i_glide_gridfile>  (264) 
pfpi4k_grid

>  <i_i_glide_lignum>  (264) 
36

>  <i_i_glide_rotatable_bonds>  (264) 
4

>  <r_i_docking_score>  (264) 
-3.22659

>  <r_i_glide_ligand_efficiency>  (264) 
-0.124099

>  <r_i_glide_ligand_efficiency_sa>  (264) 
-0.367644

>  <r_i_glide_ligand_efficiency_ln>  (264) 
-0.757753

>  <r_i_glide_gscore>  (264) 
-3.22659

>  <r_i_glide_lipo>  (264) 
-0.731287

>  <r_i_glide_hbond>  (264) 
-0.0823772

>  <r_i_glide_metal>  (264) 
-0

>  <r_i_glide_rewards>  (264) 
-1.03986

>  <r_i_glide_evdw>  (264) 
-16.3225

>  <r_i_glide_ecoul>  (264) 
-5.41667

>  <r_i_glide_erotb>  (264) 
0.301122

>  <r_i_glide_esite>  (264) 
-0.0455632

>  <r_i_glide_emodel>  (264) 
-21.1458

>  <r_i_glide_energy>  (264) 
-21.7391

>  <r_i_glide_einternal>  (264) 
5.42442

>  <r_i_glide_intrahb_reward>  (264) 
-0

>  <i_i_glide_confnum>  (264) 
3

>  <i_i_glide_posenum>  (264) 
8

>  <r_i_glide_eff_state_penalty>  (264) 
0

>  <ligand_id>  (264) 
85

>  <original_smiles>  (264) 
CC1CC2(O)C3NC4(C)C5C2(C)C5(C(C)C)C4(C(=O)c2ccoc2)C13C

>  <smiles>  (264) 
[H]OC12C([H])([H])C([H])(C([H])([H])[H])C3(C([H])([H])[H])C4(C(=O)c5c([H])oc([H])c5[H])C5(C([H])(C([H])([H])[H])C([H])([H])[H])C([H])(C15C([H])([H])[H])C4(C([H])([H])[H])[N+]([H])([H])C23[H]

$$$$
85:0:2
     RDKit          3D

 56 61  0  0  1  0  0  0  0  0999 V2000
    5.5587   -2.8273    5.3136 C   0  0  0  0  0  0  0  0  0  0  0  0
    5.1917   -2.5232    3.8421 C   0  0  2  0  0  0  0  0  0  0  0  0
    4.7107   -1.0611    3.6689 C   0  0  0  0  0  0  0  0  0  0  0  0
    3.5232   -1.1235    2.7088 C   0  0  2  0  0  0  0  0  0  0  0  0
    2.5711   -0.0841    2.8967 O   0  0  0  0  0  0  0  0  0  0  0  0
    2.8969   -2.4781    3.1234 C   0  0  1  0  0  0  0  0  0  0  0  0
    2.0166   -3.0559    2.0798 N   0  0  0  0  0  0  0  0  0  0  0  0
    2.9029   -3.5107    0.9814 C   0  0  1  0  0  0  0  0  0  0  0  0
    2.2063   -4.3848   -0.0789 C   0  0  0  0  0  0  0  0  0  0  0  0
    3.4197   -2.2425    0.3385 C   0  0  1  0  0  0  0  0  0  0  0  0
    4.0288   -1.1937    1.2525 C   0  0  1  0  0  0  0  0  0  0  0  0
    4.4064    0.1570    0.6496 C   0  0  0  0  0  0  0  0  0  0  0  0
    4.7991   -2.4755    0.8871 C   0  0  2  0  0  0  0  0  0  0  0  0
    6.1128   -2.3616    0.0433 C   0  0  0  0  0  0  0  0  0  0  0  0
    6.2934   -3.3840   -1.0897 C   0  0  0  0  0  0  0  0  0  0  0  0
    7.3859   -2.1553    0.8776 C   0  0  0  0  0  0  0  0  0  0  0  0
    4.3023   -3.7603    1.6657 C   0  0  2  0  0  0  0  0  0  0  0  0
    5.1418   -5.0574    1.5238 C   0  0  0  0  0  0  0  0  0  0  0  0
    6.3673   -5.0078    1.5765 O   0  0  0  0  0  0  0  0  0  0  0  0
    4.5352   -6.4142    1.4100 C   0  0  0  0  0  0  0  0  0  0  0  0
    5.2687   -7.6276    1.2719 C   0  0  0  0  0  0  0  0  0  0  0  0
    4.3426   -8.6362    1.1995 C   0  0  0  0  0  0  0  0  0  0  0  0
    3.0996   -8.1166    1.3738 O   0  0  0  0  0  0  0  0  0  0  0  0
    3.2250   -6.7848    1.5721 C   0  0  0  0  0  0  0  0  0  0  0  0
    4.0948   -3.4237    3.1987 C   0  0  1  0  0  0  0  0  0  0  0  0
    3.6922   -4.6434    4.0796 C   0  0  0  0  0  0  0  0  0  0  0  0
    4.7088   -2.7252    5.9937 H   0  0  0  0  0  0  0  0  0  0  0  0
    6.3251   -2.1399    5.6706 H   0  0  0  0  0  0  0  0  0  0  0  0
    5.9692   -3.8297    5.4279 H   0  0  0  0  0  0  0  0  0  0  0  0
    6.0896   -2.6580    3.2515 H   0  0  0  0  0  0  0  0  0  0  0  0
    4.3591   -0.6670    4.6170 H   0  0  0  0  0  0  0  0  0  0  0  0
    5.5054   -0.4041    3.3146 H   0  0  0  0  0  0  0  0  0  0  0  0
    1.9705   -0.0832    2.1621 H   0  0  0  0  0  0  0  0  0  0  0  0
    2.3516   -2.3729    4.0648 H   0  0  0  0  0  0  0  0  0  0  0  0
    1.5449   -3.8601    2.4738 H   0  0  0  0  0  0  0  0  0  0  0  0
    2.9447   -4.8376   -0.7236 H   0  0  0  0  0  0  0  0  0  0  0  0
    1.5504   -3.7957   -0.7461 H   0  0  0  0  0  0  0  0  0  0  0  0
    1.6089   -5.1960    0.3584 H   0  0  0  0  0  0  0  0  0  0  0  0
    3.2282   -2.0242   -0.7183 H   0  0  0  0  0  0  0  0  0  0  0  0
    4.5313    0.0716   -0.4311 H   0  0  0  0  0  0  0  0  0  0  0  0
    5.3482    0.5102    1.0694 H   0  0  0  0  0  0  0  0  0  0  0  0
    3.6321    0.9048    0.8252 H   0  0  0  0  0  0  0  0  0  0  0  0
    6.0243   -1.4336   -0.5114 H   0  0  0  0  0  0  0  0  0  0  0  0
    6.6466   -4.3422   -0.7244 H   0  0  0  0  0  0  0  0  0  0  0  0
    7.0587   -3.0440   -1.7824 H   0  0  0  0  0  0  0  0  0  0  0  0
    5.3793   -3.5410   -1.6661 H   0  0  0  0  0  0  0  0  0  0  0  0
    7.6663   -3.0642    1.4097 H   0  0  0  0  0  0  0  0  0  0  0  0
    7.2372   -1.3417    1.5924 H   0  0  0  0  0  0  0  0  0  0  0  0
    8.2341   -1.8967    0.2495 H   0  0  0  0  0  0  0  0  0  0  0  0
    6.3467   -7.7638    1.2290 H   0  0  0  0  0  0  0  0  0  0  0  0
    4.3869   -9.7191    1.0992 H   0  0  0  0  0  0  0  0  0  0  0  0
    2.3021   -6.3014    1.8268 H   0  0  0  0  0  0  0  0  0  0  0  0
    2.8585   -5.1985    3.6597 H   0  0  0  0  0  0  0  0  0  0  0  0
    3.3642   -4.3501    5.0760 H   0  0  0  0  0  0  0  0  0  0  0  0
    4.5183   -5.3367    4.2048 H   0  0  0  0  0  0  0  0  0  0  0  0
    1.3559   -2.3611    1.7367 H   0  0  0  0  0  0  0  0  0  0  0  0
  1  2  1  0
  1 27  1  0
  1 28  1  0
  1 29  1  0
  2 25  1  0
  2  3  1  0
  2 30  1  6
  3  4  1  0
  3 31  1  0
  3 32  1  0
  4 11  1  0
  4  5  1  6
  4  6  1  0
  5 33  1  0
  6 25  1  0
  6  7  1  0
  6 34  1  1
  7  8  1  0
  7 35  1  0
  7 56  1  0
  8 17  1  0
  8  9  1  6
  8 10  1  0
  9 36  1  0
  9 37  1  0
  9 38  1  0
 10 13  1  0
 10 11  1  0
 10 39  1  6
 11 12  1  6
 11 13  1  0
 12 40  1  0
 12 41  1  0
 12 42  1  0
 13 14  1  6
 13 17  1  0
 14 15  1  0
 14 16  1  0
 14 43  1  0
 15 44  1  0
 15 45  1  0
 15 46  1  0
 16 47  1  0
 16 48  1  0
 16 49  1  0
 17 18  1  1
 17 25  1  0
 18 19  2  0
 18 20  1  0
 20 24  2  0
 20 21  1  0
 21 22  2  0
 21 50  1  0
 22 23  1  0
 22 51  1  0
 23 24  1  0
 24 52  1  0
 25 26  1  1
 26 53  1  0
 26 54  1  0
 26 55  1  0
M  CHG  1   7   1
M  END
>  <i_m_ct_stereo_status>  (265) 
1

>  <s_m_source_file>  (265) 
/var/tmp/pbs.5076255.sched01/tmpi5tju4vo/80qzp1lgse.sdf

>  <i_m_source_file_index>  (265) 
36

>  <i_lp_mmshare_version>  (265) 
48012

>  <i_f3d_flags>  (265) 
0

>  <s_epik_input>  (265) 
W2NIXTFvW2NIXVtjSF1jMUMoPU8pW0NAXTIoW0NAQF0oW0NIM10pKFtDQEhdKFtDSDNdKVtDSDJdMylbQ0BIXTRbQ0BAXTM1W09IXSlbQ0BdKFtOSF00KShbQ0gzXSlbQ0BIXTZbQ0BdNShbQ0gzXSlbQ0BAXTI2W0NIXShbQ0gzXSlbQ0gzXQ==

>  <s_epik_cmdline>  (265) 
J2VwaWtfcHl0aG9uJywgJy1waHQnLCAnMi4wJywgJy1waCcsICc3LjAnLCAnLXRuJywgJzgnLCAnLW1hJywgJzIwMCcsICctaW1hZScsICc8aW5maWxlLm1hZT4nLCAnLW9tYWUnLCAnPG91dGZpbGUubWFlPic=

>  <r_epik_Ionization_Penalty>  (265) 
0.000384394

>  <r_epik_Ionization_Penalty_Charging>  (265) 
0.00038438

>  <r_epik_Ionization_Penalty_Neutral>  (265) 
1.43041e-08

>  <r_epik_State_Penalty>  (265) 
0.000234952

>  <r_epik_Charging_Adjusted_Penalty>  (265) 
0.000619332

>  <i_epik_Tot_Q>  (265) 
1

>  <i_epik_Tot_abs_Q>  (265) 
1

>  <s_lp_Force_Field>  (265) 
OPLS3e

>  <r_lp_Energy>  (265) 
54.4604

>  <b_lp_Chiralities_Consistent>  (265) 
1

>  <s_lp_Variant>  (265) 
85:0-1

>  <s_i_glide_gridfile>  (265) 
pfpi4k_grid

>  <i_i_glide_lignum>  (265) 
36

>  <i_i_glide_rotatable_bonds>  (265) 
4

>  <r_i_docking_score>  (265) 
-2.93611

>  <r_i_glide_ligand_efficiency>  (265) 
-0.112927

>  <r_i_glide_ligand_efficiency_sa>  (265) 
-0.334547

>  <r_i_glide_ligand_efficiency_ln>  (265) 
-0.689535

>  <r_i_glide_gscore>  (265) 
-2.93611

>  <r_i_glide_lipo>  (265) 
-0.617007

>  <r_i_glide_hbond>  (265) 
0

>  <r_i_glide_metal>  (265) 
-0

>  <r_i_glide_rewards>  (265) 
-1.03182

>  <r_i_glide_evdw>  (265) 
-17.0858

>  <r_i_glide_ecoul>  (265) 
-4.81359

>  <r_i_glide_erotb>  (265) 
0.301122

>  <r_i_glide_esite>  (265) 
-0.0120816

>  <r_i_glide_emodel>  (265) 
-23.5692

>  <r_i_glide_energy>  (265) 
-21.8994

>  <r_i_glide_einternal>  (265) 
1.41718

>  <r_i_glide_intrahb_reward>  (265) 
-0

>  <i_i_glide_confnum>  (265) 
1

>  <i_i_glide_posenum>  (265) 
7

>  <r_i_glide_eff_state_penalty>  (265) 
0

>  <ligand_id>  (265) 
85

>  <original_smiles>  (265) 
CC1CC2(O)C3NC4(C)C5C2(C)C5(C(C)C)C4(C(=O)c2ccoc2)C13C

>  <smiles>  (265) 
[H]OC12C([H])([H])C([H])(C([H])([H])[H])C3(C([H])([H])[H])C4(C(=O)c5c([H])oc([H])c5[H])C5(C([H])(C([H])([H])[H])C([H])([H])[H])C([H])(C15C([H])([H])[H])C4(C([H])([H])[H])[N+]([H])([H])C23[H]

$$$$
87:0:0
     RDKit          3D

 66 69  0  0  1  0  0  0  0  0999 V2000
    2.8211   -2.7172    4.9355 C   0  0  0  0  0  0  0  0  0  0  0  0
    4.1240   -2.2388    4.3251 C   0  0  0  0  0  0  0  0  0  0  0  0
    4.9891   -1.6733    5.0079 O   0  0  0  0  0  0  0  0  0  0  0  0
    4.2292   -2.5381    3.0212 O   0  0  0  0  0  0  0  0  0  0  0  0
    5.4267   -2.2471    2.3126 C   0  0  2  0  0  0  0  0  0  0  0  0
    5.3427   -0.7994    1.8115 C   0  0  0  0  0  0  0  0  0  0  0  0
    4.3134   -0.6644    0.6906 C   0  0  0  0  0  0  0  0  0  0  0  0
    4.6465   -1.5922   -0.4969 C   0  0  1  0  0  0  0  0  0  0  0  0
    3.6655   -1.4217   -1.6592 C   0  0  0  0  0  0  0  0  0  0  0  0
    5.8085   -1.0560   -1.0735 O   0  0  0  0  0  0  0  0  0  0  0  0
    4.8653   -3.0779   -0.0600 C   0  0  2  0  0  0  0  0  0  0  0  0
    3.6046   -3.8682    0.3725 C   0  0  1  0  0  0  0  0  0  0  0  0
    2.6917   -4.2005   -0.6538 O   0  0  0  0  0  0  0  0  0  0  0  0
    4.1450   -5.1472    1.0747 C   0  0  2  0  0  0  0  0  0  0  0  0
    4.2613   -6.3121    0.0866 C   0  0  0  0  0  0  0  0  0  0  0  0
    3.2671   -5.6275    2.2215 C   0  0  0  0  0  0  0  0  0  0  0  0
    2.0445   -5.2368    2.5229 C   0  0  0  0  0  0  0  0  0  0  0  0
    1.5163   -5.8798    3.7696 C   0  0  1  0  0  0  0  0  0  0  0  0
    0.1753   -6.2946    3.6027 O   0  0  0  0  0  0  0  0  0  0  0  0
    2.5506   -7.0227    4.0361 C   0  0  0  0  0  0  0  0  0  0  0  0
    2.7526   -7.2668    5.5440 C   0  0  0  0  0  0  0  0  0  0  0  0
    2.0582   -8.3476    3.4020 C   0  0  0  0  0  0  0  0  0  0  0  0
    3.8368   -6.5952    3.2324 C   0  0  2  0  0  0  0  0  0  0  0  0
    4.9470   -5.7975    3.9402 C   0  0  1  0  0  0  0  0  0  0  0  0
    5.6241   -6.5123    4.9609 O   0  0  0  0  0  0  0  0  0  0  0  0
    6.0171   -5.3321    2.9268 C   0  0  1  0  0  0  0  0  0  0  0  0
    6.9190   -6.3995    2.7350 O   0  0  0  0  0  0  0  0  0  0  0  0
    5.5608   -4.7598    1.5483 C   0  0  2  0  0  0  0  0  0  0  0  0
    5.7942   -3.2643    1.1786 C   0  0  2  0  0  0  0  0  0  0  0  0
    7.2909   -3.1320    0.8018 C   0  0  0  0  0  0  0  0  0  0  0  0
    2.0701   -2.8455    4.1531 H   0  0  0  0  0  0  0  0  0  0  0  0
    2.4414   -2.0307    5.6901 H   0  0  0  0  0  0  0  0  0  0  0  0
    2.9846   -3.6802    5.4164 H   0  0  0  0  0  0  0  0  0  0  0  0
    6.2211   -2.2852    3.0388 H   0  0  0  0  0  0  0  0  0  0  0  0
    5.0794   -0.1408    2.6349 H   0  0  0  0  0  0  0  0  0  0  0  0
    6.3187   -0.4714    1.4605 H   0  0  0  0  0  0  0  0  0  0  0  0
    3.3284   -0.9089    1.0837 H   0  0  0  0  0  0  0  0  0  0  0  0
    4.2901    0.3815    0.3831 H   0  0  0  0  0  0  0  0  0  0  0  0
    2.6481   -1.6343   -1.3467 H   0  0  0  0  0  0  0  0  0  0  0  0
    3.9040   -2.0640   -2.5080 H   0  0  0  0  0  0  0  0  0  0  0  0
    3.7053   -0.3890   -2.0202 H   0  0  0  0  0  0  0  0  0  0  0  0
    5.5739   -0.1570   -1.2699 H   0  0  0  0  0  0  0  0  0  0  0  0
    5.3186   -3.5887   -0.9097 H   0  0  0  0  0  0  0  0  0  0  0  0
    3.0381   -3.2361    1.0522 H   0  0  0  0  0  0  0  0  0  0  0  0
    3.1314   -4.7551   -1.2850 H   0  0  0  0  0  0  0  0  0  0  0  0
    4.8401   -6.0480   -0.8058 H   0  0  0  0  0  0  0  0  0  0  0  0
    3.2691   -6.6543   -0.1687 H   0  0  0  0  0  0  0  0  0  0  0  0
    4.7386   -7.1715    0.5429 H   0  0  0  0  0  0  0  0  0  0  0  0
    1.4756   -4.5012    1.9706 H   0  0  0  0  0  0  0  0  0  0  0  0
    1.5419   -5.1354    4.5625 H   0  0  0  0  0  0  0  0  0  0  0  0
    0.1772   -7.2415    3.5711 H   0  0  0  0  0  0  0  0  0  0  0  0
    3.4848   -8.0555    5.7256 H   0  0  0  0  0  0  0  0  0  0  0  0
    1.8192   -7.5781    6.0135 H   0  0  0  0  0  0  0  0  0  0  0  0
    3.0928   -6.3755    6.0647 H   0  0  0  0  0  0  0  0  0  0  0  0
    2.8260   -9.1202    3.4827 H   0  0  0  0  0  0  0  0  0  0  0  0
    1.8496   -8.2139    2.3356 H   0  0  0  0  0  0  0  0  0  0  0  0
    1.1580   -8.7386    3.8827 H   0  0  0  0  0  0  0  0  0  0  0  0
    4.2661   -7.4499    2.7040 H   0  0  0  0  0  0  0  0  0  0  0  0
    4.4841   -4.9359    4.4148 H   0  0  0  0  0  0  0  0  0  0  0  0
    5.8626   -7.3539    4.5989 H   0  0  0  0  0  0  0  0  0  0  0  0
    6.5900   -4.5780    3.4429 H   0  0  0  0  0  0  0  0  0  0  0  0
    7.3958   -6.4390    3.5492 H   0  0  0  0  0  0  0  0  0  0  0  0
    6.2356   -5.2645    0.8581 H   0  0  0  0  0  0  0  0  0  0  0  0
    7.5567   -3.6985   -0.0938 H   0  0  0  0  0  0  0  0  0  0  0  0
    7.9015   -3.5429    1.6075 H   0  0  0  0  0  0  0  0  0  0  0  0
    7.5968   -2.1019    0.6288 H   0  0  0  0  0  0  0  0  0  0  0  0
  1  2  1  0
  1 31  1  0
  1 32  1  0
  1 33  1  0
  2  3  2  0
  2  4  1  0
  4  5  1  0
  5 29  1  0
  5  6  1  0
  5 34  1  1
  6  7  1  0
  6 35  1  0
  6 36  1  0
  7  8  1  0
  7 37  1  0
  7 38  1  0
  8  9  1  0
  8 10  1  6
  8 11  1  0
  9 39  1  0
  9 40  1  0
  9 41  1  0
 10 42  1  0
 11 29  1  0
 11 12  1  0
 11 43  1  6
 12 13  1  0
 12 14  1  0
 12 44  1  1
 13 45  1  0
 14 28  1  0
 14 15  1  6
 14 16  1  0
 15 46  1  0
 15 47  1  0
 15 48  1  0
 16 23  1  0
 16 17  2  0
 17 18  1  0
 17 49  1  0
 18 19  1  0
 18 20  1  0
 18 50  1  1
 19 51  1  0
 20 21  1  0
 20 22  1  0
 20 23  1  0
 21 52  1  0
 21 53  1  0
 21 54  1  0
 22 55  1  0
 22 56  1  0
 22 57  1  0
 23 24  1  0
 23 58  1  6
 24 25  1  0
 24 26  1  0
 24 59  1  1
 25 60  1  0
 26 27  1  0
 26 28  1  0
 26 61  1  1
 27 62  1  0
 28 29  1  0
 28 63  1  6
 29 30  1  6
 30 64  1  0
 30 65  1  0
 30 66  1  0
M  END
>  <i_m_ct_stereo_status>  (266) 
1

>  <s_m_source_file>  (266) 
/var/tmp/pbs.5076255.sched01/tmpi5tju4vo/80qzp1lgse.sdf

>  <i_m_source_file_index>  (266) 
39

>  <i_lp_mmshare_version>  (266) 
48012

>  <i_f3d_flags>  (266) 
0

>  <s_epik_input>  (266) 
W0NIM11DKD1PKU9bQ0BASF0xW0NIMl1bQ0gyXVtDQEBdKFtDSDNdKShbT0hdKVtDQEhdKFtDQEhdMltPSF0pW0NAXTEoW0NIM10pW0NASF0zW0NASF0oW09IXSlbQ0BIXShbT0hdKVtDQEhdKEM9NFtDQEBdMjNbQ0gzXSlDKFtDSDNdKShbQ0gzXSlbQ0BASF0oW0NIXTQpW09IXQ==

>  <s_epik_cmdline>  (266) 
J2VwaWtfcHl0aG9uJywgJy1waHQnLCAnMi4wJywgJy1waCcsICc3LjAnLCAnLXRuJywgJzgnLCAnLW1hJywgJzIwMCcsICctaW1hZScsICc8aW5maWxlLm1hZT4nLCAnLW9tYWUnLCAnPG91dGZpbGUubWFlPic=

>  <r_lp_tautomer_probability>  (266) 
1

>  <r_epik_Ionization_Penalty>  (266) 
1.01182e-06

>  <r_epik_Ionization_Penalty_Charging>  (266) 
0

>  <r_epik_Ionization_Penalty_Neutral>  (266) 
1.01182e-06

>  <r_epik_State_Penalty>  (266) 
-0

>  <r_epik_Charging_Adjusted_Penalty>  (266) 
0

>  <i_epik_Tot_Q>  (266) 
0

>  <i_epik_Tot_abs_Q>  (266) 
0

>  <s_epik_Chemistry_Notes>  (266) 
This compound has an ester and may undergo hydrolysis at high or low pH.

>  <s_lp_Force_Field>  (266) 
OPLS3e

>  <r_lp_Energy>  (266) 
43.6262

>  <b_lp_Chiralities_Consistent>  (266) 
1

>  <s_lp_Variant>  (266) 
87:0-1

>  <s_i_glide_gridfile>  (266) 
pfpi4k_grid

>  <i_i_glide_lignum>  (266) 
39

>  <i_i_glide_rotatable_bonds>  (266) 
7

>  <r_i_docking_score>  (266) 
-3.78106

>  <r_i_glide_ligand_efficiency>  (266) 
-0.126035

>  <r_i_glide_ligand_efficiency_sa>  (266) 
-0.391621

>  <r_i_glide_ligand_efficiency_ln>  (266) 
-0.859098

>  <r_i_glide_gscore>  (266) 
-3.78106

>  <r_i_glide_lipo>  (266) 
-0.61892

>  <r_i_glide_hbond>  (266) 
-0.604464

>  <r_i_glide_metal>  (266) 
-0

>  <r_i_glide_rewards>  (266) 
-0.515209

>  <r_i_glide_evdw>  (266) 
-20.6527

>  <r_i_glide_ecoul>  (266) 
-7.4657

>  <r_i_glide_erotb>  (266) 
0.110025

>  <r_i_glide_esite>  (266) 
0

>  <r_i_glide_emodel>  (266) 
-34.7929

>  <r_i_glide_energy>  (266) 
-28.1184

>  <r_i_glide_einternal>  (266) 
1.07241

>  <r_i_glide_intrahb_reward>  (266) 
-0

>  <i_i_glide_confnum>  (266) 
4

>  <i_i_glide_posenum>  (266) 
34

>  <r_i_glide_eff_state_penalty>  (266) 
0

>  <ligand_id>  (266) 
87

>  <original_smiles>  (266) 
CC(=O)OC1CCC(C)(O)C2C(O)C3(C)C4=CC(O)C(C)(C)C4C(O)C(O)C3C12C

>  <smiles>  (266) 
[H]OC1([H])C([H])=C2C([H])(C([H])(O[H])C([H])(O[H])C3([H])C2(C([H])([H])[H])C([H])(O[H])C2([H])C(O[H])(C([H])([H])[H])C([H])([H])C([H])([H])C([H])(OC(=O)C([H])([H])[H])C23C([H])([H])[H])C1(C([H])([H])[H])C([H])([H])[H]

$$$$
87:0:1
     RDKit          3D

 66 69  0  0  1  0  0  0  0  0999 V2000
    4.9224   -0.8990    4.0642 C   0  0  0  0  0  0  0  0  0  0  0  0
    3.8217   -1.9365    3.8691 C   0  0  0  0  0  0  0  0  0  0  0  0
    2.9287   -2.0492    4.7123 O   0  0  0  0  0  0  0  0  0  0  0  0
    3.8609   -2.7072    2.7663 O   0  0  0  0  0  0  0  0  0  0  0  0
    4.9116   -2.6553    1.8123 C   0  0  2  0  0  0  0  0  0  0  0  0
    4.6772   -1.4487    0.8816 C   0  0  0  0  0  0  0  0  0  0  0  0
    3.4965   -1.6676   -0.0594 C   0  0  0  0  0  0  0  0  0  0  0  0
    3.6879   -2.9098   -0.9371 C   0  0  1  0  0  0  0  0  0  0  0  0
    2.5196   -3.0364   -1.9309 C   0  0  0  0  0  0  0  0  0  0  0  0
    4.8023   -2.6506   -1.7789 O   0  0  0  0  0  0  0  0  0  0  0  0
    3.9810   -4.1934   -0.0851 C   0  0  2  0  0  0  0  0  0  0  0  0
    2.7983   -4.8116    0.7132 C   0  0  1  0  0  0  0  0  0  0  0  0
    1.8252   -5.4467   -0.1073 O   0  0  0  0  0  0  0  0  0  0  0  0
    3.4496   -5.7957    1.7419 C   0  0  2  0  0  0  0  0  0  0  0  0
    3.4660   -7.2507    1.2169 C   0  0  0  0  0  0  0  0  0  0  0  0
    2.7406   -5.8415    3.0921 C   0  0  0  0  0  0  0  0  0  0  0  0
    1.5463   -5.3679    3.4317 C   0  0  0  0  0  0  0  0  0  0  0  0
    1.2579   -5.5554    4.8922 C   0  0  1  0  0  0  0  0  0  0  0  0
   -0.0824   -5.9565    5.1140 O   0  0  0  0  0  0  0  0  0  0  0  0
    2.3411   -6.5819    5.3430 C   0  0  0  0  0  0  0  0  0  0  0  0
    2.7486   -6.3540    6.8093 C   0  0  0  0  0  0  0  0  0  0  0  0
    1.8094   -8.0344    5.2259 C   0  0  0  0  0  0  0  0  0  0  0  0
    3.4858   -6.4256    4.2730 C   0  0  2  0  0  0  0  0  0  0  0  0
    4.6699   -5.4669    4.5335 C   0  0  1  0  0  0  0  0  0  0  0  0
    5.4824   -5.8757    5.6259 O   0  0  0  0  0  0  0  0  0  0  0  0
    5.5923   -5.3146    3.2859 C   0  0  1  0  0  0  0  0  0  0  0  0
    6.5390   -6.3736    3.2790 O   0  0  0  0  0  0  0  0  0  0  0  0
    4.9156   -5.2870    1.8751 C   0  0  2  0  0  0  0  0  0  0  0  0
    5.0800   -3.9970    1.0151 C   0  0  2  0  0  0  0  0  0  0  0  0
    6.5112   -3.9801    0.4298 C   0  0  0  0  0  0  0  0  0  0  0  0
    5.8414   -1.1492    3.5818 H   0  0  0  0  0  0  0  0  0  0  0  0
    5.1108   -0.7297    5.1239 H   0  0  0  0  0  0  0  0  0  0  0  0
    4.5939    0.0678    3.6944 H   0  0  0  0  0  0  0  0  0  0  0  0
    5.8214   -2.5132    2.3712 H   0  0  0  0  0  0  0  0  0  0  0  0
    4.4836   -0.5469    1.4549 H   0  0  0  0  0  0  0  0  0  0  0  0
    5.5748   -1.2466    0.3017 H   0  0  0  0  0  0  0  0  0  0  0  0
    2.5849   -1.7644    0.5287 H   0  0  0  0  0  0  0  0  0  0  0  0
    3.3583   -0.7713   -0.6700 H   0  0  0  0  0  0  0  0  0  0  0  0
    1.5658   -3.1299   -1.4061 H   0  0  0  0  0  0  0  0  0  0  0  0
    2.6334   -3.8712   -2.6154 H   0  0  0  0  0  0  0  0  0  0  0  0
    2.4475   -2.1424   -2.5515 H   0  0  0  0  0  0  0  0  0  0  0  0
    4.5649   -1.9560   -2.3757 H   0  0  0  0  0  0  0  0  0  0  0  0
    4.3273   -4.9606   -0.7806 H   0  0  0  0  0  0  0  0  0  0  0  0
    2.2799   -4.0058    1.2377 H   0  0  0  0  0  0  0  0  0  0  0  0
    2.2761   -5.7378   -0.8942 H   0  0  0  0  0  0  0  0  0  0  0  0
    3.8800   -7.3010    0.2093 H   0  0  0  0  0  0  0  0  0  0  0  0
    2.4563   -7.6699    1.1955 H   0  0  0  0  0  0  0  0  0  0  0  0
    4.0719   -7.9062    1.8442 H   0  0  0  0  0  0  0  0  0  0  0  0
    0.8478   -4.8744    2.7740 H   0  0  0  0  0  0  0  0  0  0  0  0
    1.4154   -4.5859    5.3652 H   0  0  0  0  0  0  0  0  0  0  0  0
   -0.1380   -6.8869    4.9508 H   0  0  0  0  0  0  0  0  0  0  0  0
    3.5166   -7.0566    7.1267 H   0  0  0  0  0  0  0  0  0  0  0  0
    1.8941   -6.4889    7.4725 H   0  0  0  0  0  0  0  0  0  0  0  0
    3.1264   -5.3457    6.9762 H   0  0  0  0  0  0  0  0  0  0  0  0
    2.5948   -8.7610    5.4495 H   0  0  0  0  0  0  0  0  0  0  0  0
    1.4535   -8.2557    4.2172 H   0  0  0  0  0  0  0  0  0  0  0  0
    0.9906   -8.2404    5.9206 H   0  0  0  0  0  0  0  0  0  0  0  0
    3.8916   -7.4034    4.0079 H   0  0  0  0  0  0  0  0  0  0  0  0
    4.2500   -4.4986    4.7967 H   0  0  0  0  0  0  0  0  0  0  0  0
    6.0753   -5.1736    5.8446 H   0  0  0  0  0  0  0  0  0  0  0  0
    6.1857   -4.4152    3.4229 H   0  0  0  0  0  0  0  0  0  0  0  0
    6.9791   -6.3624    4.1172 H   0  0  0  0  0  0  0  0  0  0  0  0
    5.4879   -6.0155    1.2947 H   0  0  0  0  0  0  0  0  0  0  0  0
    6.7036   -4.8217   -0.2280 H   0  0  0  0  0  0  0  0  0  0  0  0
    7.2411   -4.0127    1.2369 H   0  0  0  0  0  0  0  0  0  0  0  0
    6.7238   -3.0746   -0.1327 H   0  0  0  0  0  0  0  0  0  0  0  0
  1  2  1  0
  1 31  1  0
  1 32  1  0
  1 33  1  0
  2  3  2  0
  2  4  1  0
  4  5  1  0
  5 29  1  0
  5  6  1  0
  5 34  1  1
  6  7  1  0
  6 35  1  0
  6 36  1  0
  7  8  1  0
  7 37  1  0
  7 38  1  0
  8  9  1  0
  8 10  1  6
  8 11  1  0
  9 39  1  0
  9 40  1  0
  9 41  1  0
 10 42  1  0
 11 29  1  0
 11 12  1  0
 11 43  1  6
 12 13  1  0
 12 14  1  0
 12 44  1  1
 13 45  1  0
 14 28  1  0
 14 15  1  6
 14 16  1  0
 15 46  1  0
 15 47  1  0
 15 48  1  0
 16 23  1  0
 16 17  2  0
 17 18  1  0
 17 49  1  0
 18 19  1  0
 18 20  1  0
 18 50  1  1
 19 51  1  0
 20 21  1  0
 20 22  1  0
 20 23  1  0
 21 52  1  0
 21 53  1  0
 21 54  1  0
 22 55  1  0
 22 56  1  0
 22 57  1  0
 23 24  1  0
 23 58  1  6
 24 25  1  0
 24 26  1  0
 24 59  1  1
 25 60  1  0
 26 27  1  0
 26 28  1  0
 26 61  1  1
 27 62  1  0
 28 29  1  0
 28 63  1  6
 29 30  1  6
 30 64  1  0
 30 65  1  0
 30 66  1  0
M  END
>  <i_m_ct_stereo_status>  (267) 
1

>  <s_m_source_file>  (267) 
/var/tmp/pbs.5076255.sched01/tmpi5tju4vo/80qzp1lgse.sdf

>  <i_m_source_file_index>  (267) 
39

>  <i_lp_mmshare_version>  (267) 
48012

>  <i_f3d_flags>  (267) 
0

>  <s_epik_input>  (267) 
W0NIM11DKD1PKU9bQ0BASF0xW0NIMl1bQ0gyXVtDQEBdKFtDSDNdKShbT0hdKVtDQEhdKFtDQEhdMltPSF0pW0NAXTEoW0NIM10pW0NASF0zW0NASF0oW09IXSlbQ0BIXShbT0hdKVtDQEhdKEM9NFtDQEBdMjNbQ0gzXSlDKFtDSDNdKShbQ0gzXSlbQ0BASF0oW0NIXTQpW09IXQ==

>  <s_epik_cmdline>  (267) 
J2VwaWtfcHl0aG9uJywgJy1waHQnLCAnMi4wJywgJy1waCcsICc3LjAnLCAnLXRuJywgJzgnLCAnLW1hJywgJzIwMCcsICctaW1hZScsICc8aW5maWxlLm1hZT4nLCAnLW9tYWUnLCAnPG91dGZpbGUubWFlPic=

>  <r_lp_tautomer_probability>  (267) 
1

>  <r_epik_Ionization_Penalty>  (267) 
1.01182e-06

>  <r_epik_Ionization_Penalty_Charging>  (267) 
0

>  <r_epik_Ionization_Penalty_Neutral>  (267) 
1.01182e-06

>  <r_epik_State_Penalty>  (267) 
-0

>  <r_epik_Charging_Adjusted_Penalty>  (267) 
0

>  <i_epik_Tot_Q>  (267) 
0

>  <i_epik_Tot_abs_Q>  (267) 
0

>  <s_epik_Chemistry_Notes>  (267) 
This compound has an ester and may undergo hydrolysis at high or low pH.

>  <s_lp_Force_Field>  (267) 
OPLS3e

>  <r_lp_Energy>  (267) 
43.6262

>  <b_lp_Chiralities_Consistent>  (267) 
1

>  <s_lp_Variant>  (267) 
87:0-1

>  <s_i_glide_gridfile>  (267) 
pfpi4k_grid

>  <i_i_glide_lignum>  (267) 
39

>  <i_i_glide_rotatable_bonds>  (267) 
7

>  <r_i_docking_score>  (267) 
-3.22079

>  <r_i_glide_ligand_efficiency>  (267) 
-0.10736

>  <r_i_glide_ligand_efficiency_sa>  (267) 
-0.333592

>  <r_i_glide_ligand_efficiency_ln>  (267) 
-0.731799

>  <r_i_glide_gscore>  (267) 
-3.22079

>  <r_i_glide_lipo>  (267) 
-0.408078

>  <r_i_glide_hbond>  (267) 
-0.375702

>  <r_i_glide_metal>  (267) 
-0

>  <r_i_glide_rewards>  (267) 
-0.514752

>  <r_i_glide_evdw>  (267) 
-23.6664

>  <r_i_glide_ecoul>  (267) 
-5.65978

>  <r_i_glide_erotb>  (267) 
0.110025

>  <r_i_glide_esite>  (267) 
0

>  <r_i_glide_emodel>  (267) 
-32.027

>  <r_i_glide_energy>  (267) 
-29.3262

>  <r_i_glide_einternal>  (267) 
6.54539

>  <r_i_glide_intrahb_reward>  (267) 
-0

>  <i_i_glide_confnum>  (267) 
5

>  <i_i_glide_posenum>  (267) 
31

>  <r_i_glide_eff_state_penalty>  (267) 
0

>  <ligand_id>  (267) 
87

>  <original_smiles>  (267) 
CC(=O)OC1CCC(C)(O)C2C(O)C3(C)C4=CC(O)C(C)(C)C4C(O)C(O)C3C12C

>  <smiles>  (267) 
[H]OC1([H])C([H])=C2C([H])(C([H])(O[H])C([H])(O[H])C3([H])C2(C([H])([H])[H])C([H])(O[H])C2([H])C(O[H])(C([H])([H])[H])C([H])([H])C([H])([H])C([H])(OC(=O)C([H])([H])[H])C23C([H])([H])[H])C1(C([H])([H])[H])C([H])([H])[H]

$$$$
87:0:2
     RDKit          3D

 66 69  0  0  1  0  0  0  0  0999 V2000
    1.1908    5.4357    3.6203 C   0  0  0  0  0  0  0  0  0  0  0  0
    0.1783    4.4762    4.2497 C   0  0  0  0  0  0  0  0  0  0  0  0
   -0.9521    4.8530    4.5193 O   0  0  0  0  0  0  0  0  0  0  0  0
    0.5989    3.2122    4.5043 O   0  0  0  0  0  0  0  0  0  0  0  0
    1.9104    2.7486    4.2399 C   0  0  2  0  0  0  0  0  0  0  0  0
    1.9387    2.2213    2.7927 C   0  0  0  0  0  0  0  0  0  0  0  0
    1.1829    0.9002    2.6184 C   0  0  0  0  0  0  0  0  0  0  0  0
    1.7462   -0.1863    3.5510 C   0  0  1  0  0  0  0  0  0  0  0  0
    1.0113   -1.5153    3.3064 C   0  0  0  0  0  0  0  0  0  0  0  0
    3.0757   -0.4614    3.1377 O   0  0  0  0  0  0  0  0  0  0  0  0
    1.7999    0.2798    5.0529 C   0  0  2  0  0  0  0  0  0  0  0  0
    0.4452    0.3791    5.8120 C   0  0  1  0  0  0  0  0  0  0  0  0
   -0.1177   -0.8931    6.0964 O   0  0  0  0  0  0  0  0  0  0  0  0
    0.7371    1.1993    7.1063 C   0  0  2  0  0  0  0  0  0  0  0  0
    1.0195    0.2775    8.3254 C   0  0  0  0  0  0  0  0  0  0  0  0
   -0.3968    2.1316    7.5241 C   0  0  0  0  0  0  0  0  0  0  0  0
   -1.6646    2.1564    7.1048 C   0  0  0  0  0  0  0  0  0  0  0  0
   -2.4222    3.2973    7.7122 C   0  0  1  0  0  0  0  0  0  0  0  0
   -3.7155    2.8975    8.1072 O   0  0  0  0  0  0  0  0  0  0  0  0
   -1.5272    3.7530    8.8942 C   0  0  0  0  0  0  0  0  0  0  0  0
   -1.6892    5.2649    9.1468 C   0  0  0  0  0  0  0  0  0  0  0  0
   -1.9080    3.0172   10.2089 C   0  0  0  0  0  0  0  0  0  0  0  0
   -0.0948    3.2552    8.4904 C   0  0  2  0  0  0  0  0  0  0  0  0
    0.8613    4.2039    7.7324 C   0  0  1  0  0  0  0  0  0  0  0  0
    1.2028    5.3586    8.4849 O   0  0  0  0  0  0  0  0  0  0  0  0
    2.1642    3.4873    7.2685 C   0  0  1  0  0  0  0  0  0  0  0  0
    3.1038    3.5187    8.3371 O   0  0  0  0  0  0  0  0  0  0  0  0
    2.0346    2.0015    6.7594 C   0  0  2  0  0  0  0  0  0  0  0  0
    2.4205    1.6980    5.2756 C   0  0  2  0  0  0  0  0  0  0  0  0
    3.9618    1.6861    5.1698 C   0  0  0  0  0  0  0  0  0  0  0  0
    2.2051    5.2067    3.8416 H   0  0  0  0  0  0  0  0  0  0  0  0
    0.9671    6.4536    3.9399 H   0  0  0  0  0  0  0  0  0  0  0  0
    1.0534    5.4424    2.5463 H   0  0  0  0  0  0  0  0  0  0  0  0
    2.5803    3.5688    4.3259 H   0  0  0  0  0  0  0  0  0  0  0  0
    1.5128    2.9578    2.1193 H   0  0  0  0  0  0  0  0  0  0  0  0
    2.9686    2.0921    2.4730 H   0  0  0  0  0  0  0  0  0  0  0  0
    0.1250    1.0690    2.8337 H   0  0  0  0  0  0  0  0  0  0  0  0
    1.2240    0.5883    1.5678 H   0  0  0  0  0  0  0  0  0  0  0  0
   -0.0636   -1.4070    3.4639 H   0  0  0  0  0  0  0  0  0  0  0  0
    1.3903   -2.3080    3.9578 H   0  0  0  0  0  0  0  0  0  0  0  0
    1.1474   -1.8385    2.2741 H   0  0  0  0  0  0  0  0  0  0  0  0
    3.0812   -0.6713    2.2143 H   0  0  0  0  0  0  0  0  0  0  0  0
    2.4114   -0.4525    5.5948 H   0  0  0  0  0  0  0  0  0  0  0  0
   -0.2681    0.9037    5.1673 H   0  0  0  0  0  0  0  0  0  0  0  0
   -0.1016   -1.3866    5.2907 H   0  0  0  0  0  0  0  0  0  0  0  0
    1.7643   -0.4901    8.0931 H   0  0  0  0  0  0  0  0  0  0  0  0
    0.1104   -0.2263    8.6551 H   0  0  0  0  0  0  0  0  0  0  0  0
    1.3924    0.8435    9.1793 H   0  0  0  0  0  0  0  0  0  0  0  0
   -2.1122    1.4837    6.3934 H   0  0  0  0  0  0  0  0  0  0  0  0
   -2.5172    4.0760    6.9578 H   0  0  0  0  0  0  0  0  0  0  0  0
   -4.0049    3.4559    8.8118 H   0  0  0  0  0  0  0  0  0  0  0  0
   -1.0452    5.6007    9.9609 H   0  0  0  0  0  0  0  0  0  0  0  0
   -2.7150    5.5108    9.4291 H   0  0  0  0  0  0  0  0  0  0  0  0
   -1.4468    5.8527    8.2625 H   0  0  0  0  0  0  0  0  0  0  0  0
   -1.2163    3.2706   11.0141 H   0  0  0  0  0  0  0  0  0  0  0  0
   -1.8685    1.9353   10.0872 H   0  0  0  0  0  0  0  0  0  0  0  0
   -2.9069    3.2732   10.5671 H   0  0  0  0  0  0  0  0  0  0  0  0
    0.4248    2.8614    9.3654 H   0  0  0  0  0  0  0  0  0  0  0  0
    0.3254    4.5822    6.8688 H   0  0  0  0  0  0  0  0  0  0  0  0
    1.6430    5.0824    9.2749 H   0  0  0  0  0  0  0  0  0  0  0  0
    2.6196    4.0947    6.4931 H   0  0  0  0  0  0  0  0  0  0  0  0
    2.7897    2.9730    9.0404 H   0  0  0  0  0  0  0  0  0  0  0  0
    2.8189    1.4656    7.3063 H   0  0  0  0  0  0  0  0  0  0  0  0
    4.4346    0.9167    5.7809 H   0  0  0  0  0  0  0  0  0  0  0  0
    4.3634    2.6466    5.4906 H   0  0  0  0  0  0  0  0  0  0  0  0
    4.3139    1.5488    4.1503 H   0  0  0  0  0  0  0  0  0  0  0  0
  1  2  1  0
  1 31  1  0
  1 32  1  0
  1 33  1  0
  2  3  2  0
  2  4  1  0
  4  5  1  0
  5 29  1  0
  5  6  1  0
  5 34  1  6
  6  7  1  0
  6 35  1  0
  6 36  1  0
  7  8  1  0
  7 37  1  0
  7 38  1  0
  8  9  1  0
  8 10  1  6
  8 11  1  0
  9 39  1  0
  9 40  1  0
  9 41  1  0
 10 42  1  0
 11 29  1  0
 11 12  1  0
 11 43  1  1
 12 13  1  0
 12 14  1  0
 12 44  1  6
 13 45  1  0
 14 28  1  0
 14 15  1  1
 14 16  1  0
 15 46  1  0
 15 47  1  0
 15 48  1  0
 16 23  1  0
 16 17  2  0
 17 18  1  0
 17 49  1  0
 18 19  1  0
 18 20  1  0
 18 50  1  6
 19 51  1  0
 20 21  1  0
 20 22  1  0
 20 23  1  0
 21 52  1  0
 21 53  1  0
 21 54  1  0
 22 55  1  0
 22 56  1  0
 22 57  1  0
 23 24  1  0
 23 58  1  1
 24 25  1  0
 24 26  1  0
 24 59  1  6
 25 60  1  0
 26 27  1  0
 26 28  1  0
 26 61  1  6
 27 62  1  0
 28 29  1  0
 28 63  1  1
 29 30  1  1
 30 64  1  0
 30 65  1  0
 30 66  1  0
M  END
>  <i_m_ct_stereo_status>  (268) 
1

>  <s_m_source_file>  (268) 
/var/tmp/pbs.5076255.sched01/tmpi5tju4vo/80qzp1lgse.sdf

>  <i_m_source_file_index>  (268) 
39

>  <i_lp_mmshare_version>  (268) 
48012

>  <i_f3d_flags>  (268) 
0

>  <s_epik_input>  (268) 
W0NIM11DKD1PKU9bQ0BASF0xW0NIMl1bQ0gyXVtDQEBdKFtDSDNdKShbT0hdKVtDQEhdKFtDQEhdMltPSF0pW0NAXTEoW0NIM10pW0NASF0zW0NASF0oW09IXSlbQ0BIXShbT0hdKVtDQEhdKEM9NFtDQEBdMjNbQ0gzXSlDKFtDSDNdKShbQ0gzXSlbQ0BASF0oW0NIXTQpW09IXQ==

>  <s_epik_cmdline>  (268) 
J2VwaWtfcHl0aG9uJywgJy1waHQnLCAnMi4wJywgJy1waCcsICc3LjAnLCAnLXRuJywgJzgnLCAnLW1hJywgJzIwMCcsICctaW1hZScsICc8aW5maWxlLm1hZT4nLCAnLW9tYWUnLCAnPG91dGZpbGUubWFlPic=

>  <r_lp_tautomer_probability>  (268) 
1

>  <r_epik_Ionization_Penalty>  (268) 
1.01182e-06

>  <r_epik_Ionization_Penalty_Charging>  (268) 
0

>  <r_epik_Ionization_Penalty_Neutral>  (268) 
1.01182e-06

>  <r_epik_State_Penalty>  (268) 
-0

>  <r_epik_Charging_Adjusted_Penalty>  (268) 
0

>  <i_epik_Tot_Q>  (268) 
0

>  <i_epik_Tot_abs_Q>  (268) 
0

>  <s_epik_Chemistry_Notes>  (268) 
This compound has an ester and may undergo hydrolysis at high or low pH.

>  <s_lp_Force_Field>  (268) 
OPLS3e

>  <r_lp_Energy>  (268) 
43.6262

>  <b_lp_Chiralities_Consistent>  (268) 
1

>  <s_lp_Variant>  (268) 
87:0-1

>  <s_i_glide_gridfile>  (268) 
pfpi4k_grid

>  <i_i_glide_lignum>  (268) 
39

>  <i_i_glide_rotatable_bonds>  (268) 
7

>  <r_i_docking_score>  (268) 
-2.76779

>  <r_i_glide_ligand_efficiency>  (268) 
-0.0922596

>  <r_i_glide_ligand_efficiency_sa>  (268) 
-0.286672

>  <r_i_glide_ligand_efficiency_ln>  (268) 
-0.628871

>  <r_i_glide_gscore>  (268) 
-2.76779

>  <r_i_glide_lipo>  (268) 
-0.0896802

>  <r_i_glide_hbond>  (268) 
-0.0524025

>  <r_i_glide_metal>  (268) 
-0

>  <r_i_glide_rewards>  (268) 
-0.514584

>  <r_i_glide_evdw>  (268) 
-23.9254

>  <r_i_glide_ecoul>  (268) 
-6.43785

>  <r_i_glide_erotb>  (268) 
0.110025

>  <r_i_glide_esite>  (268) 
-0.0591968

>  <r_i_glide_emodel>  (268) 
-32.3

>  <r_i_glide_energy>  (268) 
-30.3633

>  <r_i_glide_einternal>  (268) 
6.24006

>  <r_i_glide_intrahb_reward>  (268) 
-0

>  <i_i_glide_confnum>  (268) 
1

>  <i_i_glide_posenum>  (268) 
24

>  <r_i_glide_eff_state_penalty>  (268) 
0

>  <ligand_id>  (268) 
87

>  <original_smiles>  (268) 
CC(=O)OC1CCC(C)(O)C2C(O)C3(C)C4=CC(O)C(C)(C)C4C(O)C(O)C3C12C

>  <smiles>  (268) 
[H]OC1([H])C([H])=C2C([H])(C([H])(O[H])C([H])(O[H])C3([H])C2(C([H])([H])[H])C([H])(O[H])C2([H])C(O[H])(C([H])([H])[H])C([H])([H])C([H])([H])C([H])(OC(=O)C([H])([H])[H])C23C([H])([H])[H])C1(C([H])([H])[H])C([H])([H])[H]

$$$$
88:0:0
     RDKit          3D

 23 25  0  0  1  0  0  0  0  0999 V2000
    6.6938   -3.8002   -0.0626 C   0  0  0  0  0  0  0  0  0  0  0  0
    5.5640   -3.4094   -0.8069 C   0  0  0  0  0  0  0  0  0  0  0  0
    4.3358   -4.0557   -0.5655 C   0  0  0  0  0  0  0  0  0  0  0  0
    4.2843   -5.0827    0.4059 C   0  0  0  0  0  0  0  0  0  0  0  0
    3.0410   -5.8013    0.7067 C   0  0  0  0  0  0  0  0  0  0  0  0
    2.8670   -6.8330    1.5407 N   0  0  0  0  0  0  0  0  0  0  0  0
    1.5331   -7.0500    1.3955 C   0  0  0  0  0  0  0  0  0  0  0  0
    0.8642   -8.1088    2.1409 C   0  0  0  0  0  0  0  0  0  0  0  0
    1.3422   -9.1546    2.8811 C   0  0  0  0  0  0  0  0  0  0  0  0
    0.2029   -9.8558    3.3607 C   0  0  0  0  0  0  0  0  0  0  0  0
   -0.8850   -9.1825    2.8808 C   0  0  0  0  0  0  0  0  0  0  0  0
   -0.5010   -8.1157    2.1317 O   0  0  0  0  0  0  0  0  0  0  0  0
    0.8669   -6.2581    0.5675 N   0  0  0  0  0  0  0  0  0  0  0  0
    1.8879   -5.4187    0.0821 O   0  0  0  0  0  0  0  0  0  0  0  0
    5.3746   -5.4550    1.1150 N   0  0  0  0  0  0  0  0  0  0  0  0
    6.5445   -4.8286    0.8856 C   0  0  0  0  0  0  0  0  0  0  0  0
    7.6567   -3.3348   -0.2175 H   0  0  0  0  0  0  0  0  0  0  0  0
    5.6434   -2.6294   -1.5518 H   0  0  0  0  0  0  0  0  0  0  0  0
    3.4589   -3.7739   -1.1314 H   0  0  0  0  0  0  0  0  0  0  0  0
    2.3837   -9.3894    3.0504 H   0  0  0  0  0  0  0  0  0  0  0  0
    0.1705  -10.7387    3.9832 H   0  0  0  0  0  0  0  0  0  0  0  0
   -1.9502   -9.3315    2.9760 H   0  0  0  0  0  0  0  0  0  0  0  0
    7.3867   -5.1607    1.4756 H   0  0  0  0  0  0  0  0  0  0  0  0
  1 16  2  0
  1  2  1  0
  1 17  1  0
  2  3  2  0
  2 18  1  0
  3  4  1  0
  3 19  1  0
  4  5  1  0
  4 15  2  0
  5 14  1  0
  5  6  2  0
  6  7  1  0
  7  8  1  0
  7 13  2  0
  8 12  1  0
  8  9  2  0
  9 10  1  0
  9 20  1  0
 10 11  2  0
 10 21  1  0
 11 12  1  0
 11 22  1  0
 13 14  1  0
 15 16  1  0
 16 23  1  0
M  END
>  <i_m_ct_stereo_status>  (269) 
1

>  <s_m_source_file>  (269) 
/var/tmp/pbs.5076255.sched01/tmpi5tju4vo/80qzp1lgse.sdf

>  <i_m_source_file_index>  (269) 
40

>  <i_lp_mmshare_version>  (269) 
48012

>  <i_f3d_flags>  (269) 
0

>  <s_epik_input>  (269) 
bjFbY0hdW2NIXVtjSF1bY0hdYzEtYzJuYyhubzIpLWMzW2NIXVtjSF1bY0hdbzM=

>  <s_epik_cmdline>  (269) 
J2VwaWtfcHl0aG9uJywgJy1waHQnLCAnMi4wJywgJy1waCcsICc3LjAnLCAnLXRuJywgJzgnLCAnLW1hJywgJzIwMCcsICctaW1hZScsICc8aW5maWxlLm1hZT4nLCAnLW9tYWUnLCAnPG91dGZpbGUubWFlPic=

>  <r_lp_tautomer_probability>  (269) 
1

>  <r_epik_Ionization_Penalty>  (269) 
4.81586e-05

>  <r_epik_Ionization_Penalty_Charging>  (269) 
0

>  <r_epik_Ionization_Penalty_Neutral>  (269) 
4.81586e-05

>  <r_epik_State_Penalty>  (269) 
-0

>  <r_epik_Charging_Adjusted_Penalty>  (269) 
0

>  <i_epik_Tot_Q>  (269) 
0

>  <i_epik_Tot_abs_Q>  (269) 
0

>  <s_lp_Force_Field>  (269) 
OPLS3e

>  <r_lp_Energy>  (269) 
16.8085

>  <b_lp_Chiralities_Consistent>  (269) 
1

>  <s_lp_Variant>  (269) 
88:0-1

>  <s_i_glide_gridfile>  (269) 
pfpi4k_grid

>  <i_i_glide_lignum>  (269) 
40

>  <i_i_glide_rotatable_bonds>  (269) 
2

>  <r_i_docking_score>  (269) 
-3.4443

>  <r_i_glide_ligand_efficiency>  (269) 
-0.215269

>  <r_i_glide_ligand_efficiency_sa>  (269) 
-0.542444

>  <r_i_glide_ligand_efficiency_ln>  (269) 
-0.912982

>  <r_i_glide_gscore>  (269) 
-3.4443

>  <r_i_glide_lipo>  (269) 
-0.335824

>  <r_i_glide_hbond>  (269) 
0

>  <r_i_glide_metal>  (269) 
-0

>  <r_i_glide_rewards>  (269) 
-1.95551

>  <r_i_glide_evdw>  (269) 
-20.5323

>  <r_i_glide_ecoul>  (269) 
-4.12353

>  <r_i_glide_erotb>  (269) 
0.733861

>  <r_i_glide_esite>  (269) 
-0.241691

>  <r_i_glide_emodel>  (269) 
-29.858

>  <r_i_glide_energy>  (269) 
-24.6558

>  <r_i_glide_einternal>  (269) 
2.07235

>  <r_i_glide_intrahb_reward>  (269) 
-0

>  <i_i_glide_confnum>  (269) 
4

>  <i_i_glide_posenum>  (269) 
2

>  <r_i_glide_eff_state_penalty>  (269) 
0

>  <ligand_id>  (269) 
88

>  <original_smiles>  (269) 
c1ccc(-c2nc(-c3ccco3)no2)nc1

>  <smiles>  (269) 
[H]c1nc(-c2nc(-c3oc([H])c([H])c3[H])no2)c([H])c([H])c1[H]

$$$$
88:0:1
     RDKit          3D

 23 25  0  0  1  0  0  0  0  0999 V2000
   -1.1610   -8.7351    3.2230 C   0  0  0  0  0  0  0  0  0  0  0  0
    0.0742   -9.4050    3.2086 C   0  0  0  0  0  0  0  0  0  0  0  0
    1.1792   -8.7612    2.6189 C   0  0  0  0  0  0  0  0  0  0  0  0
    1.0043   -7.4718    2.0622 C   0  0  0  0  0  0  0  0  0  0  0  0
    2.1156   -6.7494    1.4353 C   0  0  0  0  0  0  0  0  0  0  0  0
    2.0796   -5.5581    0.8290 N   0  0  0  0  0  0  0  0  0  0  0  0
    3.3819   -5.4337    0.4553 C   0  0  0  0  0  0  0  0  0  0  0  0
    3.8426   -4.2500   -0.2694 C   0  0  0  0  0  0  0  0  0  0  0  0
    3.2296   -3.0721   -0.6050 C   0  0  0  0  0  0  0  0  0  0  0  0
    4.1869   -2.2992   -1.3182 C   0  0  0  0  0  0  0  0  0  0  0  0
    5.3175   -3.0630   -1.3697 C   0  0  0  0  0  0  0  0  0  0  0  0
    5.1290   -4.2504   -0.7290 O   0  0  0  0  0  0  0  0  0  0  0  0
    4.2036   -6.4255    0.7681 N   0  0  0  0  0  0  0  0  0  0  0  0
    3.3515   -7.3223    1.4330 O   0  0  0  0  0  0  0  0  0  0  0  0
   -0.1911   -6.8289    2.0805 N   0  0  0  0  0  0  0  0  0  0  0  0
   -1.2395   -7.4592    2.6464 C   0  0  0  0  0  0  0  0  0  0  0  0
   -2.0292   -9.1948    3.6723 H   0  0  0  0  0  0  0  0  0  0  0  0
    0.1653  -10.3886    3.6458 H   0  0  0  0  0  0  0  0  0  0  0  0
    2.1364   -9.2607    2.5942 H   0  0  0  0  0  0  0  0  0  0  0  0
    2.2144   -2.7976   -0.3629 H   0  0  0  0  0  0  0  0  0  0  0  0
    4.0556   -1.3108   -1.7355 H   0  0  0  0  0  0  0  0  0  0  0  0
    6.2991   -2.9243   -1.7962 H   0  0  0  0  0  0  0  0  0  0  0  0
   -2.1755   -6.9232    2.6380 H   0  0  0  0  0  0  0  0  0  0  0  0
  1 16  2  0
  1  2  1  0
  1 17  1  0
  2  3  2  0
  2 18  1  0
  3  4  1  0
  3 19  1  0
  4  5  1  0
  4 15  2  0
  5 14  1  0
  5  6  2  0
  6  7  1  0
  7  8  1  0
  7 13  2  0
  8 12  1  0
  8  9  2  0
  9 10  1  0
  9 20  1  0
 10 11  2  0
 10 21  1  0
 11 12  1  0
 11 22  1  0
 13 14  1  0
 15 16  1  0
 16 23  1  0
M  END
>  <i_m_ct_stereo_status>  (270) 
1

>  <s_m_source_file>  (270) 
/var/tmp/pbs.5076255.sched01/tmpi5tju4vo/80qzp1lgse.sdf

>  <i_m_source_file_index>  (270) 
40

>  <i_lp_mmshare_version>  (270) 
48012

>  <i_f3d_flags>  (270) 
0

>  <s_epik_input>  (270) 
bjFbY0hdW2NIXVtjSF1bY0hdYzEtYzJuYyhubzIpLWMzW2NIXVtjSF1bY0hdbzM=

>  <s_epik_cmdline>  (270) 
J2VwaWtfcHl0aG9uJywgJy1waHQnLCAnMi4wJywgJy1waCcsICc3LjAnLCAnLXRuJywgJzgnLCAnLW1hJywgJzIwMCcsICctaW1hZScsICc8aW5maWxlLm1hZT4nLCAnLW9tYWUnLCAnPG91dGZpbGUubWFlPic=

>  <r_lp_tautomer_probability>  (270) 
1

>  <r_epik_Ionization_Penalty>  (270) 
4.81586e-05

>  <r_epik_Ionization_Penalty_Charging>  (270) 
0

>  <r_epik_Ionization_Penalty_Neutral>  (270) 
4.81586e-05

>  <r_epik_State_Penalty>  (270) 
-0

>  <r_epik_Charging_Adjusted_Penalty>  (270) 
0

>  <i_epik_Tot_Q>  (270) 
0

>  <i_epik_Tot_abs_Q>  (270) 
0

>  <s_lp_Force_Field>  (270) 
OPLS3e

>  <r_lp_Energy>  (270) 
16.8085

>  <b_lp_Chiralities_Consistent>  (270) 
1

>  <s_lp_Variant>  (270) 
88:0-1

>  <s_i_glide_gridfile>  (270) 
pfpi4k_grid

>  <i_i_glide_lignum>  (270) 
40

>  <i_i_glide_rotatable_bonds>  (270) 
2

>  <r_i_docking_score>  (270) 
-3.11367

>  <r_i_glide_ligand_efficiency>  (270) 
-0.194604

>  <r_i_glide_ligand_efficiency_sa>  (270) 
-0.490372

>  <r_i_glide_ligand_efficiency_ln>  (270) 
-0.825341

>  <r_i_glide_gscore>  (270) 
-3.11367

>  <r_i_glide_lipo>  (270) 
-0.0462161

>  <r_i_glide_hbond>  (270) 
-0.158846

>  <r_i_glide_metal>  (270) 
-0

>  <r_i_glide_rewards>  (270) 
-1.95551

>  <r_i_glide_evdw>  (270) 
-22.1769

>  <r_i_glide_ecoul>  (270) 
-3.75977

>  <r_i_glide_erotb>  (270) 
0.733861

>  <r_i_glide_esite>  (270) 
-0.0141517

>  <r_i_glide_emodel>  (270) 
-30.6388

>  <r_i_glide_energy>  (270) 
-25.9367

>  <r_i_glide_einternal>  (270) 
1.89978

>  <r_i_glide_intrahb_reward>  (270) 
-0

>  <i_i_glide_confnum>  (270) 
4

>  <i_i_glide_posenum>  (270) 
22

>  <r_i_glide_eff_state_penalty>  (270) 
0

>  <ligand_id>  (270) 
88

>  <original_smiles>  (270) 
c1ccc(-c2nc(-c3ccco3)no2)nc1

>  <smiles>  (270) 
[H]c1nc(-c2nc(-c3oc([H])c([H])c3[H])no2)c([H])c([H])c1[H]

$$$$
88:0:2
     RDKit          3D

 23 25  0  0  1  0  0  0  0  0999 V2000
   -1.2366   -8.8956    3.1106 C   0  0  0  0  0  0  0  0  0  0  0  0
    0.0020   -9.5570    3.0738 C   0  0  0  0  0  0  0  0  0  0  0  0
    1.1080   -8.8827    2.5236 C   0  0  0  0  0  0  0  0  0  0  0  0
    0.9305   -7.5703    2.0273 C   0  0  0  0  0  0  0  0  0  0  0  0
    2.0416   -6.8186    1.4386 C   0  0  0  0  0  0  0  0  0  0  0  0
    1.9809   -5.6601    0.7759 N   0  0  0  0  0  0  0  0  0  0  0  0
    3.2958   -5.4768    0.4797 C   0  0  0  0  0  0  0  0  0  0  0  0
    3.7490   -4.2995   -0.2593 C   0  0  0  0  0  0  0  0  0  0  0  0
    4.9834   -3.8640   -0.6644 C   0  0  0  0  0  0  0  0  0  0  0  0
    4.7722   -2.6383   -1.3585 C   0  0  0  0  0  0  0  0  0  0  0  0
    3.4250   -2.4169   -1.3279 C   0  0  0  0  0  0  0  0  0  0  0  0
    2.7881   -3.4186   -0.6632 O   0  0  0  0  0  0  0  0  0  0  0  0
    4.1471   -6.4091    0.8814 N   0  0  0  0  0  0  0  0  0  0  0  0
    3.3021   -7.3276    1.5255 O   0  0  0  0  0  0  0  0  0  0  0  0
   -0.2666   -6.9322    2.0721 N   0  0  0  0  0  0  0  0  0  0  0  0
   -1.3155   -7.5935    2.5986 C   0  0  0  0  0  0  0  0  0  0  0  0
   -2.1056   -9.3785    3.5328 H   0  0  0  0  0  0  0  0  0  0  0  0
    0.0928  -10.5604    3.4637 H   0  0  0  0  0  0  0  0  0  0  0  0
    2.0657   -9.3788    2.4785 H   0  0  0  0  0  0  0  0  0  0  0  0
    5.9179   -4.3735   -0.4817 H   0  0  0  0  0  0  0  0  0  0  0  0
    5.5080   -1.9979   -1.8208 H   0  0  0  0  0  0  0  0  0  0  0  0
    2.7776   -1.6360   -1.7031 H   0  0  0  0  0  0  0  0  0  0  0  0
   -2.2506   -7.0578    2.6151 H   0  0  0  0  0  0  0  0  0  0  0  0
  1 16  2  0
  1  2  1  0
  1 17  1  0
  2  3  2  0
  2 18  1  0
  3  4  1  0
  3 19  1  0
  4  5  1  0
  4 15  2  0
  5 14  1  0
  5  6  2  0
  6  7  1  0
  7  8  1  0
  7 13  2  0
  8 12  1  0
  8  9  2  0
  9 10  1  0
  9 20  1  0
 10 11  2  0
 10 21  1  0
 11 12  1  0
 11 22  1  0
 13 14  1  0
 15 16  1  0
 16 23  1  0
M  END
>  <i_m_ct_stereo_status>  (271) 
1

>  <s_m_source_file>  (271) 
/var/tmp/pbs.5076255.sched01/tmpi5tju4vo/80qzp1lgse.sdf

>  <i_m_source_file_index>  (271) 
40

>  <i_lp_mmshare_version>  (271) 
48012

>  <i_f3d_flags>  (271) 
0

>  <s_epik_input>  (271) 
bjFbY0hdW2NIXVtjSF1bY0hdYzEtYzJuYyhubzIpLWMzW2NIXVtjSF1bY0hdbzM=

>  <s_epik_cmdline>  (271) 
J2VwaWtfcHl0aG9uJywgJy1waHQnLCAnMi4wJywgJy1waCcsICc3LjAnLCAnLXRuJywgJzgnLCAnLW1hJywgJzIwMCcsICctaW1hZScsICc8aW5maWxlLm1hZT4nLCAnLW9tYWUnLCAnPG91dGZpbGUubWFlPic=

>  <r_lp_tautomer_probability>  (271) 
1

>  <r_epik_Ionization_Penalty>  (271) 
4.81586e-05

>  <r_epik_Ionization_Penalty_Charging>  (271) 
0

>  <r_epik_Ionization_Penalty_Neutral>  (271) 
4.81586e-05

>  <r_epik_State_Penalty>  (271) 
-0

>  <r_epik_Charging_Adjusted_Penalty>  (271) 
0

>  <i_epik_Tot_Q>  (271) 
0

>  <i_epik_Tot_abs_Q>  (271) 
0

>  <s_lp_Force_Field>  (271) 
OPLS3e

>  <r_lp_Energy>  (271) 
16.8085

>  <b_lp_Chiralities_Consistent>  (271) 
1

>  <s_lp_Variant>  (271) 
88:0-1

>  <s_i_glide_gridfile>  (271) 
pfpi4k_grid

>  <i_i_glide_lignum>  (271) 
40

>  <i_i_glide_rotatable_bonds>  (271) 
2

>  <r_i_docking_score>  (271) 
-3.10153

>  <r_i_glide_ligand_efficiency>  (271) 
-0.193846

>  <r_i_glide_ligand_efficiency_sa>  (271) 
-0.48846

>  <r_i_glide_ligand_efficiency_ln>  (271) 
-0.822122

>  <r_i_glide_gscore>  (271) 
-3.10153

>  <r_i_glide_lipo>  (271) 
-0.0473564

>  <r_i_glide_hbond>  (271) 
-0.159306

>  <r_i_glide_metal>  (271) 
-0

>  <r_i_glide_rewards>  (271) 
-1.95551

>  <r_i_glide_evdw>  (271) 
-22.0213

>  <r_i_glide_ecoul>  (271) 
-3.70455

>  <r_i_glide_erotb>  (271) 
0.733861

>  <r_i_glide_esite>  (271) 
-0.0164739

>  <r_i_glide_emodel>  (271) 
-30.4197

>  <r_i_glide_energy>  (271) 
-25.7258

>  <r_i_glide_einternal>  (271) 
1.87437

>  <r_i_glide_intrahb_reward>  (271) 
-0

>  <i_i_glide_confnum>  (271) 
2

>  <i_i_glide_posenum>  (271) 
1

>  <r_i_glide_eff_state_penalty>  (271) 
0

>  <ligand_id>  (271) 
88

>  <original_smiles>  (271) 
c1ccc(-c2nc(-c3ccco3)no2)nc1

>  <smiles>  (271) 
[H]c1nc(-c2nc(-c3oc([H])c([H])c3[H])no2)c([H])c([H])c1[H]

$$$$
89:0:0
     RDKit          3D

 42 46  0  0  1  0  0  0  0  0999 V2000
    3.8329   -0.2207    2.9436 C   0  0  0  0  0  0  0  0  0  0  0  0
    4.7144   -1.1853    2.1185 C   0  0  2  0  0  0  0  0  0  0  0  0
    4.7971   -0.6661    0.6929 C   0  0  0  0  0  0  0  0  0  0  0  0
    4.7606   -1.4762   -0.3724 C   0  0  0  0  0  0  0  0  0  0  0  0
    4.6177   -1.0424   -1.8178 C   0  0  0  0  0  0  0  0  0  0  0  0
    3.7419   -2.1341   -2.4535 C   0  0  0  0  0  0  0  0  0  0  0  0
    3.9940   -3.3404   -1.5749 C   0  0  1  0  0  0  0  0  0  0  0  0
    5.3762   -3.6388   -1.3655 O   0  0  0  0  0  0  0  0  0  0  0  0
    4.6946   -2.9513   -0.2948 C   0  0  1  0  0  0  0  0  0  0  0  0
    4.8252   -3.6397    1.1053 C   0  0  1  0  0  0  0  0  0  0  0  0
    6.3473   -3.7804    1.3547 C   0  0  0  0  0  0  0  0  0  0  0  0
    4.1817   -2.6600    2.1603 C   0  0  1  0  0  0  0  0  0  0  0  0
    4.2309   -3.2711    3.5690 C   0  0  0  0  0  0  0  0  0  0  0  0
    4.8165   -2.7550    4.5190 O   0  0  0  0  0  0  0  0  0  0  0  0
    3.5464   -4.6159    3.6951 C   0  0  0  0  0  0  0  0  0  0  0  0
    4.1639   -5.6114    2.7009 C   0  0  1  0  0  0  0  0  0  0  0  0
    3.4323   -6.9664    2.8868 C   0  0  0  0  0  0  0  0  0  0  0  0
    4.2042   -5.0790    1.2385 C   0  0  2  0  0  0  0  0  0  0  0  0
    4.1999   -6.0748    0.1108 C   0  0  0  0  0  0  0  0  0  0  0  0
    3.0152   -5.3210    0.4893 O   0  0  0  0  0  0  0  0  0  0  0  0
    4.2126    0.8001    2.8986 H   0  0  0  0  0  0  0  0  0  0  0  0
    3.7929   -0.4895    3.9978 H   0  0  0  0  0  0  0  0  0  0  0  0
    2.8092   -0.2042    2.5657 H   0  0  0  0  0  0  0  0  0  0  0  0
    5.7288   -1.1399    2.5185 H   0  0  0  0  0  0  0  0  0  0  0  0
    4.8117    0.4073    0.5509 H   0  0  0  0  0  0  0  0  0  0  0  0
    4.2160   -0.0360   -1.9319 H   0  0  0  0  0  0  0  0  0  0  0  0
    5.6059   -1.0734   -2.2714 H   0  0  0  0  0  0  0  0  0  0  0  0
    2.6837   -1.8705   -2.4091 H   0  0  0  0  0  0  0  0  0  0  0  0
    3.9932   -2.3385   -3.4942 H   0  0  0  0  0  0  0  0  0  0  0  0
    3.3185   -4.1834   -1.6546 H   0  0  0  0  0  0  0  0  0  0  0  0
    6.5809   -4.1426    2.3552 H   0  0  0  0  0  0  0  0  0  0  0  0
    6.8598   -2.8264    1.2212 H   0  0  0  0  0  0  0  0  0  0  0  0
    6.7875   -4.4837    0.6460 H   0  0  0  0  0  0  0  0  0  0  0  0
    3.1180   -2.6055    1.9173 H   0  0  0  0  0  0  0  0  0  0  0  0
    3.6502   -4.9791    4.7186 H   0  0  0  0  0  0  0  0  0  0  0  0
    2.4788   -4.4862    3.5120 H   0  0  0  0  0  0  0  0  0  0  0  0
    5.1951   -5.7881    3.0069 H   0  0  0  0  0  0  0  0  0  0  0  0
    2.3891   -6.9284    2.5633 H   0  0  0  0  0  0  0  0  0  0  0  0
    3.4212   -7.2508    3.9413 H   0  0  0  0  0  0  0  0  0  0  0  0
    3.9172   -7.7910    2.3642 H   0  0  0  0  0  0  0  0  0  0  0  0
    4.6506   -5.8295   -0.8409 H   0  0  0  0  0  0  0  0  0  0  0  0
    4.1634   -7.1369    0.3301 H   0  0  0  0  0  0  0  0  0  0  0  0
  1  2  1  0
  1 21  1  0
  1 22  1  0
  1 23  1  0
  2 12  1  0
  2  3  1  0
  2 24  1  1
  3  4  2  0
  3 25  1  0
  4  9  1  0
  4  5  1  0
  5  6  1  0
  5 26  1  0
  5 27  1  0
  6  7  1  0
  6 28  1  0
  6 29  1  0
  7  9  1  0
  7  8  1  0
  7 30  1  1
  9  8  1  6
  9 10  1  0
 10 18  1  0
 10 11  1  1
 10 12  1  0
 11 31  1  0
 11 32  1  0
 11 33  1  0
 12 13  1  0
 12 34  1  6
 13 14  2  0
 13 15  1  0
 15 16  1  0
 15 35  1  0
 15 36  1  0
 16 17  1  0
 16 18  1  0
 16 37  1  1
 17 38  1  0
 17 39  1  0
 17 40  1  0
 18 20  1  6
 18 19  1  0
 19 20  1  0
 19 41  1  0
 19 42  1  0
M  END
>  <i_m_ct_stereo_status>  (272) 
1

>  <s_m_source_file>  (272) 
/var/tmp/pbs.5076255.sched01/tmpebi1rvwe/120qlbjc4nh.sdf

>  <i_m_source_file_index>  (272) 
1

>  <i_lp_mmshare_version>  (272) 
48012

>  <i_f3d_flags>  (272) 
0

>  <s_epik_input>  (272) 
TzFbQ0BASF0yW0NIMl1bQ0gyXUMoW0NAXTEyMyk9W0NIXVtDQEBIXShbQ0gzXSlbQ0BIXTRbQ0BAXTMoW0NIM10pW0NAQF01KFtDSDJdTzUpW0NASF0oW0NIM10pW0NIMl1DND1P

>  <s_epik_cmdline>  (272) 
J2VwaWtfcHl0aG9uJywgJy1waHQnLCAnMi4wJywgJy1waCcsICc3LjAnLCAnLXRuJywgJzgnLCAnLW1hJywgJzIwMCcsICctaW1hZScsICc8aW5maWxlLm1hZT4nLCAnLW9tYWUnLCAnPG91dGZpbGUubWFlPic=

>  <r_lp_tautomer_probability>  (272) 
1

>  <r_epik_Ionization_Penalty>  (272) 
1.42639e-11

>  <r_epik_Ionization_Penalty_Charging>  (272) 
0

>  <r_epik_Ionization_Penalty_Neutral>  (272) 
1.42639e-11

>  <r_epik_State_Penalty>  (272) 
-0

>  <r_epik_Charging_Adjusted_Penalty>  (272) 
0

>  <i_epik_Tot_Q>  (272) 
0

>  <i_epik_Tot_abs_Q>  (272) 
0

>  <s_lp_Force_Field>  (272) 
OPLS3e

>  <r_lp_Energy>  (272) 
28.5168

>  <b_lp_Chiralities_Consistent>  (272) 
1

>  <s_lp_Variant>  (272) 
89:0-1

>  <s_i_glide_gridfile>  (272) 
pfpi4k_grid

>  <i_i_glide_lignum>  (272) 
1

>  <i_i_glide_rotatable_bonds>  (272) 
0

>  <r_i_docking_score>  (272) 
-3.22585

>  <r_i_glide_ligand_efficiency>  (272) 
-0.161292

>  <r_i_glide_ligand_efficiency_sa>  (272) 
-0.437815

>  <r_i_glide_ligand_efficiency_ln>  (272) 
-0.807323

>  <r_i_glide_gscore>  (272) 
-3.22585

>  <r_i_glide_lipo>  (272) 
-0.41621

>  <r_i_glide_hbond>  (272) 
0

>  <r_i_glide_metal>  (272) 
-0

>  <r_i_glide_rewards>  (272) 
-1.5461

>  <r_i_glide_evdw>  (272) 
-20.9631

>  <r_i_glide_ecoul>  (272) 
-1.43587

>  <r_i_glide_erotb>  (272) 
0

>  <r_i_glide_esite>  (272) 
0

>  <r_i_glide_emodel>  (272) 
-26.7202

>  <r_i_glide_energy>  (272) 
-22.3989

>  <r_i_glide_einternal>  (272) 
0

>  <r_i_glide_intrahb_reward>  (272) 
-0

>  <i_i_glide_confnum>  (272) 
2

>  <i_i_glide_posenum>  (272) 
18

>  <r_i_glide_eff_state_penalty>  (272) 
0

>  <ligand_id>  (272) 
89

>  <original_smiles>  (272) 
CC1C=C2CCC3OC23C2(C)C1C(=O)CC(C)C21CO1

>  <smiles>  (272) 
[H]C1=C2C([H])([H])C([H])([H])C3([H])OC23C2(C([H])([H])[H])C([H])(C(=O)C([H])([H])C([H])(C([H])([H])[H])C23OC3([H])[H])C1([H])C([H])([H])[H]

$$$$
89:0:1
     RDKit          3D

 42 46  0  0  1  0  0  0  0  0999 V2000
    3.7300    0.3026    1.2826 C   0  0  0  0  0  0  0  0  0  0  0  0
    4.7332   -0.6027    0.5551 C   0  0  2  0  0  0  0  0  0  0  0  0
    4.4937   -0.4579   -0.9532 C   0  0  0  0  0  0  0  0  0  0  0  0
    4.5856   -1.4293   -1.8039 C   0  0  0  0  0  0  0  0  0  0  0  0
    4.1090   -1.3931   -3.2618 C   0  0  0  0  0  0  0  0  0  0  0  0
    3.4928   -2.7671   -3.4589 C   0  0  0  0  0  0  0  0  0  0  0  0
    4.2728   -3.5744   -2.4040 C   0  0  1  0  0  0  0  0  0  0  0  0
    5.7134   -3.4741   -2.4382 O   0  0  0  0  0  0  0  0  0  0  0  0
    5.0000   -2.7633   -1.4284 C   0  0  1  0  0  0  0  0  0  0  0  0
    5.3374   -3.0752    0.0846 C   0  0  1  0  0  0  0  0  0  0  0  0
    6.8417   -2.8290    0.1074 C   0  0  0  0  0  0  0  0  0  0  0  0
    4.5765   -2.0511    0.9937 C   0  0  1  0  0  0  0  0  0  0  0  0
    4.9207   -2.2242    2.4766 C   0  0  0  0  0  0  0  0  0  0  0  0
    5.4335   -1.3399    3.1761 O   0  0  0  0  0  0  0  0  0  0  0  0
    4.6052   -3.5831    3.0224 C   0  0  0  0  0  0  0  0  0  0  0  0
    5.3249   -4.6481    2.1737 C   0  0  1  0  0  0  0  0  0  0  0  0
    4.9504   -6.0214    2.7698 C   0  0  0  0  0  0  0  0  0  0  0  0
    5.0527   -4.5133    0.6532 C   0  0  2  0  0  0  0  0  0  0  0  0
    5.0682   -5.7433   -0.1924 C   0  0  0  0  0  0  0  0  0  0  0  0
    3.8270   -5.1144    0.2375 O   0  0  0  0  0  0  0  0  0  0  0  0
    3.9374    1.2918    0.8873 H   0  0  0  0  0  0  0  0  0  0  0  0
    3.8902    0.3799    2.3698 H   0  0  0  0  0  0  0  0  0  0  0  0
    2.6748    0.0665    1.0741 H   0  0  0  0  0  0  0  0  0  0  0  0
    5.7321   -0.2064    0.7282 H   0  0  0  0  0  0  0  0  0  0  0  0
    4.2202    0.5144   -1.3475 H   0  0  0  0  0  0  0  0  0  0  0  0
    3.4492   -0.5477   -3.4766 H   0  0  0  0  0  0  0  0  0  0  0  0
    5.0003   -1.3294   -3.8759 H   0  0  0  0  0  0  0  0  0  0  0  0
    2.4026   -2.7335   -3.2793 H   0  0  0  0  0  0  0  0  0  0  0  0
    3.6252   -3.1800   -4.4628 H   0  0  0  0  0  0  0  0  0  0  0  0
    3.8219   -4.4307   -1.9783 H   0  0  0  0  0  0  0  0  0  0  0  0
    7.2701   -2.8508    1.1007 H   0  0  0  0  0  0  0  0  0  0  0  0
    7.0738   -1.8642   -0.3410 H   0  0  0  0  0  0  0  0  0  0  0  0
    7.3291   -3.5841   -0.5069 H   0  0  0  0  0  0  0  0  0  0  0  0
    3.5019   -2.2435    0.9292 H   0  0  0  0  0  0  0  0  0  0  0  0
    4.9194   -3.6338    4.0638 H   0  0  0  0  0  0  0  0  0  0  0  0
    3.5212   -3.7114    2.9919 H   0  0  0  0  0  0  0  0  0  0  0  0
    6.4014   -4.5218    2.3169 H   0  0  0  0  0  0  0  0  0  0  0  0
    3.8951   -6.2730    2.6419 H   0  0  0  0  0  0  0  0  0  0  0  0
    5.1317   -6.0228    3.8376 H   0  0  0  0  0  0  0  0  0  0  0  0
    5.5457   -6.8388    2.3706 H   0  0  0  0  0  0  0  0  0  0  0  0
    5.3896   -5.6447   -1.2160 H   0  0  0  0  0  0  0  0  0  0  0  0
    5.3447   -6.6916    0.2562 H   0  0  0  0  0  0  0  0  0  0  0  0
  1  2  1  0
  1 21  1  0
  1 22  1  0
  1 23  1  0
  2 12  1  0
  2  3  1  0
  2 24  1  6
  3  4  2  0
  3 25  1  0
  4  9  1  0
  4  5  1  0
  5  6  1  0
  5 26  1  0
  5 27  1  0
  6  7  1  0
  6 28  1  0
  6 29  1  0
  7  9  1  0
  7  8  1  0
  7 30  1  1
  9  8  1  6
  9 10  1  0
 10 18  1  0
 10 11  1  6
 10 12  1  0
 11 31  1  0
 11 32  1  0
 11 33  1  0
 12 13  1  0
 12 34  1  1
 13 14  2  0
 13 15  1  0
 15 16  1  0
 15 35  1  0
 15 36  1  0
 16 17  1  0
 16 18  1  0
 16 37  1  6
 17 38  1  0
 17 39  1  0
 17 40  1  0
 18 20  1  1
 18 19  1  0
 19 20  1  0
 19 41  1  0
 19 42  1  0
M  END
>  <i_m_ct_stereo_status>  (273) 
1

>  <s_m_source_file>  (273) 
/var/tmp/pbs.5076255.sched01/tmpebi1rvwe/120qlbjc4nh.sdf

>  <i_m_source_file_index>  (273) 
1

>  <i_lp_mmshare_version>  (273) 
48012

>  <i_f3d_flags>  (273) 
0

>  <s_epik_input>  (273) 
TzFbQ0BASF0yW0NIMl1bQ0gyXUMoW0NAXTEyMyk9W0NIXVtDQEBIXShbQ0gzXSlbQ0BIXTRbQ0BAXTMoW0NIM10pW0NAQF01KFtDSDJdTzUpW0NASF0oW0NIM10pW0NIMl1DND1P

>  <s_epik_cmdline>  (273) 
J2VwaWtfcHl0aG9uJywgJy1waHQnLCAnMi4wJywgJy1waCcsICc3LjAnLCAnLXRuJywgJzgnLCAnLW1hJywgJzIwMCcsICctaW1hZScsICc8aW5maWxlLm1hZT4nLCAnLW9tYWUnLCAnPG91dGZpbGUubWFlPic=

>  <r_lp_tautomer_probability>  (273) 
1

>  <r_epik_Ionization_Penalty>  (273) 
1.42639e-11

>  <r_epik_Ionization_Penalty_Charging>  (273) 
0

>  <r_epik_Ionization_Penalty_Neutral>  (273) 
1.42639e-11

>  <r_epik_State_Penalty>  (273) 
-0

>  <r_epik_Charging_Adjusted_Penalty>  (273) 
0

>  <i_epik_Tot_Q>  (273) 
0

>  <i_epik_Tot_abs_Q>  (273) 
0

>  <s_lp_Force_Field>  (273) 
OPLS3e

>  <r_lp_Energy>  (273) 
28.5168

>  <b_lp_Chiralities_Consistent>  (273) 
1

>  <s_lp_Variant>  (273) 
89:0-1

>  <s_i_glide_gridfile>  (273) 
pfpi4k_grid

>  <i_i_glide_lignum>  (273) 
1

>  <i_i_glide_rotatable_bonds>  (273) 
0

>  <r_i_docking_score>  (273) 
-2.8196

>  <r_i_glide_ligand_efficiency>  (273) 
-0.14098

>  <r_i_glide_ligand_efficiency_sa>  (273) 
-0.382678

>  <r_i_glide_ligand_efficiency_ln>  (273) 
-0.705652

>  <r_i_glide_gscore>  (273) 
-2.8196

>  <r_i_glide_lipo>  (273) 
-0.693607

>  <r_i_glide_hbond>  (273) 
0

>  <r_i_glide_metal>  (273) 
-0

>  <r_i_glide_rewards>  (273) 
-1.61524

>  <r_i_glide_evdw>  (273) 
-7.73417

>  <r_i_glide_ecoul>  (273) 
-0.826954

>  <r_i_glide_erotb>  (273) 
0

>  <r_i_glide_esite>  (273) 
0

>  <r_i_glide_emodel>  (273) 
-10.5857

>  <r_i_glide_energy>  (273) 
-8.56113

>  <r_i_glide_einternal>  (273) 
0

>  <r_i_glide_intrahb_reward>  (273) 
-0

>  <i_i_glide_confnum>  (273) 
1

>  <i_i_glide_posenum>  (273) 
28

>  <r_i_glide_eff_state_penalty>  (273) 
0

>  <ligand_id>  (273) 
89

>  <original_smiles>  (273) 
CC1C=C2CCC3OC23C2(C)C1C(=O)CC(C)C21CO1

>  <smiles>  (273) 
[H]C1=C2C([H])([H])C([H])([H])C3([H])OC23C2(C([H])([H])[H])C([H])(C(=O)C([H])([H])C([H])(C([H])([H])[H])C23OC3([H])[H])C1([H])C([H])([H])[H]

$$$$
89:0:2
     RDKit          3D

 42 46  0  0  1  0  0  0  0  0999 V2000
    1.7567   -1.2398    2.2663 C   0  0  0  0  0  0  0  0  0  0  0  0
    3.2149   -1.5642    1.8762 C   0  0  2  0  0  0  0  0  0  0  0  0
    3.4355   -1.1558    0.4314 C   0  0  0  0  0  0  0  0  0  0  0  0
    4.1577   -1.8829   -0.4310 C   0  0  0  0  0  0  0  0  0  0  0  0
    4.2351   -1.6680   -1.9304 C   0  0  0  0  0  0  0  0  0  0  0  0
    4.3418   -3.0920   -2.5047 C   0  0  0  0  0  0  0  0  0  0  0  0
    4.9290   -3.8970   -1.3651 C   0  0  1  0  0  0  0  0  0  0  0  0
    6.1099   -3.3354   -0.7898 O   0  0  0  0  0  0  0  0  0  0  0  0
    4.8742   -3.1233   -0.0699 C   0  0  1  0  0  0  0  0  0  0  0  0
    4.9166   -3.5458    1.4357 C   0  0  1  0  0  0  0  0  0  0  0  0
    6.0950   -2.7516    2.0317 C   0  0  0  0  0  0  0  0  0  0  0  0
    3.5685   -3.0731    2.1001 C   0  0  1  0  0  0  0  0  0  0  0  0
    3.5187   -3.4777    3.5822 C   0  0  0  0  0  0  0  0  0  0  0  0
    3.4117   -2.6780    4.5094 O   0  0  0  0  0  0  0  0  0  0  0  0
    3.6743   -4.9623    3.8335 C   0  0  0  0  0  0  0  0  0  0  0  0
    4.9976   -5.4572    3.2316 C   0  0  1  0  0  0  0  0  0  0  0  0
    5.1015   -6.9762    3.5306 C   0  0  0  0  0  0  0  0  0  0  0  0
    5.1778   -5.0676    1.7356 C   0  0  2  0  0  0  0  0  0  0  0  0
    6.0546   -5.9358    0.8775 C   0  0  0  0  0  0  0  0  0  0  0  0
    4.6050   -5.9861    0.8089 O   0  0  0  0  0  0  0  0  0  0  0  0
    1.5233   -0.1893    2.0844 H   0  0  0  0  0  0  0  0  0  0  0  0
    1.5482   -1.4341    3.3173 H   0  0  0  0  0  0  0  0  0  0  0  0
    1.0559   -1.8335    1.6793 H   0  0  0  0  0  0  0  0  0  0  0  0
    3.8670   -0.9241    2.4727 H   0  0  0  0  0  0  0  0  0  0  0  0
    2.9021   -0.2818    0.0840 H   0  0  0  0  0  0  0  0  0  0  0  0
    3.3882   -1.1026   -2.3276 H   0  0  0  0  0  0  0  0  0  0  0  0
    5.1582   -1.1302   -2.1408 H   0  0  0  0  0  0  0  0  0  0  0  0
    3.3569   -3.4911   -2.7506 H   0  0  0  0  0  0  0  0  0  0  0  0
    4.9630   -3.1611   -3.3972 H   0  0  0  0  0  0  0  0  0  0  0  0
    4.8943   -4.9807   -1.4303 H   0  0  0  0  0  0  0  0  0  0  0  0
    6.1526   -2.8475    3.1137 H   0  0  0  0  0  0  0  0  0  0  0  0
    6.0336   -1.6842    1.8049 H   0  0  0  0  0  0  0  0  0  0  0  0
    7.0363   -3.1183    1.6204 H   0  0  0  0  0  0  0  0  0  0  0  0
    2.7766   -3.6522    1.6221 H   0  0  0  0  0  0  0  0  0  0  0  0
    3.6465   -5.1509    4.9079 H   0  0  0  0  0  0  0  0  0  0  0  0
    2.8232   -5.4834    3.3950 H   0  0  0  0  0  0  0  0  0  0  0  0
    5.8118   -4.9900    3.7867 H   0  0  0  0  0  0  0  0  0  0  0  0
    4.3564   -7.5620    2.9861 H   0  0  0  0  0  0  0  0  0  0  0  0
    4.9280   -7.1671    4.5910 H   0  0  0  0  0  0  0  0  0  0  0  0
    6.0858   -7.3915    3.3135 H   0  0  0  0  0  0  0  0  0  0  0  0
    6.5725   -5.5087    0.0324 H   0  0  0  0  0  0  0  0  0  0  0  0
    6.5294   -6.8157    1.2984 H   0  0  0  0  0  0  0  0  0  0  0  0
  1  2  1  0
  1 21  1  0
  1 22  1  0
  1 23  1  0
  2 12  1  0
  2  3  1  0
  2 24  1  1
  3  4  2  0
  3 25  1  0
  4  9  1  0
  4  5  1  0
  5  6  1  0
  5 26  1  0
  5 27  1  0
  6  7  1  0
  6 28  1  0
  6 29  1  0
  7  9  1  0
  7  8  1  0
  7 30  1  1
  9  8  1  6
  9 10  1  0
 10 18  1  0
 10 11  1  1
 10 12  1  0
 11 31  1  0
 11 32  1  0
 11 33  1  0
 12 13  1  0
 12 34  1  6
 13 14  2  0
 13 15  1  0
 15 16  1  0
 15 35  1  0
 15 36  1  0
 16 17  1  0
 16 18  1  0
 16 37  1  1
 17 38  1  0
 17 39  1  0
 17 40  1  0
 18 20  1  6
 18 19  1  0
 19 20  1  0
 19 41  1  0
 19 42  1  0
M  END
>  <i_m_ct_stereo_status>  (274) 
1

>  <s_m_source_file>  (274) 
/var/tmp/pbs.5076255.sched01/tmpebi1rvwe/120qlbjc4nh.sdf

>  <i_m_source_file_index>  (274) 
1

>  <i_lp_mmshare_version>  (274) 
48012

>  <i_f3d_flags>  (274) 
0

>  <s_epik_input>  (274) 
TzFbQ0BASF0yW0NIMl1bQ0gyXUMoW0NAXTEyMyk9W0NIXVtDQEBIXShbQ0gzXSlbQ0BIXTRbQ0BAXTMoW0NIM10pW0NAQF01KFtDSDJdTzUpW0NASF0oW0NIM10pW0NIMl1DND1P

>  <s_epik_cmdline>  (274) 
J2VwaWtfcHl0aG9uJywgJy1waHQnLCAnMi4wJywgJy1waCcsICc3LjAnLCAnLXRuJywgJzgnLCAnLW1hJywgJzIwMCcsICctaW1hZScsICc8aW5maWxlLm1hZT4nLCAnLW9tYWUnLCAnPG91dGZpbGUubWFlPic=

>  <r_lp_tautomer_probability>  (274) 
1

>  <r_epik_Ionization_Penalty>  (274) 
1.42639e-11

>  <r_epik_Ionization_Penalty_Charging>  (274) 
0

>  <r_epik_Ionization_Penalty_Neutral>  (274) 
1.42639e-11

>  <r_epik_State_Penalty>  (274) 
-0

>  <r_epik_Charging_Adjusted_Penalty>  (274) 
0

>  <i_epik_Tot_Q>  (274) 
0

>  <i_epik_Tot_abs_Q>  (274) 
0

>  <s_lp_Force_Field>  (274) 
OPLS3e

>  <r_lp_Energy>  (274) 
28.5168

>  <b_lp_Chiralities_Consistent>  (274) 
1

>  <s_lp_Variant>  (274) 
89:0-1

>  <s_i_glide_gridfile>  (274) 
pfpi4k_grid

>  <i_i_glide_lignum>  (274) 
1

>  <i_i_glide_rotatable_bonds>  (274) 
0

>  <r_i_docking_score>  (274) 
-2.76053

>  <r_i_glide_ligand_efficiency>  (274) 
-0.138026

>  <r_i_glide_ligand_efficiency_sa>  (274) 
-0.374662

>  <r_i_glide_ligand_efficiency_ln>  (274) 
-0.69087

>  <r_i_glide_gscore>  (274) 
-2.76053

>  <r_i_glide_lipo>  (274) 
-0.206901

>  <r_i_glide_hbond>  (274) 
0

>  <r_i_glide_metal>  (274) 
-0

>  <r_i_glide_rewards>  (274) 
-1.53849

>  <r_i_glide_evdw>  (274) 
-17.1452

>  <r_i_glide_ecoul>  (274) 
-1.05254

>  <r_i_glide_erotb>  (274) 
0

>  <r_i_glide_esite>  (274) 
0

>  <r_i_glide_emodel>  (274) 
-21.8495

>  <r_i_glide_energy>  (274) 
-18.1977

>  <r_i_glide_einternal>  (274) 
0

>  <r_i_glide_intrahb_reward>  (274) 
-0

>  <i_i_glide_confnum>  (274) 
1

>  <i_i_glide_posenum>  (274) 
19

>  <r_i_glide_eff_state_penalty>  (274) 
0

>  <ligand_id>  (274) 
89

>  <original_smiles>  (274) 
CC1C=C2CCC3OC23C2(C)C1C(=O)CC(C)C21CO1

>  <smiles>  (274) 
[H]C1=C2C([H])([H])C([H])([H])C3([H])OC23C2(C([H])([H])[H])C([H])(C(=O)C([H])([H])C([H])(C([H])([H])[H])C23OC3([H])[H])C1([H])C([H])([H])[H]

$$$$
90:0:0
     RDKit          3D

 24 26  0  0  1  0  0  0  0  0999 V2000
    6.2278   -5.6518    1.4726 C   0  0  0  0  0  0  0  0  0  0  0  0
    5.0236   -5.7347    0.7220 C   0  0  0  0  0  0  0  0  0  0  0  0
    4.7330   -4.8893   -0.2928 N   0  0  0  0  0  0  0  0  0  0  0  0
    5.7223   -3.9711   -0.5056 C   0  0  0  0  0  0  0  0  0  0  0  0
    6.9246   -3.8783    0.2274 C   0  0  0  0  0  0  0  0  0  0  0  0
    7.6749   -2.8215   -0.3143 C   0  0  0  0  0  0  0  0  0  0  0  0
    7.0318   -2.2587   -1.3277 N   0  0  0  0  0  0  0  0  0  0  0  0
    5.8411   -2.9427   -1.4373 N   0  0  0  0  0  0  0  0  0  0  0  0
    4.9040   -2.5538   -2.4736 C   0  0  2  0  0  0  0  0  0  0  0  0
    3.4907   -2.3025   -1.9670 C   0  0  0  0  0  0  0  0  0  0  0  0
    2.6704   -2.4769   -3.2373 C   0  0  0  0  0  0  0  0  0  0  0  0
    3.3665   -3.4349   -4.0321 O   0  0  0  0  0  0  0  0  0  0  0  0
    4.6803   -3.6420   -3.5252 C   0  0  0  0  0  0  0  0  0  0  0  0
    7.1877   -4.7210    1.2347 N   0  0  0  0  0  0  0  0  0  0  0  0
    6.4174   -6.3426    2.2788 H   0  0  0  0  0  0  0  0  0  0  0  0
    4.2829   -6.4891    0.9464 H   0  0  0  0  0  0  0  0  0  0  0  0
    8.6412   -2.5155    0.0477 H   0  0  0  0  0  0  0  0  0  0  0  0
    5.2547   -1.6456   -2.9688 H   0  0  0  0  0  0  0  0  0  0  0  0
    3.1669   -3.0550   -1.2469 H   0  0  0  0  0  0  0  0  0  0  0  0
    3.3682   -1.3233   -1.5008 H   0  0  0  0  0  0  0  0  0  0  0  0
    1.6526   -2.7978   -3.0212 H   0  0  0  0  0  0  0  0  0  0  0  0
    2.6260   -1.5387   -3.7882 H   0  0  0  0  0  0  0  0  0  0  0  0
    5.4214   -3.6247   -4.3181 H   0  0  0  0  0  0  0  0  0  0  0  0
    4.7150   -4.6383   -3.0865 H   0  0  0  0  0  0  0  0  0  0  0  0
  1 14  2  0
  1  2  1  0
  1 15  1  0
  2  3  2  0
  2 16  1  0
  3  4  1  0
  4  8  1  0
  4  5  2  0
  5  6  1  0
  5 14  1  0
  6  7  2  0
  6 17  1  0
  7  8  1  0
  8  9  1  0
  9 13  1  0
  9 10  1  0
  9 18  1  6
 10 11  1  0
 10 19  1  0
 10 20  1  0
 11 12  1  0
 11 21  1  0
 11 22  1  0
 12 13  1  0
 13 23  1  0
 13 24  1  0
M  END
>  <i_m_ct_stereo_status>  (275) 
1

>  <s_m_source_file>  (275) 
/var/tmp/pbs.5076255.sched01/tmpebi1rvwe/120qlbjc4nh.sdf

>  <i_m_source_file_index>  (275) 
2

>  <i_lp_mmshare_version>  (275) 
48012

>  <i_f3d_flags>  (275) 
0

>  <s_epik_input>  (275) 
bjFbY0hdW2NIXW5jKGMxMilbY0hdbm4yW0NAQEhdM1tDSDJdW0NIMl1PW0NIMl0z

>  <s_epik_cmdline>  (275) 
J2VwaWtfcHl0aG9uJywgJy1waHQnLCAnMi4wJywgJy1waCcsICc3LjAnLCAnLXRuJywgJzgnLCAnLW1hJywgJzIwMCcsICctaW1hZScsICc8aW5maWxlLm1hZT4nLCAnLW9tYWUnLCAnPG91dGZpbGUubWFlPic=

>  <r_lp_tautomer_probability>  (275) 
1

>  <r_epik_Ionization_Penalty>  (275) 
5.41004e-07

>  <r_epik_Ionization_Penalty_Charging>  (275) 
0

>  <r_epik_Ionization_Penalty_Neutral>  (275) 
5.41004e-07

>  <r_epik_State_Penalty>  (275) 
-0

>  <r_epik_Charging_Adjusted_Penalty>  (275) 
0

>  <i_epik_Tot_Q>  (275) 
0

>  <i_epik_Tot_abs_Q>  (275) 
0

>  <s_lp_Force_Field>  (275) 
OPLS3e

>  <r_lp_Energy>  (275) 
13.3177

>  <b_lp_Chiralities_Consistent>  (275) 
1

>  <s_lp_Variant>  (275) 
90:0-1

>  <s_i_glide_gridfile>  (275) 
pfpi4k_grid

>  <i_i_glide_lignum>  (275) 
2

>  <i_i_glide_rotatable_bonds>  (275) 
1

>  <r_i_docking_score>  (275) 
-4.10575

>  <r_i_glide_ligand_efficiency>  (275) 
-0.293268

>  <r_i_glide_ligand_efficiency_sa>  (275) 
-0.706817

>  <r_i_glide_ligand_efficiency_ln>  (275) 
-1.12824

>  <r_i_glide_gscore>  (275) 
-4.10575

>  <r_i_glide_lipo>  (275) 
-0.725219

>  <r_i_glide_hbond>  (275) 
-0.16

>  <r_i_glide_metal>  (275) 
-0

>  <r_i_glide_rewards>  (275) 
-2.22593

>  <r_i_glide_evdw>  (275) 
-22.618

>  <r_i_glide_ecoul>  (275) 
-2.05043

>  <r_i_glide_erotb>  (275) 
0.443865

>  <r_i_glide_esite>  (275) 
0

>  <r_i_glide_emodel>  (275) 
-30.8598

>  <r_i_glide_energy>  (275) 
-24.6685

>  <r_i_glide_einternal>  (275) 
0.859796

>  <r_i_glide_intrahb_reward>  (275) 
-0

>  <i_i_glide_confnum>  (275) 
3

>  <i_i_glide_posenum>  (275) 
27

>  <r_i_glide_eff_state_penalty>  (275) 
0

>  <ligand_id>  (275) 
90

>  <original_smiles>  (275) 
c1cnc2c(cnn2C2CCOC2)n1

>  <smiles>  (275) 
[H]c1nc2c([H])nn(C3([H])C([H])([H])OC([H])([H])C3([H])[H])c2nc1[H]

$$$$
90:0:1
     RDKit          3D

 24 26  0  0  1  0  0  0  0  0999 V2000
    8.3229   -2.6108   -0.3734 C   0  0  0  0  0  0  0  0  0  0  0  0
    7.7371   -3.0829   -1.5667 C   0  0  0  0  0  0  0  0  0  0  0  0
    6.4720   -2.7835   -1.9444 N   0  0  0  0  0  0  0  0  0  0  0  0
    5.8426   -1.9923   -1.0288 C   0  0  0  0  0  0  0  0  0  0  0  0
    6.4109   -1.4964    0.1594 C   0  0  0  0  0  0  0  0  0  0  0  0
    5.4341   -0.7128    0.8124 C   0  0  0  0  0  0  0  0  0  0  0  0
    4.3127   -0.6639    0.1143 N   0  0  0  0  0  0  0  0  0  0  0  0
    4.5596   -1.4418   -1.0004 N   0  0  0  0  0  0  0  0  0  0  0  0
    3.5329   -1.5940   -2.0101 C   0  0  2  0  0  0  0  0  0  0  0  0
    3.2325   -3.0558   -2.3326 C   0  0  0  0  0  0  0  0  0  0  0  0
    3.4844   -3.1630   -3.8335 C   0  0  0  0  0  0  0  0  0  0  0  0
    3.3505   -1.8402   -4.3198 O   0  0  0  0  0  0  0  0  0  0  0  0
    3.9298   -0.9792   -3.3600 C   0  0  0  0  0  0  0  0  0  0  0  0
    7.6760   -1.7802    0.4800 N   0  0  0  0  0  0  0  0  0  0  0  0
    9.3361   -2.8803   -0.1198 H   0  0  0  0  0  0  0  0  0  0  0  0
    8.2925   -3.7193   -2.2365 H   0  0  0  0  0  0  0  0  0  0  0  0
    5.5975   -0.2045    1.7482 H   0  0  0  0  0  0  0  0  0  0  0  0
    2.6303   -1.1025   -1.6741 H   0  0  0  0  0  0  0  0  0  0  0  0
    3.8379   -3.7851   -1.7842 H   0  0  0  0  0  0  0  0  0  0  0  0
    2.1897   -3.2755   -2.0994 H   0  0  0  0  0  0  0  0  0  0  0  0
    4.5008   -3.5077   -4.0288 H   0  0  0  0  0  0  0  0  0  0  0  0
    2.7879   -3.8478   -4.3155 H   0  0  0  0  0  0  0  0  0  0  0  0
    3.5896    0.0540   -3.4704 H   0  0  0  0  0  0  0  0  0  0  0  0
    5.0081   -0.9992   -3.5109 H   0  0  0  0  0  0  0  0  0  0  0  0
  1 14  2  0
  1  2  1  0
  1 15  1  0
  2  3  2  0
  2 16  1  0
  3  4  1  0
  4  8  1  0
  4  5  2  0
  5  6  1  0
  5 14  1  0
  6  7  2  0
  6 17  1  0
  7  8  1  0
  8  9  1  0
  9 13  1  0
  9 10  1  0
  9 18  1  1
 10 11  1  0
 10 19  1  0
 10 20  1  0
 11 12  1  0
 11 21  1  0
 11 22  1  0
 12 13  1  0
 13 23  1  0
 13 24  1  0
M  END
>  <i_m_ct_stereo_status>  (276) 
1

>  <s_m_source_file>  (276) 
/var/tmp/pbs.5076255.sched01/tmpebi1rvwe/120qlbjc4nh.sdf

>  <i_m_source_file_index>  (276) 
2

>  <i_lp_mmshare_version>  (276) 
48012

>  <i_f3d_flags>  (276) 
0

>  <s_epik_input>  (276) 
bjFbY0hdW2NIXW5jKGMxMilbY0hdbm4yW0NAQEhdM1tDSDJdW0NIMl1PW0NIMl0z

>  <s_epik_cmdline>  (276) 
J2VwaWtfcHl0aG9uJywgJy1waHQnLCAnMi4wJywgJy1waCcsICc3LjAnLCAnLXRuJywgJzgnLCAnLW1hJywgJzIwMCcsICctaW1hZScsICc8aW5maWxlLm1hZT4nLCAnLW9tYWUnLCAnPG91dGZpbGUubWFlPic=

>  <r_lp_tautomer_probability>  (276) 
1

>  <r_epik_Ionization_Penalty>  (276) 
5.41004e-07

>  <r_epik_Ionization_Penalty_Charging>  (276) 
0

>  <r_epik_Ionization_Penalty_Neutral>  (276) 
5.41004e-07

>  <r_epik_State_Penalty>  (276) 
-0

>  <r_epik_Charging_Adjusted_Penalty>  (276) 
0

>  <i_epik_Tot_Q>  (276) 
0

>  <i_epik_Tot_abs_Q>  (276) 
0

>  <s_lp_Force_Field>  (276) 
OPLS3e

>  <r_lp_Energy>  (276) 
13.3177

>  <b_lp_Chiralities_Consistent>  (276) 
1

>  <s_lp_Variant>  (276) 
90:0-1

>  <s_i_glide_gridfile>  (276) 
pfpi4k_grid

>  <i_i_glide_lignum>  (276) 
2

>  <i_i_glide_rotatable_bonds>  (276) 
1

>  <r_i_docking_score>  (276) 
-3.91616

>  <r_i_glide_ligand_efficiency>  (276) 
-0.279726

>  <r_i_glide_ligand_efficiency_sa>  (276) 
-0.674178

>  <r_i_glide_ligand_efficiency_ln>  (276) 
-1.07615

>  <r_i_glide_gscore>  (276) 
-3.91616

>  <r_i_glide_lipo>  (276) 
-0.429325

>  <r_i_glide_hbond>  (276) 
-0.275979

>  <r_i_glide_metal>  (276) 
-0

>  <r_i_glide_rewards>  (276) 
-2.11226

>  <r_i_glide_evdw>  (276) 
-25.31

>  <r_i_glide_ecoul>  (276) 
-1.27211

>  <r_i_glide_erotb>  (276) 
0.443865

>  <r_i_glide_esite>  (276) 
-0.0861436

>  <r_i_glide_emodel>  (276) 
-32.5679

>  <r_i_glide_energy>  (276) 
-26.5821

>  <r_i_glide_einternal>  (276) 
0.542017

>  <r_i_glide_intrahb_reward>  (276) 
-0

>  <i_i_glide_confnum>  (276) 
6

>  <i_i_glide_posenum>  (276) 
32

>  <r_i_glide_eff_state_penalty>  (276) 
0

>  <ligand_id>  (276) 
90

>  <original_smiles>  (276) 
c1cnc2c(cnn2C2CCOC2)n1

>  <smiles>  (276) 
[H]c1nc2c([H])nn(C3([H])C([H])([H])OC([H])([H])C3([H])[H])c2nc1[H]

$$$$
90:0:2
     RDKit          3D

 24 26  0  0  1  0  0  0  0  0999 V2000
    6.4624   -5.7054    1.2774 C   0  0  0  0  0  0  0  0  0  0  0  0
    5.0636   -5.6147    1.0583 C   0  0  0  0  0  0  0  0  0  0  0  0
    4.4900   -4.5984    0.3708 N   0  0  0  0  0  0  0  0  0  0  0  0
    5.4086   -3.7029   -0.0919 C   0  0  0  0  0  0  0  0  0  0  0  0
    6.8039   -3.7829    0.1185 C   0  0  0  0  0  0  0  0  0  0  0  0
    7.3898   -2.6681   -0.5073 C   0  0  0  0  0  0  0  0  0  0  0  0
    6.4699   -1.9026   -1.0778 N   0  0  0  0  0  0  0  0  0  0  0  0
    5.2721   -2.5589   -0.8821 N   0  0  0  0  0  0  0  0  0  0  0  0
    4.0324   -1.9902   -1.4194 C   0  0  2  0  0  0  0  0  0  0  0  0
    3.0864   -3.0507   -1.9989 C   0  0  0  0  0  0  0  0  0  0  0  0
    2.8675   -2.6432   -3.4499 C   0  0  0  0  0  0  0  0  0  0  0  0
    3.1240   -1.2506   -3.4608 O   0  0  0  0  0  0  0  0  0  0  0  0
    4.2432   -1.0471   -2.6168 C   0  0  0  0  0  0  0  0  0  0  0  0
    7.3490   -4.7911    0.8118 N   0  0  0  0  0  0  0  0  0  0  0  0
    6.8809   -6.5280    1.8388 H   0  0  0  0  0  0  0  0  0  0  0  0
    4.4014   -6.3774    1.4373 H   0  0  0  0  0  0  0  0  0  0  0  0
    8.4498   -2.4585   -0.5228 H   0  0  0  0  0  0  0  0  0  0  0  0
    3.5285   -1.4557   -0.6126 H   0  0  0  0  0  0  0  0  0  0  0  0
    3.4827   -4.0613   -1.9649 H   0  0  0  0  0  0  0  0  0  0  0  0
    2.1468   -3.0437   -1.4421 H   0  0  0  0  0  0  0  0  0  0  0  0
    3.5874   -3.1623   -4.0871 H   0  0  0  0  0  0  0  0  0  0  0  0
    1.8642   -2.8741   -3.8005 H   0  0  0  0  0  0  0  0  0  0  0  0
    4.3633   -0.0021   -2.3233 H   0  0  0  0  0  0  0  0  0  0  0  0
    5.1162   -1.3446   -3.1929 H   0  0  0  0  0  0  0  0  0  0  0  0
  1 14  2  0
  1  2  1  0
  1 15  1  0
  2  3  2  0
  2 16  1  0
  3  4  1  0
  4  8  1  0
  4  5  2  0
  5  6  1  0
  5 14  1  0
  6  7  2  0
  6 17  1  0
  7  8  1  0
  8  9  1  0
  9 13  1  0
  9 10  1  0
  9 18  1  1
 10 11  1  0
 10 19  1  0
 10 20  1  0
 11 12  1  0
 11 21  1  0
 11 22  1  0
 12 13  1  0
 13 23  1  0
 13 24  1  0
M  END
>  <i_m_ct_stereo_status>  (277) 
1

>  <s_m_source_file>  (277) 
/var/tmp/pbs.5076255.sched01/tmpebi1rvwe/120qlbjc4nh.sdf

>  <i_m_source_file_index>  (277) 
2

>  <i_lp_mmshare_version>  (277) 
48012

>  <i_f3d_flags>  (277) 
0

>  <s_epik_input>  (277) 
bjFbY0hdW2NIXW5jKGMxMilbY0hdbm4yW0NAQEhdM1tDSDJdW0NIMl1PW0NIMl0z

>  <s_epik_cmdline>  (277) 
J2VwaWtfcHl0aG9uJywgJy1waHQnLCAnMi4wJywgJy1waCcsICc3LjAnLCAnLXRuJywgJzgnLCAnLW1hJywgJzIwMCcsICctaW1hZScsICc8aW5maWxlLm1hZT4nLCAnLW9tYWUnLCAnPG91dGZpbGUubWFlPic=

>  <r_lp_tautomer_probability>  (277) 
1

>  <r_epik_Ionization_Penalty>  (277) 
5.41004e-07

>  <r_epik_Ionization_Penalty_Charging>  (277) 
0

>  <r_epik_Ionization_Penalty_Neutral>  (277) 
5.41004e-07

>  <r_epik_State_Penalty>  (277) 
-0

>  <r_epik_Charging_Adjusted_Penalty>  (277) 
0

>  <i_epik_Tot_Q>  (277) 
0

>  <i_epik_Tot_abs_Q>  (277) 
0

>  <s_lp_Force_Field>  (277) 
OPLS3e

>  <r_lp_Energy>  (277) 
13.3177

>  <b_lp_Chiralities_Consistent>  (277) 
1

>  <s_lp_Variant>  (277) 
90:0-1

>  <s_i_glide_gridfile>  (277) 
pfpi4k_grid

>  <i_i_glide_lignum>  (277) 
2

>  <i_i_glide_rotatable_bonds>  (277) 
1

>  <r_i_docking_score>  (277) 
-3.82559

>  <r_i_glide_ligand_efficiency>  (277) 
-0.273256

>  <r_i_glide_ligand_efficiency_sa>  (277) 
-0.658587

>  <r_i_glide_ligand_efficiency_ln>  (277) 
-1.05126

>  <r_i_glide_gscore>  (277) 
-3.82559

>  <r_i_glide_lipo>  (277) 
-0.470942

>  <r_i_glide_hbond>  (277) 
-0.16

>  <r_i_glide_metal>  (277) 
-0

>  <r_i_glide_rewards>  (277) 
-2.18812

>  <r_i_glide_evdw>  (277) 
-21.1753

>  <r_i_glide_ecoul>  (277) 
-2.55036

>  <r_i_glide_erotb>  (277) 
0.443865

>  <r_i_glide_esite>  (277) 
-0.00907288

>  <r_i_glide_emodel>  (277) 
-28.6222

>  <r_i_glide_energy>  (277) 
-23.7256

>  <r_i_glide_einternal>  (277) 
2.41352

>  <r_i_glide_intrahb_reward>  (277) 
-0

>  <i_i_glide_confnum>  (277) 
6

>  <i_i_glide_posenum>  (277) 
33

>  <r_i_glide_eff_state_penalty>  (277) 
0

>  <ligand_id>  (277) 
90

>  <original_smiles>  (277) 
c1cnc2c(cnn2C2CCOC2)n1

>  <smiles>  (277) 
[H]c1nc2c([H])nn(C3([H])C([H])([H])OC([H])([H])C3([H])[H])c2nc1[H]

$$$$
92:0:0
     RDKit          3D

 60 64  0  0  1  0  0  0  0  0999 V2000
    3.8234   -6.9789    4.8208 C   0  0  0  0  0  0  0  0  0  0  0  0
    4.2924   -6.1393    3.6458 C   0  0  0  0  0  0  0  0  0  0  0  0
    3.4738   -5.2765    2.9563 C   0  0  0  0  0  0  0  0  0  0  0  0
    3.8845   -4.5679    1.6469 C   0  0  2  0  0  0  0  0  0  0  0  0
    3.4100   -5.5654    0.5534 C   0  0  0  0  0  0  0  0  0  0  0  0
    5.3892   -4.3370    1.7581 C   0  0  1  0  0  0  0  0  0  0  0  0
    5.8126   -3.4570    3.0121 C   0  0  0  0  0  0  0  0  0  0  0  0
    5.0560   -2.4476    3.6146 O   0  0  0  0  0  0  0  0  0  0  0  0
    6.0967   -5.6843    1.8708 C   0  0  2  0  0  0  0  0  0  0  0  0
    5.6822   -6.3812    3.1646 C   0  0  0  0  0  0  0  0  0  0  0  0
    6.5075   -7.0863    3.7584 O   0  0  0  0  0  0  0  0  0  0  0  0
    7.5747   -5.3598    1.5805 C   0  0  1  0  0  0  0  0  0  0  0  0
    8.3866   -6.5515    1.0653 C   0  0  0  0  0  0  0  0  0  0  0  0
    7.5058   -4.1775    0.5758 C   0  0  0  0  0  0  0  0  0  0  0  0
    6.0012   -3.8564    0.4226 C   0  0  2  0  0  0  0  0  0  0  0  0
    5.4842   -2.4557   -0.0244 C   0  0  1  0  0  0  0  0  0  0  0  0
    6.1206   -1.4527    0.7487 O   0  0  0  0  0  0  0  0  0  0  0  0
    5.9180   -2.0102   -1.4671 C   0  0  1  0  0  0  0  0  0  0  0  0
    7.2787   -2.2472   -1.7503 O   0  0  0  0  0  0  0  0  0  0  0  0
    5.0601   -2.4633   -2.6646 C   0  0  1  0  0  0  0  0  0  0  0  0
    5.1703   -3.9397   -3.0337 C   0  0  0  0  0  0  0  0  0  0  0  0
    3.6364   -2.0462   -2.4230 C   0  0  0  0  0  0  0  0  0  0  0  0
    3.1933   -2.7330   -1.1345 C   0  0  0  0  0  0  0  0  0  0  0  0
    3.9206   -2.3577    0.1763 C   0  0  2  0  0  0  0  0  0  0  0  0
    3.5929   -0.9761    0.3750 O   0  0  0  0  0  0  0  0  0  0  0  0
    3.2822   -3.1734    1.3637 C   0  0  1  0  0  0  0  0  0  0  0  0
    1.8465   -2.9704    1.7010 C   0  0  0  0  0  0  0  0  0  0  0  0
    2.8737   -2.4307    2.5203 O   0  0  0  0  0  0  0  0  0  0  0  0
    4.4627   -6.7975    5.6838 H   0  0  0  0  0  0  0  0  0  0  0  0
    3.8736   -8.0523    4.6054 H   0  0  0  0  0  0  0  0  0  0  0  0
    2.7927   -6.7515    5.0938 H   0  0  0  0  0  0  0  0  0  0  0  0
    2.4506   -5.1983    3.2678 H   0  0  0  0  0  0  0  0  0  0  0  0
    3.8121   -5.4061   -0.4414 H   0  0  0  0  0  0  0  0  0  0  0  0
    2.3265   -5.5611    0.4658 H   0  0  0  0  0  0  0  0  0  0  0  0
    3.6689   -6.5902    0.7978 H   0  0  0  0  0  0  0  0  0  0  0  0
    6.1997   -4.0694    3.8254 H   0  0  0  0  0  0  0  0  0  0  0  0
    6.6137   -2.8425    2.6224 H   0  0  0  0  0  0  0  0  0  0  0  0
    4.1620   -2.7676    3.7187 H   0  0  0  0  0  0  0  0  0  0  0  0
    5.7828   -6.3560    1.0705 H   0  0  0  0  0  0  0  0  0  0  0  0
    8.0763   -5.0307    2.4896 H   0  0  0  0  0  0  0  0  0  0  0  0
    7.9667   -6.9745    0.1569 H   0  0  0  0  0  0  0  0  0  0  0  0
    8.4622   -7.3458    1.8092 H   0  0  0  0  0  0  0  0  0  0  0  0
    9.3987   -6.2331    0.8366 H   0  0  0  0  0  0  0  0  0  0  0  0
    8.0780   -3.3258    0.9459 H   0  0  0  0  0  0  0  0  0  0  0  0
    7.9524   -4.4580   -0.3766 H   0  0  0  0  0  0  0  0  0  0  0  0
    5.6825   -4.5530   -0.3486 H   0  0  0  0  0  0  0  0  0  0  0  0
    5.8599   -1.5733    1.6470 H   0  0  0  0  0  0  0  0  0  0  0  0
    5.8068   -0.9295   -1.4698 H   0  0  0  0  0  0  0  0  0  0  0  0
    7.3476   -3.0851   -2.1992 H   0  0  0  0  0  0  0  0  0  0  0  0
    5.4052   -1.9178   -3.5366 H   0  0  0  0  0  0  0  0  0  0  0  0
    4.7455   -4.6168   -2.3009 H   0  0  0  0  0  0  0  0  0  0  0  0
    6.2223   -4.1721   -3.1245 H   0  0  0  0  0  0  0  0  0  0  0  0
    4.6796   -4.1464   -3.9843 H   0  0  0  0  0  0  0  0  0  0  0  0
    3.5546   -0.9575   -2.3454 H   0  0  0  0  0  0  0  0  0  0  0  0
    2.9814   -2.3378   -3.2494 H   0  0  0  0  0  0  0  0  0  0  0  0
    2.2193   -2.3522   -0.9989 H   0  0  0  0  0  0  0  0  0  0  0  0
    3.0130   -3.7926   -1.2959 H   0  0  0  0  0  0  0  0  0  0  0  0
    2.6588   -0.8453    0.2808 H   0  0  0  0  0  0  0  0  0  0  0  0
    1.2504   -2.2368    1.1621 H   0  0  0  0  0  0  0  0  0  0  0  0
    1.2730   -3.7528    2.2045 H   0  0  0  0  0  0  0  0  0  0  0  0
  1  2  1  0
  1 29  1  0
  1 30  1  0
  1 31  1  0
  2 10  1  0
  2  3  2  0
  3  4  1  0
  3 32  1  0
  4 26  1  0
  4  5  1  6
  4  6  1  0
  5 33  1  0
  5 34  1  0
  5 35  1  0
  6 15  1  0
  6  7  1  1
  6  9  1  0
  7  8  1  0
  7 36  1  0
  7 37  1  0
  8 38  1  0
  9 10  1  0
  9 12  1  0
  9 39  1  6
 10 11  2  0
 12 13  1  0
 12 14  1  0
 12 40  1  1
 13 41  1  0
 13 42  1  0
 13 43  1  0
 14 15  1  0
 14 44  1  0
 14 45  1  0
 15 16  1  0
 15 46  1  6
 16 24  1  0
 16 17  1  1
 16 18  1  0
 17 47  1  0
 18 19  1  0
 18 20  1  0
 18 48  1  1
 19 49  1  0
 20 21  1  0
 20 22  1  0
 20 50  1  6
 21 51  1  0
 21 52  1  0
 21 53  1  0
 22 23  1  0
 22 54  1  0
 22 55  1  0
 23 24  1  0
 23 56  1  0
 23 57  1  0
 24 25  1  1
 24 26  1  0
 25 58  1  0
 26 28  1  1
 26 27  1  0
 27 28  1  0
 27 59  1  0
 27 60  1  0
M  END
>  <i_m_ct_stereo_status>  (278) 
1

>  <s_m_source_file>  (278) 
/var/tmp/pbs.5076255.sched01/tmpebi1rvwe/120qlbjc4nh.sdf

>  <i_m_source_file_index>  (278) 
4

>  <i_lp_mmshare_version>  (278) 
48012

>  <i_f3d_flags>  (278) 
0

>  <s_epik_input>  (278) 
TzFbQ0gyXVtDQF0xMltDQEBdMyhbQ0gzXSlbQ0BAXTQoW0NIMl1bT0hdKVtDQEhdKEMoPU8pQyhbQ0gzXSk9W0NIXTMpW0NAQEhdKFtDSDNdKVtDSDJdW0NAQEhdNFtDQF01KFtPSF0pW0NAQF0yKFtPSF0pW0NIMl1bQ0gyXVtDQEhdKFtDSDNdKVtDQEBIXTVbT0hd

>  <s_epik_cmdline>  (278) 
J2VwaWtfcHl0aG9uJywgJy1waHQnLCAnMi4wJywgJy1waCcsICc3LjAnLCAnLXRuJywgJzgnLCAnLW1hJywgJzIwMCcsICctaW1hZScsICc8aW5maWxlLm1hZT4nLCAnLW9tYWUnLCAnPG91dGZpbGUubWFlPic=

>  <r_lp_tautomer_probability>  (278) 
1

>  <r_epik_Ionization_Penalty>  (278) 
2.84059e-07

>  <r_epik_Ionization_Penalty_Charging>  (278) 
0

>  <r_epik_Ionization_Penalty_Neutral>  (278) 
2.84059e-07

>  <r_epik_State_Penalty>  (278) 
-0

>  <r_epik_Charging_Adjusted_Penalty>  (278) 
0

>  <i_epik_Tot_Q>  (278) 
0

>  <i_epik_Tot_abs_Q>  (278) 
0

>  <s_lp_Force_Field>  (278) 
OPLS3e

>  <r_lp_Energy>  (278) 
67.2084

>  <b_lp_Chiralities_Consistent>  (278) 
1

>  <s_lp_Variant>  (278) 
92:0-1

>  <s_i_glide_gridfile>  (278) 
pfpi4k_grid

>  <i_i_glide_lignum>  (278) 
4

>  <i_i_glide_rotatable_bonds>  (278) 
5

>  <r_i_docking_score>  (278) 
-3.53274

>  <r_i_glide_ligand_efficiency>  (278) 
-0.126169

>  <r_i_glide_ligand_efficiency_sa>  (278) 
-0.383124

>  <r_i_glide_ligand_efficiency_ln>  (278) 
-0.81546

>  <r_i_glide_gscore>  (278) 
-3.53274

>  <r_i_glide_lipo>  (278) 
-0.639002

>  <r_i_glide_hbond>  (278) 
0

>  <r_i_glide_metal>  (278) 
-0

>  <r_i_glide_rewards>  (278) 
-1.23574

>  <r_i_glide_evdw>  (278) 
-13.2536

>  <r_i_glide_ecoul>  (278) 
-7.48048

>  <r_i_glide_erotb>  (278) 
0.12675

>  <r_i_glide_esite>  (278) 
0

>  <r_i_glide_emodel>  (278) 
-17.5913

>  <r_i_glide_energy>  (278) 
-20.7341

>  <r_i_glide_einternal>  (278) 
15.6118

>  <r_i_glide_intrahb_reward>  (278) 
-0.5

>  <i_i_glide_confnum>  (278) 
6

>  <i_i_glide_posenum>  (278) 
2

>  <r_i_glide_eff_state_penalty>  (278) 
0

>  <ligand_id>  (278) 
92

>  <original_smiles>  (278) 
CC1=CC2(C)C3(CO)C(C1=O)C(C)CC3C1(O)C(O)C(C)CCC1(O)C21CO1

>  <smiles>  (278) 
[H]OC([H])([H])C12C3([H])C(=O)C(C([H])([H])[H])=C([H])C1(C([H])([H])[H])C1(OC1([H])[H])C1(O[H])C([H])([H])C([H])([H])C([H])(C([H])([H])[H])C([H])(O[H])C1(O[H])C2([H])C([H])([H])C3([H])C([H])([H])[H]

$$$$
92:0:1
     RDKit          3D

 60 64  0  0  1  0  0  0  0  0999 V2000
    4.0416   -7.0257    4.5666 C   0  0  0  0  0  0  0  0  0  0  0  0
    4.4653   -6.1893    3.3683 C   0  0  0  0  0  0  0  0  0  0  0  0
    3.6356   -5.3290    2.7230 C   0  0  0  0  0  0  0  0  0  0  0  0
    3.9940   -4.5845    1.4182 C   0  0  2  0  0  0  0  0  0  0  0  0
    3.5041   -5.5823    0.3278 C   0  0  0  0  0  0  0  0  0  0  0  0
    5.5100   -4.3397    1.4711 C   0  0  1  0  0  0  0  0  0  0  0  0
    5.9393   -3.4018    2.6674 C   0  0  0  0  0  0  0  0  0  0  0  0
    5.3795   -2.1414    2.9249 O   0  0  0  0  0  0  0  0  0  0  0  0
    6.2431   -5.6860    1.5781 C   0  0  2  0  0  0  0  0  0  0  0  0
    5.8641   -6.4086    2.8798 C   0  0  0  0  0  0  0  0  0  0  0  0
    6.6925   -7.1128    3.4466 O   0  0  0  0  0  0  0  0  0  0  0  0
    7.7163   -5.3560    1.2607 C   0  0  1  0  0  0  0  0  0  0  0  0
    8.5317   -6.5390    0.7189 C   0  0  0  0  0  0  0  0  0  0  0  0
    7.6065   -4.1763    0.2562 C   0  0  0  0  0  0  0  0  0  0  0  0
    6.0866   -3.8666    0.1396 C   0  0  2  0  0  0  0  0  0  0  0  0
    5.5508   -2.4678   -0.2672 C   0  0  1  0  0  0  0  0  0  0  0  0
    6.2317   -1.4900    0.5023 O   0  0  0  0  0  0  0  0  0  0  0  0
    5.9568   -2.0188   -1.6989 C   0  0  1  0  0  0  0  0  0  0  0  0
    7.3120   -2.3189   -1.9223 O   0  0  0  0  0  0  0  0  0  0  0  0
    5.0740   -2.4511   -2.8900 C   0  0  1  0  0  0  0  0  0  0  0  0
    5.1674   -3.9286   -3.2809 C   0  0  0  0  0  0  0  0  0  0  0  0
    3.6477   -2.0310   -2.6151 C   0  0  0  0  0  0  0  0  0  0  0  0
    3.1919   -2.6909   -1.3280 C   0  0  0  0  0  0  0  0  0  0  0  0
    3.9722   -2.3624   -0.0352 C   0  0  2  0  0  0  0  0  0  0  0  0
    3.6732   -0.9809    0.1869 O   0  0  0  0  0  0  0  0  0  0  0  0
    3.3325   -3.2065    1.1491 C   0  0  1  0  0  0  0  0  0  0  0  0
    1.8890   -3.0107    1.5396 C   0  0  0  0  0  0  0  0  0  0  0  0
    2.9210   -2.4631    2.3257 O   0  0  0  0  0  0  0  0  0  0  0  0
    4.6974   -6.8441    5.4159 H   0  0  0  0  0  0  0  0  0  0  0  0
    4.0846   -8.0916    4.3385 H   0  0  0  0  0  0  0  0  0  0  0  0
    3.0195   -6.8005    4.8680 H   0  0  0  0  0  0  0  0  0  0  0  0
    2.6204   -5.2323    3.0754 H   0  0  0  0  0  0  0  0  0  0  0  0
    3.8798   -5.4051   -0.6738 H   0  0  0  0  0  0  0  0  0  0  0  0
    2.4138   -5.5768    0.2638 H   0  0  0  0  0  0  0  0  0  0  0  0
    3.7806   -6.6144    0.5503 H   0  0  0  0  0  0  0  0  0  0  0  0
    6.0157   -3.9212    3.6133 H   0  0  0  0  0  0  0  0  0  0  0  0
    6.9195   -3.0764    2.3895 H   0  0  0  0  0  0  0  0  0  0  0  0
    5.7368   -1.7759    3.7392 H   0  0  0  0  0  0  0  0  0  0  0  0
    5.9117   -6.3497    0.7828 H   0  0  0  0  0  0  0  0  0  0  0  0
    8.2169   -5.0098    2.1687 H   0  0  0  0  0  0  0  0  0  0  0  0
    8.1209   -6.9496   -0.1950 H   0  0  0  0  0  0  0  0  0  0  0  0
    8.6066   -7.3467    1.4484 H   0  0  0  0  0  0  0  0  0  0  0  0
    9.5379   -6.2159    0.4691 H   0  0  0  0  0  0  0  0  0  0  0  0
    8.1795   -3.3233    0.6212 H   0  0  0  0  0  0  0  0  0  0  0  0
    8.0495   -4.4281   -0.7141 H   0  0  0  0  0  0  0  0  0  0  0  0
    5.7556   -4.5449   -0.6320 H   0  0  0  0  0  0  0  0  0  0  0  0
    5.9484   -1.6087    1.4078 H   0  0  0  0  0  0  0  0  0  0  0  0
    5.8748   -0.9347   -1.7179 H   0  0  0  0  0  0  0  0  0  0  0  0
    7.3655   -3.0813   -2.4917 H   0  0  0  0  0  0  0  0  0  0  0  0
    5.3838   -1.8918   -3.7690 H   0  0  0  0  0  0  0  0  0  0  0  0
    4.7295   -4.6039   -2.5502 H   0  0  0  0  0  0  0  0  0  0  0  0
    6.2197   -4.1903   -3.3735 H   0  0  0  0  0  0  0  0  0  0  0  0
    4.6652   -4.1229   -4.2325 H   0  0  0  0  0  0  0  0  0  0  0  0
    3.5740   -0.9452   -2.5399 H   0  0  0  0  0  0  0  0  0  0  0  0
    2.9851   -2.3136   -3.4331 H   0  0  0  0  0  0  0  0  0  0  0  0
    2.2047   -2.2846   -1.1891 H   0  0  0  0  0  0  0  0  0  0  0  0
    3.0282   -3.7504   -1.4884 H   0  0  0  0  0  0  0  0  0  0  0  0
    2.7362   -0.8452    0.0985 H   0  0  0  0  0  0  0  0  0  0  0  0
    1.3201   -2.2593    1.0103 H   0  0  0  0  0  0  0  0  0  0  0  0
    1.3717   -3.7778    2.0868 H   0  0  0  0  0  0  0  0  0  0  0  0
  1  2  1  0
  1 29  1  0
  1 30  1  0
  1 31  1  0
  2 10  1  0
  2  3  2  0
  3  4  1  0
  3 32  1  0
  4 26  1  0
  4  5  1  6
  4  6  1  0
  5 33  1  0
  5 34  1  0
  5 35  1  0
  6 15  1  0
  6  7  1  1
  6  9  1  0
  7  8  1  0
  7 36  1  0
  7 37  1  0
  8 38  1  0
  9 10  1  0
  9 12  1  0
  9 39  1  6
 10 11  2  0
 12 13  1  0
 12 14  1  0
 12 40  1  1
 13 41  1  0
 13 42  1  0
 13 43  1  0
 14 15  1  0
 14 44  1  0
 14 45  1  0
 15 16  1  0
 15 46  1  6
 16 24  1  0
 16 17  1  1
 16 18  1  0
 17 47  1  0
 18 19  1  0
 18 20  1  0
 18 48  1  1
 19 49  1  0
 20 21  1  0
 20 22  1  0
 20 50  1  6
 21 51  1  0
 21 52  1  0
 21 53  1  0
 22 23  1  0
 22 54  1  0
 22 55  1  0
 23 24  1  0
 23 56  1  0
 23 57  1  0
 24 25  1  1
 24 26  1  0
 25 58  1  0
 26 28  1  1
 26 27  1  0
 27 28  1  0
 27 59  1  0
 27 60  1  0
M  END
>  <i_m_ct_stereo_status>  (279) 
1

>  <s_m_source_file>  (279) 
/var/tmp/pbs.5076255.sched01/tmpebi1rvwe/120qlbjc4nh.sdf

>  <i_m_source_file_index>  (279) 
4

>  <i_lp_mmshare_version>  (279) 
48012

>  <i_f3d_flags>  (279) 
0

>  <s_epik_input>  (279) 
TzFbQ0gyXVtDQF0xMltDQEBdMyhbQ0gzXSlbQ0BAXTQoW0NIMl1bT0hdKVtDQEhdKEMoPU8pQyhbQ0gzXSk9W0NIXTMpW0NAQEhdKFtDSDNdKVtDSDJdW0NAQEhdNFtDQF01KFtPSF0pW0NAQF0yKFtPSF0pW0NIMl1bQ0gyXVtDQEhdKFtDSDNdKVtDQEBIXTVbT0hd

>  <s_epik_cmdline>  (279) 
J2VwaWtfcHl0aG9uJywgJy1waHQnLCAnMi4wJywgJy1waCcsICc3LjAnLCAnLXRuJywgJzgnLCAnLW1hJywgJzIwMCcsICctaW1hZScsICc8aW5maWxlLm1hZT4nLCAnLW9tYWUnLCAnPG91dGZpbGUubWFlPic=

>  <r_lp_tautomer_probability>  (279) 
1

>  <r_epik_Ionization_Penalty>  (279) 
2.84059e-07

>  <r_epik_Ionization_Penalty_Charging>  (279) 
0

>  <r_epik_Ionization_Penalty_Neutral>  (279) 
2.84059e-07

>  <r_epik_State_Penalty>  (279) 
-0

>  <r_epik_Charging_Adjusted_Penalty>  (279) 
0

>  <i_epik_Tot_Q>  (279) 
0

>  <i_epik_Tot_abs_Q>  (279) 
0

>  <s_lp_Force_Field>  (279) 
OPLS3e

>  <r_lp_Energy>  (279) 
67.2084

>  <b_lp_Chiralities_Consistent>  (279) 
1

>  <s_lp_Variant>  (279) 
92:0-1

>  <s_i_glide_gridfile>  (279) 
pfpi4k_grid

>  <i_i_glide_lignum>  (279) 
4

>  <i_i_glide_rotatable_bonds>  (279) 
5

>  <r_i_docking_score>  (279) 
-2.64585

>  <r_i_glide_ligand_efficiency>  (279) 
-0.0944947

>  <r_i_glide_ligand_efficiency_sa>  (279) 
-0.286942

>  <r_i_glide_ligand_efficiency_ln>  (279) 
-0.61074

>  <r_i_glide_gscore>  (279) 
-2.64585

>  <r_i_glide_lipo>  (279) 
-0.643036

>  <r_i_glide_hbond>  (279) 
0

>  <r_i_glide_metal>  (279) 
-0

>  <r_i_glide_rewards>  (279) 
-0.741443

>  <r_i_glide_evdw>  (279) 
-6.8579

>  <r_i_glide_ecoul>  (279) 
-6.96818

>  <r_i_glide_erotb>  (279) 
0.12675

>  <r_i_glide_esite>  (279) 
0

>  <r_i_glide_emodel>  (279) 
-8.74248

>  <r_i_glide_energy>  (279) 
-13.8261

>  <r_i_glide_einternal>  (279) 
10.5563

>  <r_i_glide_intrahb_reward>  (279) 
-0

>  <i_i_glide_confnum>  (279) 
3

>  <i_i_glide_posenum>  (279) 
38

>  <r_i_glide_eff_state_penalty>  (279) 
0

>  <ligand_id>  (279) 
92

>  <original_smiles>  (279) 
CC1=CC2(C)C3(CO)C(C1=O)C(C)CC3C1(O)C(O)C(C)CCC1(O)C21CO1

>  <smiles>  (279) 
[H]OC([H])([H])C12C3([H])C(=O)C(C([H])([H])[H])=C([H])C1(C([H])([H])[H])C1(OC1([H])[H])C1(O[H])C([H])([H])C([H])([H])C([H])(C([H])([H])[H])C([H])(O[H])C1(O[H])C2([H])C([H])([H])C3([H])C([H])([H])[H]

$$$$
94:0:0
     RDKit          3D

 99103  0  0  1  0  0  0  0  0999 V2000
    1.2423   -6.4285    7.9958 C   0  0  0  0  0  0  0  0  0  0  0  0
    2.1745   -7.0086    7.0926 O   0  0  0  0  0  0  0  0  0  0  0  0
    1.9120   -7.0982    5.6793 C   0  0  2  0  0  0  0  0  0  0  0  0
    3.1075   -8.1345    5.2220 C   0  0  0  0  0  0  0  0  0  0  0  0
    3.7338   -8.2432    3.7318 C   0  0  2  0  0  0  0  0  0  0  0  0
    3.5114   -9.6324    3.1456 C   0  0  0  0  0  0  0  0  0  0  0  0
    3.6708  -10.8261    3.7681 C   0  0  0  0  0  0  0  0  0  0  0  0
    3.3022  -12.1050    3.0577 C   0  0  0  0  0  0  0  0  0  0  0  0
    4.1871  -11.0784    5.1628 C   0  0  0  0  0  0  0  0  0  0  0  0
    5.0104   -7.4922    3.1049 C   0  0  0  0  0  0  0  0  0  0  0  0
    4.6364   -5.9504    2.7436 C   0  0  1  0  0  0  0  0  0  0  0  0
    5.8822   -5.0354    2.7226 C   0  0  0  0  0  0  0  0  0  0  0  0
    3.4505   -5.5998    1.7389 C   0  0  2  0  0  0  0  0  0  0  0  0
    3.7508   -5.0256    0.2933 C   0  0  2  0  0  0  0  0  0  0  0  0
    4.9572   -5.7050   -0.4019 C   0  0  0  0  0  0  0  0  0  0  0  0
    3.7718   -3.4670    0.2165 C   0  0  2  0  0  0  0  0  0  0  0  0
    2.4231   -3.0447    0.2693 O   0  0  0  0  0  0  0  0  0  0  0  0
    4.4636   -2.8192   -1.0306 C   0  0  0  0  0  0  0  0  0  0  0  0
    3.9093   -3.1387   -2.4513 C   0  0  0  0  0  0  0  0  0  0  0  0
    4.9148   -2.7081   -3.5162 C   0  0  0  0  0  0  0  0  0  0  0  0
    2.5302   -2.5325   -2.7672 C   0  0  0  0  0  0  0  0  0  0  0  0
    2.4094   -4.8550    2.4828 O   0  0  0  0  0  0  0  0  0  0  0  0
    2.6051   -4.9102    3.9205 C   0  0  1  0  0  0  0  0  0  0  0  0
    2.9056   -3.4490    4.3129 C   0  0  0  0  0  0  0  0  0  0  0  0
    1.7704   -2.4770    4.0540 C   0  0  0  0  0  0  0  0  0  0  0  0
    1.8361   -1.3128    3.3732 C   0  0  0  0  0  0  0  0  0  0  0  0
    0.6106   -0.4376    3.2224 C   0  0  0  0  0  0  0  0  0  0  0  0
    3.0833   -0.7471    2.7029 C   0  0  0  0  0  0  0  0  0  0  0  0
    1.6322   -5.6157    4.9943 C   0  0  1  0  0  0  0  0  0  0  0  0
    0.2418   -5.7770    4.4170 C   0  0  0  0  0  0  0  0  0  0  0  0
   -0.3147   -6.9565    4.6394 C   0  0  0  0  0  0  0  0  0  0  0  0
   -1.7064   -7.4830    4.3116 C   0  0  0  0  0  0  0  0  0  0  0  0
    0.5549   -7.7909    5.4781 C   0  0  0  0  0  0  0  0  0  0  0  0
    0.2670   -8.8719    5.9747 O   0  0  0  0  0  0  0  0  0  0  0  0
    3.7233   -5.8823    3.8909 C   0  0  2  0  0  0  0  0  0  0  0  0
    4.5858   -5.7731    5.2594 C   0  0  0  0  0  0  0  0  0  0  0  0
    5.2391   -4.5248    5.4894 O   0  0  0  0  0  0  0  0  0  0  0  0
    5.7816   -4.2698    6.6914 C   0  0  0  0  0  0  0  0  0  0  0  0
    6.0906   -2.7923    6.8862 C   0  0  0  0  0  0  0  0  0  0  0  0
    5.9724   -5.0916    7.5860 O   0  0  0  0  0  0  0  0  0  0  0  0
    2.9344   -7.1643    3.2128 C   0  0  1  0  0  0  0  0  0  0  0  0
    2.8153   -6.9593    1.6885 C   0  0  1  0  0  0  0  0  0  0  0  0
    1.3767   -7.0426    1.1302 C   0  0  0  0  0  0  0  0  0  0  0  0
    1.5493   -6.7206    9.0019 H   0  0  0  0  0  0  0  0  0  0  0  0
    0.2109   -6.7612    7.8778 H   0  0  0  0  0  0  0  0  0  0  0  0
    1.2813   -5.3425    7.9441 H   0  0  0  0  0  0  0  0  0  0  0  0
    3.9057   -8.0879    5.9514 H   0  0  0  0  0  0  0  0  0  0  0  0
    2.7201   -9.1336    5.4344 H   0  0  0  0  0  0  0  0  0  0  0  0
    3.1706   -9.6339    2.1189 H   0  0  0  0  0  0  0  0  0  0  0  0
    4.1873  -12.7332    2.8853 H   0  0  0  0  0  0  0  0  0  0  0  0
    2.8598  -11.8718    2.1309 H   0  0  0  0  0  0  0  0  0  0  0  0
    2.5876  -12.6155    3.6587 H   0  0  0  0  0  0  0  0  0  0  0  0
    3.4091  -11.6347    5.6815 H   0  0  0  0  0  0  0  0  0  0  0  0
    4.3803  -10.1567    5.7237 H   0  0  0  0  0  0  0  0  0  0  0  0
    5.0471  -11.7459    5.0968 H   0  0  0  0  0  0  0  0  0  0  0  0
    5.8666   -7.6093    3.7646 H   0  0  0  0  0  0  0  0  0  0  0  0
    5.3347   -8.0023    2.1981 H   0  0  0  0  0  0  0  0  0  0  0  0
    5.6412   -3.9824    2.8519 H   0  0  0  0  0  0  0  0  0  0  0  0
    6.4413   -5.1324    1.8004 H   0  0  0  0  0  0  0  0  0  0  0  0
    6.5997   -5.3200    3.4953 H   0  0  0  0  0  0  0  0  0  0  0  0
    2.8965   -5.3060   -0.3197 H   0  0  0  0  0  0  0  0  0  0  0  0
    5.8880   -5.1902   -0.1747 H   0  0  0  0  0  0  0  0  0  0  0  0
    4.8633   -5.6732   -1.4851 H   0  0  0  0  0  0  0  0  0  0  0  0
    5.0480   -6.7517   -0.1110 H   0  0  0  0  0  0  0  0  0  0  0  0
    4.2582   -3.0718    1.1084 H   0  0  0  0  0  0  0  0  0  0  0  0
    2.2902   -2.3405   -0.3532 H   0  0  0  0  0  0  0  0  0  0  0  0
    4.5000   -1.7250   -0.9035 H   0  0  0  0  0  0  0  0  0  0  0  0
    5.5188   -3.1134   -1.0032 H   0  0  0  0  0  0  0  0  0  0  0  0
    3.8147   -4.2255   -2.5867 H   0  0  0  0  0  0  0  0  0  0  0  0
    5.0098   -1.6153   -3.5149 H   0  0  0  0  0  0  0  0  0  0  0  0
    4.5784   -3.0145   -4.5049 H   0  0  0  0  0  0  0  0  0  0  0  0
    5.8976   -3.1574   -3.3568 H   0  0  0  0  0  0  0  0  0  0  0  0
    2.5364   -1.4464   -2.5875 H   0  0  0  0  0  0  0  0  0  0  0  0
    1.7475   -2.9849   -2.1579 H   0  0  0  0  0  0  0  0  0  0  0  0
    2.2481   -2.7034   -3.8113 H   0  0  0  0  0  0  0  0  0  0  0  0
    3.0807   -3.3706    5.3828 H   0  0  0  0  0  0  0  0  0  0  0  0
    3.8152   -3.1574    3.8037 H   0  0  0  0  0  0  0  0  0  0  0  0
    0.8268   -2.7661    4.5000 H   0  0  0  0  0  0  0  0  0  0  0  0
    0.7788    0.5336    3.6901 H   0  0  0  0  0  0  0  0  0  0  0  0
   -0.2702   -0.8893    3.6804 H   0  0  0  0  0  0  0  0  0  0  0  0
    0.4025   -0.2733    2.1653 H   0  0  0  0  0  0  0  0  0  0  0  0
    2.9341   -0.7402    1.6218 H   0  0  0  0  0  0  0  0  0  0  0  0
    4.0032   -1.2893    2.9175 H   0  0  0  0  0  0  0  0  0  0  0  0
    3.2343    0.2878    3.0165 H   0  0  0  0  0  0  0  0  0  0  0  0
    1.4954   -4.9148    5.8195 H   0  0  0  0  0  0  0  0  0  0  0  0
   -0.1969   -4.9490    3.8720 H   0  0  0  0  0  0  0  0  0  0  0  0
   -2.1590   -7.7754    5.2717 H   0  0  0  0  0  0  0  0  0  0  0  0
   -1.6546   -8.3653    3.6509 H   0  0  0  0  0  0  0  0  0  0  0  0
   -2.3241   -6.7088    3.8439 H   0  0  0  0  0  0  0  0  0  0  0  0
    3.9697   -5.8893    6.1441 H   0  0  0  0  0  0  0  0  0  0  0  0
    5.3544   -6.5367    5.3576 H   0  0  0  0  0  0  0  0  0  0  0  0
    5.1839   -2.2459    7.1492 H   0  0  0  0  0  0  0  0  0  0  0  0
    6.4852   -2.3694    5.9671 H   0  0  0  0  0  0  0  0  0  0  0  0
    6.8186   -2.6504    7.6832 H   0  0  0  0  0  0  0  0  0  0  0  0
    1.8943   -7.3908    3.3662 H   0  0  0  0  0  0  0  0  0  0  0  0
    3.4447   -7.6439    1.1235 H   0  0  0  0  0  0  0  0  0  0  0  0
    0.6900   -6.3437    1.6098 H   0  0  0  0  0  0  0  0  0  0  0  0
    0.9911   -8.0587    1.2532 H   0  0  0  0  0  0  0  0  0  0  0  0
    1.3660   -6.8030    0.0774 H   0  0  0  0  0  0  0  0  0  0  0  0
  1  2  1  0
  1 44  1  0
  1 45  1  0
  1 46  1  0
  3  2  1  1
  3 29  1  0
  3 33  1  0
  3  4  1  0
  5  4  1  1
  4 47  1  0
  4 48  1  0
  5 41  1  0
  5  6  1  0
  5 10  1  0
  6  7  2  3
  6 49  1  0
  7  8  1  0
  7  9  1  0
  8 50  1  0
  8 51  1  0
  8 52  1  0
  9 53  1  0
  9 54  1  0
  9 55  1  0
 10 11  1  0
 10 56  1  0
 10 57  1  0
 11 35  1  0
 11 12  1  1
 11 13  1  0
 12 58  1  0
 12 59  1  0
 12 60  1  0
 13 42  1  0
 13 14  1  0
 13 22  1  1
 14 15  1  0
 14 16  1  0
 14 61  1  6
 15 62  1  0
 15 63  1  0
 15 64  1  0
 16 17  1  0
 16 18  1  0
 16 65  1  1
 17 66  1  0
 18 19  1  0
 18 67  1  0
 18 68  1  0
 19 20  1  0
 19 21  1  0
 19 69  1  0
 20 70  1  0
 20 71  1  0
 20 72  1  0
 21 73  1  0
 21 74  1  0
 21 75  1  0
 22 23  1  0
 23 24  1  1
 23 29  1  0
 23 35  1  0
 24 25  1  0
 24 76  1  0
 24 77  1  0
 25 26  2  3
 25 78  1  0
 26 27  1  0
 26 28  1  0
 27 79  1  0
 27 80  1  0
 27 81  1  0
 28 82  1  0
 28 83  1  0
 28 84  1  0
 29 30  1  0
 29 85  1  1
 30 31  2  0
 30 86  1  0
 31 32  1  0
 31 33  1  0
 32 87  1  0
 32 88  1  0
 32 89  1  0
 33 34  2  0
 35 36  1  1
 35 41  1  0
 36 37  1  0
 36 90  1  0
 36 91  1  0
 37 38  1  0
 38 39  1  0
 38 40  2  0
 39 92  1  0
 39 93  1  0
 39 94  1  0
 41 42  1  0
 41 95  1  1
 42 43  1  0
 42 96  1  6
 43 97  1  0
 43 98  1  0
 43 99  1  0
M  END
>  <i_m_ct_stereo_status>  (280) 
1

>  <s_m_source_file>  (280) 
/var/tmp/pbs.5076255.sched01/tmpebi1rvwe/120qlbjc4nh.sdf

>  <i_m_source_file_index>  (280) 
6

>  <i_lp_mmshare_version>  (280) 
48012

>  <i_f3d_flags>  (280) 
0

>  <s_epik_input>  (280) 
Tz1DMUMoW0NIM10pPVtDSF1bQ0BASF0oW0NAQF0xMk9bQ0gzXSlbQ0BAXTMoW0NIMl1bQ0hdPUMoW0NIM10pW0NIM10pW0NAXTQoW0NIMl1PQyg9TylbQ0gzXSlbQ0BdNShbQ0gzXSlbQ0BAXShPMykoW0NASF0oW0NIM10pW0NASF0oW09IXSlbQ0gyXVtDSF0oW0NIM10pW0NIM10pW0NASF0oW0NIM10pW0NASF00W0NAXShbQ0gyXTIpKFtDSDJdNSlbQ0hdPUMoW0NIM10pW0NIM10=

>  <s_epik_cmdline>  (280) 
J2VwaWtfcHl0aG9uJywgJy1waHQnLCAnMi4wJywgJy1waCcsICc3LjAnLCAnLXRuJywgJzgnLCAnLW1hJywgJzIwMCcsICctaW1hZScsICc8aW5maWxlLm1hZT4nLCAnLW9tYWUnLCAnPG91dGZpbGUubWFlPic=

>  <r_lp_tautomer_probability>  (280) 
1

>  <r_epik_Ionization_Penalty>  (280) 
6.03077e-07

>  <r_epik_Ionization_Penalty_Charging>  (280) 
0

>  <r_epik_Ionization_Penalty_Neutral>  (280) 
6.03077e-07

>  <r_epik_State_Penalty>  (280) 
-0

>  <r_epik_Charging_Adjusted_Penalty>  (280) 
0

>  <i_epik_Tot_Q>  (280) 
0

>  <i_epik_Tot_abs_Q>  (280) 
0

>  <s_epik_Chemistry_Notes>  (280) 
This compound has an ester and may undergo hydrolysis at high or low pH.

>  <s_lp_Force_Field>  (280) 
OPLS3e

>  <r_lp_Energy>  (280) 
198.104

>  <b_lp_Chiralities_Consistent>  (280) 
1

>  <s_lp_Variant>  (280) 
94:0-1

>  <s_i_glide_gridfile>  (280) 
pfpi4k_grid

>  <i_i_glide_lignum>  (280) 
6

>  <i_i_glide_rotatable_bonds>  (280) 
12

>  <r_i_docking_score>  (280) 
-1.07536

>  <r_i_glide_ligand_efficiency>  (280) 
-0.0250085

>  <r_i_glide_ligand_efficiency_sa>  (280) 
-0.0876146

>  <r_i_glide_ligand_efficiency_ln>  (280) 
-0.22586

>  <r_i_glide_gscore>  (280) 
-1.07536

>  <r_i_glide_lipo>  (280) 
-0.168609

>  <r_i_glide_hbond>  (280) 
0

>  <r_i_glide_metal>  (280) 
-0

>  <r_i_glide_rewards>  (280) 
-0.00197596

>  <r_i_glide_evdw>  (280) 
-23.2626

>  <r_i_glide_ecoul>  (280) 
-0.521726

>  <r_i_glide_erotb>  (280) 
0.357179

>  <r_i_glide_esite>  (280) 
-0.0205703

>  <r_i_glide_emodel>  (280) 
-17.6079

>  <r_i_glide_energy>  (280) 
-23.7843

>  <r_i_glide_einternal>  (280) 
9.46798

>  <r_i_glide_intrahb_reward>  (280) 
-0

>  <i_i_glide_confnum>  (280) 
10

>  <i_i_glide_posenum>  (280) 
31

>  <r_i_glide_eff_state_penalty>  (280) 
0

>  <ligand_id>  (280) 
94

>  <original_smiles>  (280) 
COC12CC3(C=C(C)C)CC4(C)C5(C(C)C(O)CC(C)C)OC(CC=C(C)C)(C1C=C(C)C2=O)C4(COC(C)=O)C3C5C

>  <smiles>  (280) 
[H]OC([H])(C([H])([H])C([H])(C([H])([H])[H])C([H])([H])[H])C([H])(C([H])([H])[H])C12OC3(C([H])([H])C([H])=C(C([H])([H])[H])C([H])([H])[H])C4([H])C([H])=C(C([H])([H])[H])C(=O)C4(OC([H])([H])[H])C([H])([H])C4(C([H])=C(C([H])([H])[H])C([H])([H])[H])C([H])([H])C1(C([H])([H])[H])C3(C([H])([H])OC(=O)C([H])([H])[H])C4([H])C2([H])C([H])([H])[H]

$$$$
95:0:0
     RDKit          3D

 22 24  0  0  1  0  0  0  0  0999 V2000
    4.0474   -0.3451   -3.0307 C   0  0  0  0  0  0  0  0  0  0  0  0
    4.7005   -1.1094   -2.0465 C   0  0  0  0  0  0  0  0  0  0  0  0
    4.4960   -2.5013   -2.0313 C   0  0  0  0  0  0  0  0  0  0  0  0
    5.2100   -3.3080   -1.1175 N   0  0  0  0  0  0  0  0  0  0  0  0
    4.6619   -4.3882   -0.5252 C   0  0  0  0  0  0  0  0  0  0  0  0
    5.4432   -5.0536    0.3294 N   0  0  0  0  0  0  0  0  0  0  0  0
    6.6231   -4.3275    0.2592 C   0  0  0  0  0  0  0  0  0  0  0  0
    7.8901   -4.4954    0.8676 C   0  0  0  0  0  0  0  0  0  0  0  0
    8.8778   -3.6300    0.5379 N   0  0  0  0  0  0  0  0  0  0  0  0
    8.6143   -2.6148   -0.2941 C   0  0  0  0  0  0  0  0  0  0  0  0
    7.4706   -2.3067   -0.9183 N   0  0  0  0  0  0  0  0  0  0  0  0
    6.5020   -3.2209   -0.6271 C   0  0  0  0  0  0  0  0  0  0  0  0
    3.6251   -3.0578   -2.9869 C   0  0  0  0  0  0  0  0  0  0  0  0
    3.0083   -2.2022   -3.9111 C   0  0  0  0  0  0  0  0  0  0  0  0
    3.2388   -0.8787   -3.9663 N   0  0  0  0  0  0  0  0  0  0  0  0
    4.2031    0.7218   -3.0826 H   0  0  0  0  0  0  0  0  0  0  0  0
    5.3565   -0.6300   -1.3326 H   0  0  0  0  0  0  0  0  0  0  0  0
    3.6433   -4.6982   -0.7111 H   0  0  0  0  0  0  0  0  0  0  0  0
    8.1231   -5.2919    1.5606 H   0  0  0  0  0  0  0  0  0  0  0  0
    9.4133   -1.9112   -0.4479 H   0  0  0  0  0  0  0  0  0  0  0  0
    3.4442   -4.1142   -3.0466 H   0  0  0  0  0  0  0  0  0  0  0  0
    2.3487   -2.6097   -4.6540 H   0  0  0  0  0  0  0  0  0  0  0  0
  1 15  2  0
  1  2  1  0
  1 16  1  0
  2  3  2  0
  2 17  1  0
  3  4  1  0
  3 13  1  0
  4 12  1  0
  4  5  1  0
  5  6  2  0
  5 18  1  0
  6  7  1  0
  7 12  2  0
  7  8  1  0
  8  9  2  0
  8 19  1  0
  9 10  1  0
 10 11  2  0
 10 20  1  0
 11 12  1  0
 13 14  2  0
 13 21  1  0
 14 15  1  0
 14 22  1  0
M  END
>  <i_m_ct_stereo_status>  (281) 
1

>  <s_m_source_file>  (281) 
/var/tmp/pbs.5076255.sched01/tmpebi1rvwe/120qlbjc4nh.sdf

>  <i_m_source_file_index>  (281) 
7

>  <i_lp_mmshare_version>  (281) 
48012

>  <i_f3d_flags>  (281) 
0

>  <s_epik_input>  (281) 
W2NIXTFbY0hdbltjSF1bY0hdYzEtbihbY0hdbjIpYyhjMjMpbltjSF1uW2NIXTM=

>  <s_epik_cmdline>  (281) 
J2VwaWtfcHl0aG9uJywgJy1waHQnLCAnMi4wJywgJy1waCcsICc3LjAnLCAnLXRuJywgJzgnLCAnLW1hJywgJzIwMCcsICctaW1hZScsICc8aW5maWxlLm1hZT4nLCAnLW9tYWUnLCAnPG91dGZpbGUubWFlPic=

>  <r_lp_tautomer_probability>  (281) 
1

>  <r_epik_Ionization_Penalty>  (281) 
4.64268e-05

>  <r_epik_Ionization_Penalty_Charging>  (281) 
0

>  <r_epik_Ionization_Penalty_Neutral>  (281) 
4.64268e-05

>  <r_epik_State_Penalty>  (281) 
-0

>  <r_epik_Charging_Adjusted_Penalty>  (281) 
0

>  <i_epik_Tot_Q>  (281) 
0

>  <i_epik_Tot_abs_Q>  (281) 
0

>  <s_lp_Force_Field>  (281) 
OPLS3e

>  <r_lp_Energy>  (281) 
25.7432

>  <b_lp_Chiralities_Consistent>  (281) 
1

>  <s_lp_Variant>  (281) 
95:0-1

>  <s_i_glide_gridfile>  (281) 
pfpi4k_grid

>  <i_i_glide_lignum>  (281) 
7

>  <i_i_glide_rotatable_bonds>  (281) 
1

>  <r_i_docking_score>  (281) 
-4.86912

>  <r_i_glide_ligand_efficiency>  (281) 
-0.324608

>  <r_i_glide_ligand_efficiency_sa>  (281) 
-0.800552

>  <r_i_glide_ligand_efficiency_ln>  (281) 
-1.31312

>  <r_i_glide_gscore>  (281) 
-4.86912

>  <r_i_glide_lipo>  (281) 
-0.627626

>  <r_i_glide_hbond>  (281) 
-0.163612

>  <r_i_glide_metal>  (281) 
-0

>  <r_i_glide_rewards>  (281) 
-2.28647

>  <r_i_glide_evdw>  (281) 
-22.5874

>  <r_i_glide_ecoul>  (281) 
-6.86864

>  <r_i_glide_erotb>  (281) 
0.418047

>  <r_i_glide_esite>  (281) 
-0.0497935

>  <r_i_glide_emodel>  (281) 
-38.5069

>  <r_i_glide_energy>  (281) 
-29.456

>  <r_i_glide_einternal>  (281) 
0.172639

>  <r_i_glide_intrahb_reward>  (281) 
-0

>  <i_i_glide_confnum>  (281) 
2

>  <i_i_glide_posenum>  (281) 
35

>  <r_i_glide_eff_state_penalty>  (281) 
0

>  <ligand_id>  (281) 
95

>  <original_smiles>  (281) 
c1cc(-n2cnc3cncnc32)ccn1

>  <smiles>  (281) 
[H]c1nc([H])c2nc([H])n(-c3c([H])c([H])nc([H])c3[H])c2n1

$$$$
95:0:1
     RDKit          3D

 22 24  0  0  1  0  0  0  0  0999 V2000
    4.1221   -0.6929   -3.1767 C   0  0  0  0  0  0  0  0  0  0  0  0
    4.1050   -1.1282   -1.8446 C   0  0  0  0  0  0  0  0  0  0  0  0
    3.4495   -2.3367   -1.5300 C   0  0  0  0  0  0  0  0  0  0  0  0
    3.3959   -2.7742   -0.1828 N   0  0  0  0  0  0  0  0  0  0  0  0
    3.2876   -4.0833    0.1388 C   0  0  0  0  0  0  0  0  0  0  0  0
    3.2553   -4.3686    1.4407 N   0  0  0  0  0  0  0  0  0  0  0  0
    3.3785   -3.1120    2.0133 C   0  0  0  0  0  0  0  0  0  0  0  0
    3.4566   -2.6713    3.3555 C   0  0  0  0  0  0  0  0  0  0  0  0
    3.5766   -1.3421    3.5983 N   0  0  0  0  0  0  0  0  0  0  0  0
    3.6128   -0.4836    2.5698 C   0  0  0  0  0  0  0  0  0  0  0  0
    3.5683   -0.7490    1.2627 N   0  0  0  0  0  0  0  0  0  0  0  0
    3.4510   -2.0901    1.0239 C   0  0  0  0  0  0  0  0  0  0  0  0
    2.8444   -3.0536   -2.5867 C   0  0  0  0  0  0  0  0  0  0  0  0
    2.9579   -2.5468   -3.8936 C   0  0  0  0  0  0  0  0  0  0  0  0
    3.5959   -1.3982   -4.1964 N   0  0  0  0  0  0  0  0  0  0  0  0
    4.5835    0.2518   -3.4172 H   0  0  0  0  0  0  0  0  0  0  0  0
    4.5559   -0.5099   -1.0843 H   0  0  0  0  0  0  0  0  0  0  0  0
    3.2323   -4.8632   -0.6059 H   0  0  0  0  0  0  0  0  0  0  0  0
    3.4382   -3.3413    4.2074 H   0  0  0  0  0  0  0  0  0  0  0  0
    3.7054    0.5631    2.8182 H   0  0  0  0  0  0  0  0  0  0  0  0
    2.2830   -3.9586   -2.4308 H   0  0  0  0  0  0  0  0  0  0  0  0
    2.5206   -3.0742   -4.7207 H   0  0  0  0  0  0  0  0  0  0  0  0
  1 15  2  0
  1  2  1  0
  1 16  1  0
  2  3  2  0
  2 17  1  0
  3  4  1  0
  3 13  1  0
  4 12  1  0
  4  5  1  0
  5  6  2  0
  5 18  1  0
  6  7  1  0
  7 12  2  0
  7  8  1  0
  8  9  2  0
  8 19  1  0
  9 10  1  0
 10 11  2  0
 10 20  1  0
 11 12  1  0
 13 14  2  0
 13 21  1  0
 14 15  1  0
 14 22  1  0
M  END
>  <i_m_ct_stereo_status>  (282) 
1

>  <s_m_source_file>  (282) 
/var/tmp/pbs.5076255.sched01/tmpebi1rvwe/120qlbjc4nh.sdf

>  <i_m_source_file_index>  (282) 
7

>  <i_lp_mmshare_version>  (282) 
48012

>  <i_f3d_flags>  (282) 
0

>  <s_epik_input>  (282) 
W2NIXTFbY0hdbltjSF1bY0hdYzEtbihbY0hdbjIpYyhjMjMpbltjSF1uW2NIXTM=

>  <s_epik_cmdline>  (282) 
J2VwaWtfcHl0aG9uJywgJy1waHQnLCAnMi4wJywgJy1waCcsICc3LjAnLCAnLXRuJywgJzgnLCAnLW1hJywgJzIwMCcsICctaW1hZScsICc8aW5maWxlLm1hZT4nLCAnLW9tYWUnLCAnPG91dGZpbGUubWFlPic=

>  <r_lp_tautomer_probability>  (282) 
1

>  <r_epik_Ionization_Penalty>  (282) 
4.64268e-05

>  <r_epik_Ionization_Penalty_Charging>  (282) 
0

>  <r_epik_Ionization_Penalty_Neutral>  (282) 
4.64268e-05

>  <r_epik_State_Penalty>  (282) 
-0

>  <r_epik_Charging_Adjusted_Penalty>  (282) 
0

>  <i_epik_Tot_Q>  (282) 
0

>  <i_epik_Tot_abs_Q>  (282) 
0

>  <s_lp_Force_Field>  (282) 
OPLS3e

>  <r_lp_Energy>  (282) 
25.7432

>  <b_lp_Chiralities_Consistent>  (282) 
1

>  <s_lp_Variant>  (282) 
95:0-1

>  <s_i_glide_gridfile>  (282) 
pfpi4k_grid

>  <i_i_glide_lignum>  (282) 
7

>  <i_i_glide_rotatable_bonds>  (282) 
1

>  <r_i_docking_score>  (282) 
-3.80159

>  <r_i_glide_ligand_efficiency>  (282) 
-0.253439

>  <r_i_glide_ligand_efficiency_sa>  (282) 
-0.625035

>  <r_i_glide_ligand_efficiency_ln>  (282) 
-1.02523

>  <r_i_glide_gscore>  (282) 
-3.80159

>  <r_i_glide_lipo>  (282) 
-0.316725

>  <r_i_glide_hbond>  (282) 
-0.126059

>  <r_i_glide_metal>  (282) 
-0

>  <r_i_glide_rewards>  (282) 
-2.0851

>  <r_i_glide_evdw>  (282) 
-20.8927

>  <r_i_glide_ecoul>  (282) 
-3.87302

>  <r_i_glide_erotb>  (282) 
0.418047

>  <r_i_glide_esite>  (282) 
-0.0661657

>  <r_i_glide_emodel>  (282) 
-31.8305

>  <r_i_glide_energy>  (282) 
-24.7657

>  <r_i_glide_einternal>  (282) 
0.0886622

>  <r_i_glide_intrahb_reward>  (282) 
-0

>  <i_i_glide_confnum>  (282) 
3

>  <i_i_glide_posenum>  (282) 
2

>  <r_i_glide_eff_state_penalty>  (282) 
0

>  <ligand_id>  (282) 
95

>  <original_smiles>  (282) 
c1cc(-n2cnc3cncnc32)ccn1

>  <smiles>  (282) 
[H]c1nc([H])c2nc([H])n(-c3c([H])c([H])nc([H])c3[H])c2n1

$$$$
95:0:2
     RDKit          3D

 22 24  0  0  1  0  0  0  0  0999 V2000
    4.5960   -0.7031   -2.3740 C   0  0  0  0  0  0  0  0  0  0  0  0
    4.4893   -1.6934   -1.3846 C   0  0  0  0  0  0  0  0  0  0  0  0
    3.6257   -2.7831   -1.6138 C   0  0  0  0  0  0  0  0  0  0  0  0
    3.5550   -3.8246   -0.6606 N   0  0  0  0  0  0  0  0  0  0  0  0
    2.3905   -4.4125   -0.3319 C   0  0  0  0  0  0  0  0  0  0  0  0
    2.4474   -5.3959    0.5678 N   0  0  0  0  0  0  0  0  0  0  0  0
    3.8088   -5.4304    0.8449 C   0  0  0  0  0  0  0  0  0  0  0  0
    4.5963   -6.2315    1.7061 C   0  0  0  0  0  0  0  0  0  0  0  0
    5.9301   -6.0049    1.7622 N   0  0  0  0  0  0  0  0  0  0  0  0
    6.4701   -5.0437    1.0041 C   0  0  0  0  0  0  0  0  0  0  0  0
    5.8702   -4.2203    0.1415 N   0  0  0  0  0  0  0  0  0  0  0  0
    4.5266   -4.4518    0.0977 C   0  0  0  0  0  0  0  0  0  0  0  0
    2.9067   -2.8272   -2.8305 C   0  0  0  0  0  0  0  0  0  0  0  0
    3.0913   -1.7787   -3.7499 C   0  0  0  0  0  0  0  0  0  0  0  0
    3.9324   -0.7484   -3.5452 N   0  0  0  0  0  0  0  0  0  0  0  0
    5.2623    0.1355   -2.2487 H   0  0  0  0  0  0  0  0  0  0  0  0
    5.0668   -1.6210   -0.4739 H   0  0  0  0  0  0  0  0  0  0  0  0
    1.4610   -4.1334   -0.8062 H   0  0  0  0  0  0  0  0  0  0  0  0
    4.1805   -7.0147    2.3251 H   0  0  0  0  0  0  0  0  0  0  0  0
    7.5355   -4.9097    1.0998 H   0  0  0  0  0  0  0  0  0  0  0  0
    2.2464   -3.6479   -3.0712 H   0  0  0  0  0  0  0  0  0  0  0  0
    2.5949   -1.7753   -4.7015 H   0  0  0  0  0  0  0  0  0  0  0  0
  1 15  2  0
  1  2  1  0
  1 16  1  0
  2  3  2  0
  2 17  1  0
  3  4  1  0
  3 13  1  0
  4 12  1  0
  4  5  1  0
  5  6  2  0
  5 18  1  0
  6  7  1  0
  7 12  2  0
  7  8  1  0
  8  9  2  0
  8 19  1  0
  9 10  1  0
 10 11  2  0
 10 20  1  0
 11 12  1  0
 13 14  2  0
 13 21  1  0
 14 15  1  0
 14 22  1  0
M  END
>  <i_m_ct_stereo_status>  (283) 
1

>  <s_m_source_file>  (283) 
/var/tmp/pbs.5076255.sched01/tmpebi1rvwe/120qlbjc4nh.sdf

>  <i_m_source_file_index>  (283) 
7

>  <i_lp_mmshare_version>  (283) 
48012

>  <i_f3d_flags>  (283) 
0

>  <s_epik_input>  (283) 
W2NIXTFbY0hdbltjSF1bY0hdYzEtbihbY0hdbjIpYyhjMjMpbltjSF1uW2NIXTM=

>  <s_epik_cmdline>  (283) 
J2VwaWtfcHl0aG9uJywgJy1waHQnLCAnMi4wJywgJy1waCcsICc3LjAnLCAnLXRuJywgJzgnLCAnLW1hJywgJzIwMCcsICctaW1hZScsICc8aW5maWxlLm1hZT4nLCAnLW9tYWUnLCAnPG91dGZpbGUubWFlPic=

>  <r_lp_tautomer_probability>  (283) 
1

>  <r_epik_Ionization_Penalty>  (283) 
4.64268e-05

>  <r_epik_Ionization_Penalty_Charging>  (283) 
0

>  <r_epik_Ionization_Penalty_Neutral>  (283) 
4.64268e-05

>  <r_epik_State_Penalty>  (283) 
-0

>  <r_epik_Charging_Adjusted_Penalty>  (283) 
0

>  <i_epik_Tot_Q>  (283) 
0

>  <i_epik_Tot_abs_Q>  (283) 
0

>  <s_lp_Force_Field>  (283) 
OPLS3e

>  <r_lp_Energy>  (283) 
25.7432

>  <b_lp_Chiralities_Consistent>  (283) 
1

>  <s_lp_Variant>  (283) 
95:0-1

>  <s_i_glide_gridfile>  (283) 
pfpi4k_grid

>  <i_i_glide_lignum>  (283) 
7

>  <i_i_glide_rotatable_bonds>  (283) 
1

>  <r_i_docking_score>  (283) 
-3.58589

>  <r_i_glide_ligand_efficiency>  (283) 
-0.23906

>  <r_i_glide_ligand_efficiency_sa>  (283) 
-0.589572

>  <r_i_glide_ligand_efficiency_ln>  (283) 
-0.967056

>  <r_i_glide_gscore>  (283) 
-3.58589

>  <r_i_glide_lipo>  (283) 
-0.246885

>  <r_i_glide_hbond>  (283) 
0

>  <r_i_glide_metal>  (283) 
-0

>  <r_i_glide_rewards>  (283) 
-2.22621

>  <r_i_glide_evdw>  (283) 
-20.6785

>  <r_i_glide_ecoul>  (283) 
-2.83282

>  <r_i_glide_erotb>  (283) 
0.418047

>  <r_i_glide_esite>  (283) 
-0.0719969

>  <r_i_glide_emodel>  (283) 
-30.1237

>  <r_i_glide_energy>  (283) 
-23.5113

>  <r_i_glide_einternal>  (283) 
0.248258

>  <r_i_glide_intrahb_reward>  (283) 
-0

>  <i_i_glide_confnum>  (283) 
6

>  <i_i_glide_posenum>  (283) 
15

>  <r_i_glide_eff_state_penalty>  (283) 
0

>  <ligand_id>  (283) 
95

>  <original_smiles>  (283) 
c1cc(-n2cnc3cncnc32)ccn1

>  <smiles>  (283) 
[H]c1nc([H])c2nc([H])n(-c3c([H])c([H])nc([H])c3[H])c2n1

$$$$
97:0:0
     RDKit          3D

 40 44  0  0  1  0  0  0  0  0999 V2000
    4.2135   -3.1022   -3.9135 C   0  0  0  0  0  0  0  0  0  0  0  0
    4.1127   -3.0248   -2.3993 C   0  0  0  0  0  0  0  0  0  0  0  0
    3.0227   -3.4228   -1.7297 C   0  0  0  0  0  0  0  0  0  0  0  0
    2.9269   -3.3750   -0.2199 C   0  0  1  0  0  0  0  0  0  0  0  0
    3.2891   -4.7763    0.3024 C   0  0  0  0  0  0  0  0  0  0  0  0
    4.7755   -5.0867    0.4588 C   0  0  0  0  0  0  0  0  0  0  0  0
    5.3865   -6.2997    0.8284 C   0  0  0  0  0  0  0  0  0  0  0  0
    6.7934   -6.3456    1.0574 C   0  0  0  0  0  0  0  0  0  0  0  0
    7.5944   -5.1806    0.9751 C   0  0  0  0  0  0  0  0  0  0  0  0
    8.9310   -5.2618    1.2312 O   0  0  0  0  0  0  0  0  0  0  0  0
    6.9949   -3.9245    0.6276 C   0  0  0  0  0  0  0  0  0  0  0  0
    5.6456   -3.9842    0.3258 C   0  0  0  0  0  0  0  0  0  0  0  0
    5.2500   -2.5913   -0.1120 C   0  0  2  0  0  0  0  0  0  0  0  0
    5.3369   -2.4871   -1.6701 C   0  0  0  0  0  0  0  0  0  0  0  0
    6.4159   -1.7680    0.5190 C   0  0  1  0  0  0  0  0  0  0  0  0
    6.0744   -1.1994    1.8909 C   0  0  0  0  0  0  0  0  0  0  0  0
    4.8955   -1.3665    2.5172 C   0  0  0  0  0  0  0  0  0  0  0  0
    3.7490   -2.1639    1.9322 C   0  0  1  0  0  0  0  0  0  0  0  0
    2.4884   -1.6387    2.3368 O   0  0  0  0  0  0  0  0  0  0  0  0
    3.8241   -2.2743    0.3861 C   0  0  2  0  0  0  0  0  0  0  0  0
    3.4182   -1.0236   -0.1287 O   0  0  0  0  0  0  0  0  0  0  0  0
    7.5306   -2.6854    0.5883 O   0  0  0  0  0  0  0  0  0  0  0  0
    5.0275   -3.7697   -4.2089 H   0  0  0  0  0  0  0  0  0  0  0  0
    4.3956   -2.1119   -4.3218 H   0  0  0  0  0  0  0  0  0  0  0  0
    3.2868   -3.4985   -4.3355 H   0  0  0  0  0  0  0  0  0  0  0  0
    2.1776   -3.8420   -2.2612 H   0  0  0  0  0  0  0  0  0  0  0  0
    1.8837   -3.1664    0.0046 H   0  0  0  0  0  0  0  0  0  0  0  0
    2.8544   -4.9001    1.2983 H   0  0  0  0  0  0  0  0  0  0  0  0
    2.8256   -5.5594   -0.3123 H   0  0  0  0  0  0  0  0  0  0  0  0
    4.7883   -7.1897    0.9265 H   0  0  0  0  0  0  0  0  0  0  0  0
    7.2429   -7.2875    1.2991 H   0  0  0  0  0  0  0  0  0  0  0  0
    9.1999   -6.1259    1.4912 H   0  0  0  0  0  0  0  0  0  0  0  0
    6.2464   -2.9690   -2.0400 H   0  0  0  0  0  0  0  0  0  0  0  0
    5.3988   -1.4362   -1.9540 H   0  0  0  0  0  0  0  0  0  0  0  0
    6.6873   -0.9125   -0.0995 H   0  0  0  0  0  0  0  0  0  0  0  0
    6.8737   -0.6595    2.3773 H   0  0  0  0  0  0  0  0  0  0  0  0
    4.7486   -0.9609    3.5150 H   0  0  0  0  0  0  0  0  0  0  0  0
    3.8363   -3.1461    2.3992 H   0  0  0  0  0  0  0  0  0  0  0  0
    2.3122   -0.8893    1.8044 H   0  0  0  0  0  0  0  0  0  0  0  0
    2.4806   -1.0622   -0.3306 H   0  0  0  0  0  0  0  0  0  0  0  0
  1  2  1  0
  1 23  1  0
  1 24  1  0
  1 25  1  0
  2 14  1  0
  2  3  2  0
  3  4  1  0
  3 26  1  0
  4 20  1  0
  4  5  1  0
  4 27  1  6
  5  6  1  0
  5 28  1  0
  5 29  1  0
  6 12  2  0
  6  7  1  0
  7  8  2  0
  7 30  1  0
  8  9  1  0
  8 31  1  0
  9 10  1  0
  9 11  2  0
 10 32  1  0
 11 22  1  0
 11 12  1  0
 12 13  1  0
 13 20  1  0
 13 14  1  6
 13 15  1  0
 14 33  1  0
 14 34  1  0
 15 16  1  0
 15 22  1  0
 15 35  1  6
 16 17  2  0
 16 36  1  0
 17 18  1  0
 17 37  1  0
 18 19  1  0
 18 20  1  0
 18 38  1  1
 19 39  1  0
 20 21  1  6
 21 40  1  0
M  END
>  <i_m_ct_stereo_status>  (284) 
1

>  <s_m_source_file>  (284) 
/var/tmp/pbs.5076255.sched01/tmpebi1rvwe/120qlbjc4nh.sdf

>  <i_m_source_file_index>  (284) 
9

>  <i_lp_mmshare_version>  (284) 
48012

>  <i_f3d_flags>  (284) 
0

>  <s_epik_input>  (284) 
W0NIM11DKFtDSDJdMSk9W0NIXVtDQEBIXShbQ0gyXTIpW0NAQF0zKFtPSF0pW0NASF0oW09IXSlbQ0hdPVtDSF1bQ0BIXTRPYzVjKFtPSF0pW2NIXVtjSF1jMmM1W0NAQF0xMzQ=

>  <s_epik_cmdline>  (284) 
J2VwaWtfcHl0aG9uJywgJy1waHQnLCAnMi4wJywgJy1waCcsICc3LjAnLCAnLXRuJywgJzgnLCAnLW1hJywgJzIwMCcsICctaW1hZScsICc8aW5maWxlLm1hZT4nLCAnLW9tYWUnLCAnPG91dGZpbGUubWFlPic=

>  <r_lp_tautomer_probability>  (284) 
1

>  <r_epik_Ionization_Penalty>  (284) 
0.000938592

>  <r_epik_Ionization_Penalty_Charging>  (284) 
0

>  <r_epik_Ionization_Penalty_Neutral>  (284) 
0.000938592

>  <r_epik_State_Penalty>  (284) 
0.000608864

>  <r_epik_Charging_Adjusted_Penalty>  (284) 
0.000608864

>  <i_epik_Tot_Q>  (284) 
0

>  <i_epik_Tot_abs_Q>  (284) 
0

>  <s_lp_Force_Field>  (284) 
OPLS3e

>  <r_lp_Energy>  (284) 
38.7004

>  <b_lp_Chiralities_Consistent>  (284) 
1

>  <s_lp_Variant>  (284) 
97:0-1

>  <s_i_glide_gridfile>  (284) 
pfpi4k_grid

>  <i_i_glide_lignum>  (284) 
9

>  <i_i_glide_rotatable_bonds>  (284) 
3

>  <r_i_docking_score>  (284) 
-4.4908

>  <r_i_glide_ligand_efficiency>  (284) 
-0.204127

>  <r_i_glide_ligand_efficiency_sa>  (284) 
-0.571972

>  <r_i_glide_ligand_efficiency_ln>  (284) 
-1.09771

>  <r_i_glide_gscore>  (284) 
-4.4908

>  <r_i_glide_lipo>  (284) 
-1.00595

>  <r_i_glide_hbond>  (284) 
0

>  <r_i_glide_metal>  (284) 
-0

>  <r_i_glide_rewards>  (284) 
-1.375

>  <r_i_glide_evdw>  (284) 
-26.0259

>  <r_i_glide_ecoul>  (284) 
-5.39035

>  <r_i_glide_erotb>  (284) 
0

>  <r_i_glide_esite>  (284) 
0

>  <r_i_glide_emodel>  (284) 
-40.4104

>  <r_i_glide_energy>  (284) 
-31.4162

>  <r_i_glide_einternal>  (284) 
0.873084

>  <r_i_glide_intrahb_reward>  (284) 
-0

>  <i_i_glide_confnum>  (284) 
2

>  <i_i_glide_posenum>  (284) 
12

>  <r_i_glide_eff_state_penalty>  (284) 
0

>  <ligand_id>  (284) 
97

>  <original_smiles>  (284) 
CC1=CC2Cc3ccc(O)c4c3C3(C1)C(C=CC(O)C23O)O4

>  <smiles>  (284) 
[H]Oc1c([H])c([H])c2c3c1OC1([H])C([H])=C([H])C([H])(O[H])C4(O[H])C([H])(C([H])=C(C([H])([H])[H])C([H])([H])C314)C2([H])[H]

$$$$
97:0:1
     RDKit          3D

 40 44  0  0  1  0  0  0  0  0999 V2000
    3.0325   -2.9192   -2.8841 C   0  0  0  0  0  0  0  0  0  0  0  0
    3.3900   -2.9724   -1.4103 C   0  0  0  0  0  0  0  0  0  0  0  0
    2.8211   -3.8428   -0.5580 C   0  0  0  0  0  0  0  0  0  0  0  0
    3.1865   -3.9155    0.9157 C   0  0  1  0  0  0  0  0  0  0  0  0
    4.2250   -5.0499    1.0560 C   0  0  0  0  0  0  0  0  0  0  0  0
    5.6749   -4.6709    0.7502 C   0  0  0  0  0  0  0  0  0  0  0  0
    6.8005   -5.5190    0.7201 C   0  0  0  0  0  0  0  0  0  0  0  0
    8.0988   -4.9678    0.5515 C   0  0  0  0  0  0  0  0  0  0  0  0
    8.2911   -3.5674    0.4708 C   0  0  0  0  0  0  0  0  0  0  0  0
    9.5562   -3.0579    0.3808 O   0  0  0  0  0  0  0  0  0  0  0  0
    7.1761   -2.7032    0.5097 C   0  0  0  0  0  0  0  0  0  0  0  0
    5.9314   -3.2956    0.5878 C   0  0  0  0  0  0  0  0  0  0  0  0
    4.9071   -2.1923    0.5391 C   0  0  2  0  0  0  0  0  0  0  0  0
    4.4483   -1.9842   -0.9390 C   0  0  0  0  0  0  0  0  0  0  0  0
    5.7982   -0.9817    0.9763 C   0  0  1  0  0  0  0  0  0  0  0  0
    5.7143   -0.6911    2.4755 C   0  0  0  0  0  0  0  0  0  0  0  0
    4.9647   -1.3882    3.3491 C   0  0  0  0  0  0  0  0  0  0  0  0
    4.1050   -2.5746    2.9626 C   0  0  1  0  0  0  0  0  0  0  0  0
    2.9603   -2.6374    3.7946 O   0  0  0  0  0  0  0  0  0  0  0  0
    3.7106   -2.5528    1.4558 C   0  0  2  0  0  0  0  0  0  0  0  0
    2.6846   -1.5775    1.3413 O   0  0  0  0  0  0  0  0  0  0  0  0
    7.1403   -1.3357    0.5738 O   0  0  0  0  0  0  0  0  0  0  0  0
    3.9035   -3.1432   -3.5039 H   0  0  0  0  0  0  0  0  0  0  0  0
    2.6557   -1.9307   -3.1543 H   0  0  0  0  0  0  0  0  0  0  0  0
    2.2578   -3.6503   -3.1215 H   0  0  0  0  0  0  0  0  0  0  0  0
    2.1013   -4.5589   -0.9214 H   0  0  0  0  0  0  0  0  0  0  0  0
    2.2756   -4.1874    1.4436 H   0  0  0  0  0  0  0  0  0  0  0  0
    4.2132   -5.3929    2.0882 H   0  0  0  0  0  0  0  0  0  0  0  0
    3.9422   -5.9120    0.4509 H   0  0  0  0  0  0  0  0  0  0  0  0
    6.6786   -6.5878    0.8243 H   0  0  0  0  0  0  0  0  0  0  0  0
    8.9468   -5.6283    0.5090 H   0  0  0  0  0  0  0  0  0  0  0  0
    9.6112   -2.2078   -0.0344 H   0  0  0  0  0  0  0  0  0  0  0  0
    5.3061   -2.0055   -1.6147 H   0  0  0  0  0  0  0  0  0  0  0  0
    3.9926   -0.9980   -1.0387 H   0  0  0  0  0  0  0  0  0  0  0  0
    5.4953   -0.0614    0.4707 H   0  0  0  0  0  0  0  0  0  0  0  0
    6.3207    0.1217    2.8472 H   0  0  0  0  0  0  0  0  0  0  0  0
    4.9869   -1.1371    4.4024 H   0  0  0  0  0  0  0  0  0  0  0  0
    4.7097   -3.4492    3.1909 H   0  0  0  0  0  0  0  0  0  0  0  0
    2.3904   -1.9208    3.5520 H   0  0  0  0  0  0  0  0  0  0  0  0
    3.0712   -0.7190    1.4141 H   0  0  0  0  0  0  0  0  0  0  0  0
  1  2  1  0
  1 23  1  0
  1 24  1  0
  1 25  1  0
  2 14  1  0
  2  3  2  0
  3  4  1  0
  3 26  1  0
  4 20  1  0
  4  5  1  0
  4 27  1  1
  5  6  1  0
  5 28  1  0
  5 29  1  0
  6 12  2  0
  6  7  1  0
  7  8  2  0
  7 30  1  0
  8  9  1  0
  8 31  1  0
  9 10  1  0
  9 11  2  0
 10 32  1  0
 11 22  1  0
 11 12  1  0
 12 13  1  0
 13 20  1  0
 13 14  1  6
 13 15  1  0
 14 33  1  0
 14 34  1  0
 15 16  1  0
 15 22  1  0
 15 35  1  6
 16 17  2  0
 16 36  1  0
 17 18  1  0
 17 37  1  0
 18 19  1  0
 18 20  1  0
 18 38  1  6
 19 39  1  0
 20 21  1  1
 21 40  1  0
M  END
>  <i_m_ct_stereo_status>  (285) 
1

>  <s_m_source_file>  (285) 
/var/tmp/pbs.5076255.sched01/tmpebi1rvwe/120qlbjc4nh.sdf

>  <i_m_source_file_index>  (285) 
9

>  <i_lp_mmshare_version>  (285) 
48012

>  <i_f3d_flags>  (285) 
0

>  <s_epik_input>  (285) 
W0NIM11DKFtDSDJdMSk9W0NIXVtDQEBIXShbQ0gyXTIpW0NAQF0zKFtPSF0pW0NASF0oW09IXSlbQ0hdPVtDSF1bQ0BIXTRPYzVjKFtPSF0pW2NIXVtjSF1jMmM1W0NAQF0xMzQ=

>  <s_epik_cmdline>  (285) 
J2VwaWtfcHl0aG9uJywgJy1waHQnLCAnMi4wJywgJy1waCcsICc3LjAnLCAnLXRuJywgJzgnLCAnLW1hJywgJzIwMCcsICctaW1hZScsICc8aW5maWxlLm1hZT4nLCAnLW9tYWUnLCAnPG91dGZpbGUubWFlPic=

>  <r_lp_tautomer_probability>  (285) 
1

>  <r_epik_Ionization_Penalty>  (285) 
0.000938592

>  <r_epik_Ionization_Penalty_Charging>  (285) 
0

>  <r_epik_Ionization_Penalty_Neutral>  (285) 
0.000938592

>  <r_epik_State_Penalty>  (285) 
0.000608864

>  <r_epik_Charging_Adjusted_Penalty>  (285) 
0.000608864

>  <i_epik_Tot_Q>  (285) 
0

>  <i_epik_Tot_abs_Q>  (285) 
0

>  <s_lp_Force_Field>  (285) 
OPLS3e

>  <r_lp_Energy>  (285) 
38.7004

>  <b_lp_Chiralities_Consistent>  (285) 
1

>  <s_lp_Variant>  (285) 
97:0-1

>  <s_i_glide_gridfile>  (285) 
pfpi4k_grid

>  <i_i_glide_lignum>  (285) 
9

>  <i_i_glide_rotatable_bonds>  (285) 
3

>  <r_i_docking_score>  (285) 
-3.94617

>  <r_i_glide_ligand_efficiency>  (285) 
-0.179371

>  <r_i_glide_ligand_efficiency_sa>  (285) 
-0.502606

>  <r_i_glide_ligand_efficiency_ln>  (285) 
-0.964588

>  <r_i_glide_gscore>  (285) 
-3.94617

>  <r_i_glide_lipo>  (285) 
-1.04121

>  <r_i_glide_hbond>  (285) 
-1.29109e-05

>  <r_i_glide_metal>  (285) 
-0

>  <r_i_glide_rewards>  (285) 
-1.375

>  <r_i_glide_evdw>  (285) 
-25.0451

>  <r_i_glide_ecoul>  (285) 
-1.85129

>  <r_i_glide_erotb>  (285) 
0

>  <r_i_glide_esite>  (285) 
0

>  <r_i_glide_emodel>  (285) 
-34.6716

>  <r_i_glide_energy>  (285) 
-26.8963

>  <r_i_glide_einternal>  (285) 
0.865341

>  <r_i_glide_intrahb_reward>  (285) 
-0

>  <i_i_glide_confnum>  (285) 
1

>  <i_i_glide_posenum>  (285) 
5

>  <r_i_glide_eff_state_penalty>  (285) 
0

>  <ligand_id>  (285) 
97

>  <original_smiles>  (285) 
CC1=CC2Cc3ccc(O)c4c3C3(C1)C(C=CC(O)C23O)O4

>  <smiles>  (285) 
[H]Oc1c([H])c([H])c2c3c1OC1([H])C([H])=C([H])C([H])(O[H])C4(O[H])C([H])(C([H])=C(C([H])([H])[H])C([H])([H])C314)C2([H])[H]

$$$$
97:0:2
     RDKit          3D

 40 44  0  0  1  0  0  0  0  0999 V2000
   -3.5537    3.3438    2.7897 C   0  0  0  0  0  0  0  0  0  0  0  0
   -2.1542    3.3775    3.3637 C   0  0  0  0  0  0  0  0  0  0  0  0
   -1.3764    4.4650    3.2734 C   0  0  0  0  0  0  0  0  0  0  0  0
    0.0386    4.5113    3.8200 C   0  0  1  0  0  0  0  0  0  0  0  0
   -0.0444    5.1868    5.2081 C   0  0  0  0  0  0  0  0  0  0  0  0
   -0.4626    4.2799    6.3667 C   0  0  0  0  0  0  0  0  0  0  0  0
   -0.7274    4.6493    7.7003 C   0  0  0  0  0  0  0  0  0  0  0  0
   -0.9420    3.6483    8.6796 C   0  0  0  0  0  0  0  0  0  0  0  0
   -0.8356    2.2735    8.3497 C   0  0  0  0  0  0  0  0  0  0  0  0
   -0.9831    1.3280    9.3202 O   0  0  0  0  0  0  0  0  0  0  0  0
   -0.5590    1.8806    7.0229 C   0  0  0  0  0  0  0  0  0  0  0  0
   -0.4587    2.8977    6.0927 C   0  0  0  0  0  0  0  0  0  0  0  0
   -0.2757    2.2504    4.7444 C   0  0  2  0  0  0  0  0  0  0  0  0
   -1.6667    2.1082    4.0482 C   0  0  0  0  0  0  0  0  0  0  0  0
    0.2283    0.8361    5.1889 C   0  0  1  0  0  0  0  0  0  0  0  0
    1.7505    0.7211    5.2097 C   0  0  0  0  0  0  0  0  0  0  0  0
    2.5924    1.7198    4.8770 C   0  0  0  0  0  0  0  0  0  0  0  0
    2.1203    3.1046    4.4590 C   0  0  1  0  0  0  0  0  0  0  0  0
    3.0082    3.7050    3.5420 O   0  0  0  0  0  0  0  0  0  0  0  0
    0.6846    3.0978    3.8734 C   0  0  2  0  0  0  0  0  0  0  0  0
    0.7879    2.5434    2.5607 O   0  0  0  0  0  0  0  0  0  0  0  0
   -0.3232    0.6321    6.5087 O   0  0  0  0  0  0  0  0  0  0  0  0
   -4.2539    3.1710    3.6027 H   0  0  0  0  0  0  0  0  0  0  0  0
   -3.6643    2.5450    2.0570 H   0  0  0  0  0  0  0  0  0  0  0  0
   -3.8177    4.2850    2.3086 H   0  0  0  0  0  0  0  0  0  0  0  0
   -1.7222    5.3440    2.7656 H   0  0  0  0  0  0  0  0  0  0  0  0
    0.6019    5.1499    3.1466 H   0  0  0  0  0  0  0  0  0  0  0  0
    0.9337    5.5857    5.4561 H   0  0  0  0  0  0  0  0  0  0  0  0
   -0.7010    6.0469    5.1818 H   0  0  0  0  0  0  0  0  0  0  0  0
   -0.7423    5.6949    7.9811 H   0  0  0  0  0  0  0  0  0  0  0  0
   -1.1507    3.9421    9.6938 H   0  0  0  0  0  0  0  0  0  0  0  0
   -1.1418    1.6952   10.1795 H   0  0  0  0  0  0  0  0  0  0  0  0
   -2.4161    1.7515    4.7551 H   0  0  0  0  0  0  0  0  0  0  0  0
   -1.5984    1.3571    3.2578 H   0  0  0  0  0  0  0  0  0  0  0  0
   -0.1316    0.0546    4.5178 H   0  0  0  0  0  0  0  0  0  0  0  0
    2.1436   -0.2293    5.5370 H   0  0  0  0  0  0  0  0  0  0  0  0
    3.6624    1.5758    4.9510 H   0  0  0  0  0  0  0  0  0  0  0  0
    2.1799    3.7003    5.3641 H   0  0  0  0  0  0  0  0  0  0  0  0
    2.9146    3.2519    2.7148 H   0  0  0  0  0  0  0  0  0  0  0  0
    0.5764    3.2208    1.9106 H   0  0  0  0  0  0  0  0  0  0  0  0
  1  2  1  0
  1 23  1  0
  1 24  1  0
  1 25  1  0
  2 14  1  0
  2  3  2  0
  3  4  1  0
  3 26  1  0
  4 20  1  0
  4  5  1  0
  4 27  1  6
  5  6  1  0
  5 28  1  0
  5 29  1  0
  6 12  2  0
  6  7  1  0
  7  8  2  0
  7 30  1  0
  8  9  1  0
  8 31  1  0
  9 10  1  0
  9 11  2  0
 10 32  1  0
 11 22  1  0
 11 12  1  0
 12 13  1  0
 13 20  1  0
 13 14  1  6
 13 15  1  0
 14 33  1  0
 14 34  1  0
 15 16  1  0
 15 22  1  0
 15 35  1  6
 16 17  2  0
 16 36  1  0
 17 18  1  0
 17 37  1  0
 18 19  1  0
 18 20  1  0
 18 38  1  1
 19 39  1  0
 20 21  1  6
 21 40  1  0
M  END
>  <i_m_ct_stereo_status>  (286) 
1

>  <s_m_source_file>  (286) 
/var/tmp/pbs.5076255.sched01/tmpebi1rvwe/120qlbjc4nh.sdf

>  <i_m_source_file_index>  (286) 
9

>  <i_lp_mmshare_version>  (286) 
48012

>  <i_f3d_flags>  (286) 
0

>  <s_epik_input>  (286) 
W0NIM11DKFtDSDJdMSk9W0NIXVtDQEBIXShbQ0gyXTIpW0NAQF0zKFtPSF0pW0NASF0oW09IXSlbQ0hdPVtDSF1bQ0BIXTRPYzVjKFtPSF0pW2NIXVtjSF1jMmM1W0NAQF0xMzQ=

>  <s_epik_cmdline>  (286) 
J2VwaWtfcHl0aG9uJywgJy1waHQnLCAnMi4wJywgJy1waCcsICc3LjAnLCAnLXRuJywgJzgnLCAnLW1hJywgJzIwMCcsICctaW1hZScsICc8aW5maWxlLm1hZT4nLCAnLW9tYWUnLCAnPG91dGZpbGUubWFlPic=

>  <r_lp_tautomer_probability>  (286) 
1

>  <r_epik_Ionization_Penalty>  (286) 
0.000938592

>  <r_epik_Ionization_Penalty_Charging>  (286) 
0

>  <r_epik_Ionization_Penalty_Neutral>  (286) 
0.000938592

>  <r_epik_State_Penalty>  (286) 
0.000608864

>  <r_epik_Charging_Adjusted_Penalty>  (286) 
0.000608864

>  <i_epik_Tot_Q>  (286) 
0

>  <i_epik_Tot_abs_Q>  (286) 
0

>  <s_lp_Force_Field>  (286) 
OPLS3e

>  <r_lp_Energy>  (286) 
38.7004

>  <b_lp_Chiralities_Consistent>  (286) 
1

>  <s_lp_Variant>  (286) 
97:0-1

>  <s_i_glide_gridfile>  (286) 
pfpi4k_grid

>  <i_i_glide_lignum>  (286) 
9

>  <i_i_glide_rotatable_bonds>  (286) 
3

>  <r_i_docking_score>  (286) 
-3.15646

>  <r_i_glide_ligand_efficiency>  (286) 
-0.143475

>  <r_i_glide_ligand_efficiency_sa>  (286) 
-0.402024

>  <r_i_glide_ligand_efficiency_ln>  (286) 
-0.771554

>  <r_i_glide_gscore>  (286) 
-3.15646

>  <r_i_glide_lipo>  (286) 
-0.0101212

>  <r_i_glide_hbond>  (286) 
0

>  <r_i_glide_metal>  (286) 
-0

>  <r_i_glide_rewards>  (286) 
-1.375

>  <r_i_glide_evdw>  (286) 
-17.7832

>  <r_i_glide_ecoul>  (286) 
-5.88118

>  <r_i_glide_erotb>  (286) 
0

>  <r_i_glide_esite>  (286) 
0

>  <r_i_glide_emodel>  (286) 
-29.5733

>  <r_i_glide_energy>  (286) 
-23.6644

>  <r_i_glide_einternal>  (286) 
1.21148

>  <r_i_glide_intrahb_reward>  (286) 
-0

>  <i_i_glide_confnum>  (286) 
2

>  <i_i_glide_posenum>  (286) 
16

>  <r_i_glide_eff_state_penalty>  (286) 
0

>  <ligand_id>  (286) 
97

>  <original_smiles>  (286) 
CC1=CC2Cc3ccc(O)c4c3C3(C1)C(C=CC(O)C23O)O4

>  <smiles>  (286) 
[H]Oc1c([H])c([H])c2c3c1OC1([H])C([H])=C([H])C([H])(O[H])C4(O[H])C([H])(C([H])=C(C([H])([H])[H])C([H])([H])C314)C2([H])[H]

$$$$
99:0:0
     RDKit          3D

 41 43  0  0  1  0  0  0  0  0999 V2000
    0.0177   -0.4872    3.9611 O   0  0  0  0  0  0  0  0  0  0  0  0
    0.7332    0.0560    3.1150 C   0  0  0  0  0  0  0  0  0  0  0  0
    0.3270    1.1227    2.4079 N   0  0  0  0  0  0  0  0  0  0  0  0
   -0.9783    1.7578    2.4559 C   0  0  0  0  0  0  0  0  0  0  0  0
   -1.3016    2.3898    3.8226 C   0  0  2  0  0  0  0  0  0  0  0  0
   -2.6889    2.6149    3.9257 O   0  0  0  0  0  0  0  0  0  0  0  0
   -0.5157    3.6805    4.1247 C   0  0  0  0  0  0  0  0  0  0  0  0
   -0.8937    4.7531    3.2812 O   0  0  0  0  0  0  0  0  0  0  0  0
    2.1467   -0.5003    2.8172 C   0  0  1  0  0  0  0  0  0  0  0  0
    2.9626   -0.6284    4.1327 C   0  0  0  0  0  0  0  0  0  0  0  0
    4.3567   -1.2252    3.8380 C   0  0  2  0  0  0  0  0  0  0  0  0
    5.1172   -0.3062    2.8641 C   0  0  0  0  0  0  0  0  0  0  0  0
    4.3282   -0.2023    1.5438 C   0  0  1  0  0  0  0  0  0  0  0  0
    4.1505   -1.5965    0.9123 C   0  0  0  0  0  0  0  0  0  0  0  0
    3.4019   -2.5104    1.9037 C   0  0  1  0  0  0  0  0  0  0  0  0
    4.2019   -2.6274    3.2160 C   0  0  0  0  0  0  0  0  0  0  0  0
    2.0071   -1.9174    2.1968 C   0  0  0  0  0  0  0  0  0  0  0  0
    2.9464    0.4005    1.8253 C   0  0  0  0  0  0  0  0  0  0  0  0
    0.9570    1.4737    1.6962 H   0  0  0  0  0  0  0  0  0  0  0  0
   -0.9856    2.5189    1.6806 H   0  0  0  0  0  0  0  0  0  0  0  0
   -1.7203    1.0103    2.1720 H   0  0  0  0  0  0  0  0  0  0  0  0
   -1.0687    1.6796    4.6152 H   0  0  0  0  0  0  0  0  0  0  0  0
   -3.1252    1.8553    3.5582 H   0  0  0  0  0  0  0  0  0  0  0  0
   -0.6831    3.9779    5.1593 H   0  0  0  0  0  0  0  0  0  0  0  0
    0.5576    3.5120    4.0160 H   0  0  0  0  0  0  0  0  0  0  0  0
   -0.5840    4.5639    2.3878 H   0  0  0  0  0  0  0  0  0  0  0  0
    3.0639    0.3487    4.6121 H   0  0  0  0  0  0  0  0  0  0  0  0
    2.4381   -1.2678    4.8466 H   0  0  0  0  0  0  0  0  0  0  0  0
    4.9165   -1.3037    4.7689 H   0  0  0  0  0  0  0  0  0  0  0  0
    5.2261    0.6768    3.3190 H   0  0  0  0  0  0  0  0  0  0  0  0
    6.1208   -0.6854    2.6858 H   0  0  0  0  0  0  0  0  0  0  0  0
    4.8650    0.4413    0.8476 H   0  0  0  0  0  0  0  0  0  0  0  0
    3.5836   -1.5189   -0.0155 H   0  0  0  0  0  0  0  0  0  0  0  0
    5.1159   -2.0243    0.6546 H   0  0  0  0  0  0  0  0  0  0  0  0
    3.2829   -3.5013    1.4654 H   0  0  0  0  0  0  0  0  0  0  0  0
    5.1815   -3.0622    3.0261 H   0  0  0  0  0  0  0  0  0  0  0  0
    3.6929   -3.2945    3.9136 H   0  0  0  0  0  0  0  0  0  0  0  0
    1.4571   -2.5793    2.8707 H   0  0  0  0  0  0  0  0  0  0  0  0
    1.4210   -1.8641    1.2820 H   0  0  0  0  0  0  0  0  0  0  0  0
    2.4152    0.5039    0.8786 H   0  0  0  0  0  0  0  0  0  0  0  0
    3.0687    1.4107    2.2183 H   0  0  0  0  0  0  0  0  0  0  0  0
  1  2  2  0
  2  3  1  0
  9  2  1  1
  3  4  1  0
  3 19  1  0
  4  5  1  0
  4 20  1  0
  4 21  1  0
  5  6  1  0
  5  7  1  0
  5 22  1  1
  6 23  1  0
  7  8  1  0
  7 24  1  0
  7 25  1  0
  8 26  1  0
  9 17  1  0
  9 18  1  0
  9 10  1  0
 10 11  1  0
 10 27  1  0
 10 28  1  0
 11 16  1  0
 11 12  1  0
 11 29  1  1
 12 13  1  0
 12 30  1  0
 12 31  1  0
 13 14  1  0
 13 18  1  0
 13 32  1  6
 14 15  1  0
 14 33  1  0
 14 34  1  0
 15 16  1  0
 15 17  1  0
 15 35  1  6
 16 36  1  0
 16 37  1  0
 17 38  1  0
 17 39  1  0
 18 40  1  0
 18 41  1  0
M  END
>  <i_m_ct_stereo_status>  (287) 
1

>  <s_m_source_file>  (287) 
/var/tmp/pbs.5076255.sched01/tmpebi1rvwe/120qlbjc4nh.sdf

>  <i_m_source_file_index>  (287) 
11

>  <i_lp_mmshare_version>  (287) 
48012

>  <i_f3d_flags>  (287) 
0

>  <s_epik_input>  (287) 
W09IXVtDSDJdW0NAQEhdKFtPSF0pW0NIMl1bTkhdQyg9TylDMTJbQ0gyXVtDQEBIXTNbQ0gyXVtDQEhdKFtDSDJdMilbQ0gyXVtDQEBIXShbQ0gyXTMpW0NIMl0x

>  <s_epik_cmdline>  (287) 
J2VwaWtfcHl0aG9uJywgJy1waHQnLCAnMi4wJywgJy1waCcsICc3LjAnLCAnLXRuJywgJzgnLCAnLW1hJywgJzIwMCcsICctaW1hZScsICc8aW5maWxlLm1hZT4nLCAnLW9tYWUnLCAnPG91dGZpbGUubWFlPic=

>  <r_lp_tautomer_probability>  (287) 
1

>  <r_epik_Ionization_Penalty>  (287) 
1.86718e-07

>  <r_epik_Ionization_Penalty_Charging>  (287) 
0

>  <r_epik_Ionization_Penalty_Neutral>  (287) 
1.86718e-07

>  <r_epik_State_Penalty>  (287) 
-0

>  <r_epik_Charging_Adjusted_Penalty>  (287) 
0

>  <i_epik_Tot_Q>  (287) 
0

>  <i_epik_Tot_abs_Q>  (287) 
0

>  <s_lp_Force_Field>  (287) 
OPLS3e

>  <r_lp_Energy>  (287) 
2.1618

>  <b_lp_Chiralities_Consistent>  (287) 
1

>  <s_lp_Variant>  (287) 
99:0-1

>  <s_i_glide_gridfile>  (287) 
pfpi4k_grid

>  <i_i_glide_lignum>  (287) 
11

>  <i_i_glide_rotatable_bonds>  (287) 
7

>  <r_i_docking_score>  (287) 
-3.24569

>  <r_i_glide_ligand_efficiency>  (287) 
-0.180316

>  <r_i_glide_ligand_efficiency_sa>  (287) 
-0.472561

>  <r_i_glide_ligand_efficiency_ln>  (287) 
-0.834287

>  <r_i_glide_gscore>  (287) 
-3.24569

>  <r_i_glide_lipo>  (287) 
-0.32125

>  <r_i_glide_hbond>  (287) 
0

>  <r_i_glide_metal>  (287) 
-0

>  <r_i_glide_rewards>  (287) 
-1.68179

>  <r_i_glide_evdw>  (287) 
-16.3589

>  <r_i_glide_ecoul>  (287) 
-9.60881

>  <r_i_glide_erotb>  (287) 
1.09481

>  <r_i_glide_esite>  (287) 
-0.0781819

>  <r_i_glide_emodel>  (287) 
-28.4485

>  <r_i_glide_energy>  (287) 
-25.9678

>  <r_i_glide_einternal>  (287) 
7.66228

>  <r_i_glide_intrahb_reward>  (287) 
-0

>  <i_i_glide_confnum>  (287) 
6

>  <i_i_glide_posenum>  (287) 
2

>  <r_i_glide_eff_state_penalty>  (287) 
0

>  <ligand_id>  (287) 
99

>  <original_smiles>  (287) 
O=C(NCC(O)CO)C12CC3CC(CC(C3)C1)C2

>  <smiles>  (287) 
[H]OC([H])([H])C([H])(O[H])C([H])([H])N([H])C(=O)C12C([H])([H])C3([H])C([H])([H])C([H])(C([H])([H])C([H])(C3([H])[H])C1([H])[H])C2([H])[H]

$$$$
99:0:1
     RDKit          3D

 41 43  0  0  1  0  0  0  0  0999 V2000
    4.6471   -0.2359    2.1060 O   0  0  0  0  0  0  0  0  0  0  0  0
    3.8247   -0.6587    1.2900 C   0  0  0  0  0  0  0  0  0  0  0  0
    2.5443   -0.2527    1.2796 N   0  0  0  0  0  0  0  0  0  0  0  0
    1.9771    0.6845    2.2409 C   0  0  0  0  0  0  0  0  0  0  0  0
    0.4828    0.3950    2.5000 C   0  0  2  0  0  0  0  0  0  0  0  0
   -0.2944    1.2365    1.6813 O   0  0  0  0  0  0  0  0  0  0  0  0
    0.0688    0.7086    3.9532 C   0  0  0  0  0  0  0  0  0  0  0  0
    0.5949   -0.2501    4.8488 O   0  0  0  0  0  0  0  0  0  0  0  0
    4.2372   -1.7230    0.2529 C   0  0  1  0  0  0  0  0  0  0  0  0
    4.2353   -1.1105   -1.1747 C   0  0  0  0  0  0  0  0  0  0  0  0
    4.6476   -2.1779   -2.2115 C   0  0  2  0  0  0  0  0  0  0  0  0
    3.6530   -3.3510   -2.1551 C   0  0  0  0  0  0  0  0  0  0  0  0
    3.6814   -3.9870   -0.7487 C   0  0  1  0  0  0  0  0  0  0  0  0
    5.0948   -4.4951   -0.4201 C   0  0  0  0  0  0  0  0  0  0  0  0
    6.0852   -3.3176   -0.4925 C   0  0  1  0  0  0  0  0  0  0  0  0
    6.0662   -2.6934   -1.9017 C   0  0  0  0  0  0  0  0  0  0  0  0
    5.6776   -2.2512    0.5451 C   0  0  0  0  0  0  0  0  0  0  0  0
    3.2594   -2.9351    0.2917 C   0  0  0  0  0  0  0  0  0  0  0  0
    1.9215   -0.6378    0.5679 H   0  0  0  0  0  0  0  0  0  0  0  0
    2.5208    0.5896    3.1795 H   0  0  0  0  0  0  0  0  0  0  0  0
    2.1470    1.7051    1.9068 H   0  0  0  0  0  0  0  0  0  0  0  0
    0.2343   -0.6425    2.2871 H   0  0  0  0  0  0  0  0  0  0  0  0
   -0.2692    0.9408    0.7687 H   0  0  0  0  0  0  0  0  0  0  0  0
    0.3992    1.7051    4.2501 H   0  0  0  0  0  0  0  0  0  0  0  0
   -1.0171    0.6884    4.0548 H   0  0  0  0  0  0  0  0  0  0  0  0
    1.5388   -0.2289    4.7958 H   0  0  0  0  0  0  0  0  0  0  0  0
    3.2436   -0.7328   -1.4295 H   0  0  0  0  0  0  0  0  0  0  0  0
    4.9109   -0.2543   -1.2273 H   0  0  0  0  0  0  0  0  0  0  0  0
    4.6295   -1.7400   -3.2092 H   0  0  0  0  0  0  0  0  0  0  0  0
    2.6438   -3.0052   -2.3879 H   0  0  0  0  0  0  0  0  0  0  0  0
    3.9150   -4.0831   -2.9187 H   0  0  0  0  0  0  0  0  0  0  0  0
    2.9803   -4.8193   -0.7134 H   0  0  0  0  0  0  0  0  0  0  0  0
    5.1147   -4.9379    0.5767 H   0  0  0  0  0  0  0  0  0  0  0  0
    5.3809   -5.2828   -1.1153 H   0  0  0  0  0  0  0  0  0  0  0  0
    7.0908   -3.6711   -0.2644 H   0  0  0  0  0  0  0  0  0  0  0  0
    6.3771   -3.4293   -2.6454 H   0  0  0  0  0  0  0  0  0  0  0  0
    6.7829   -1.8767   -1.9544 H   0  0  0  0  0  0  0  0  0  0  0  0
    6.4015   -1.4307    0.5257 H   0  0  0  0  0  0  0  0  0  0  0  0
    5.7295   -2.6807    1.5500 H   0  0  0  0  0  0  0  0  0  0  0  0
    3.2412   -3.3797    1.2889 H   0  0  0  0  0  0  0  0  0  0  0  0
    2.2337   -2.6305    0.0781 H   0  0  0  0  0  0  0  0  0  0  0  0
  1  2  2  0
  2  3  1  0
  9  2  1  1
  3  4  1  0
  3 19  1  0
  4  5  1  0
  4 20  1  0
  4 21  1  0
  5  6  1  0
  5  7  1  0
  5 22  1  6
  6 23  1  0
  7  8  1  0
  7 24  1  0
  7 25  1  0
  8 26  1  0
  9 17  1  0
  9 18  1  0
  9 10  1  0
 10 11  1  0
 10 27  1  0
 10 28  1  0
 11 16  1  0
 11 12  1  0
 11 29  1  6
 12 13  1  0
 12 30  1  0
 12 31  1  0
 13 14  1  0
 13 18  1  0
 13 32  1  6
 14 15  1  0
 14 33  1  0
 14 34  1  0
 15 16  1  0
 15 17  1  0
 15 35  1  1
 16 36  1  0
 16 37  1  0
 17 38  1  0
 17 39  1  0
 18 40  1  0
 18 41  1  0
M  END
>  <i_m_ct_stereo_status>  (288) 
1

>  <s_m_source_file>  (288) 
/var/tmp/pbs.5076255.sched01/tmpebi1rvwe/120qlbjc4nh.sdf

>  <i_m_source_file_index>  (288) 
11

>  <i_lp_mmshare_version>  (288) 
48012

>  <i_f3d_flags>  (288) 
0

>  <s_epik_input>  (288) 
W09IXVtDSDJdW0NAQEhdKFtPSF0pW0NIMl1bTkhdQyg9TylDMTJbQ0gyXVtDQEBIXTNbQ0gyXVtDQEhdKFtDSDJdMilbQ0gyXVtDQEBIXShbQ0gyXTMpW0NIMl0x

>  <s_epik_cmdline>  (288) 
J2VwaWtfcHl0aG9uJywgJy1waHQnLCAnMi4wJywgJy1waCcsICc3LjAnLCAnLXRuJywgJzgnLCAnLW1hJywgJzIwMCcsICctaW1hZScsICc8aW5maWxlLm1hZT4nLCAnLW9tYWUnLCAnPG91dGZpbGUubWFlPic=

>  <r_lp_tautomer_probability>  (288) 
1

>  <r_epik_Ionization_Penalty>  (288) 
1.86718e-07

>  <r_epik_Ionization_Penalty_Charging>  (288) 
0

>  <r_epik_Ionization_Penalty_Neutral>  (288) 
1.86718e-07

>  <r_epik_State_Penalty>  (288) 
-0

>  <r_epik_Charging_Adjusted_Penalty>  (288) 
0

>  <i_epik_Tot_Q>  (288) 
0

>  <i_epik_Tot_abs_Q>  (288) 
0

>  <s_lp_Force_Field>  (288) 
OPLS3e

>  <r_lp_Energy>  (288) 
2.1618

>  <b_lp_Chiralities_Consistent>  (288) 
1

>  <s_lp_Variant>  (288) 
99:0-1

>  <s_i_glide_gridfile>  (288) 
pfpi4k_grid

>  <i_i_glide_lignum>  (288) 
11

>  <i_i_glide_rotatable_bonds>  (288) 
7

>  <r_i_docking_score>  (288) 
-3.03645

>  <r_i_glide_ligand_efficiency>  (288) 
-0.168692

>  <r_i_glide_ligand_efficiency_sa>  (288) 
-0.442097

>  <r_i_glide_ligand_efficiency_ln>  (288) 
-0.780504

>  <r_i_glide_gscore>  (288) 
-3.03645

>  <r_i_glide_lipo>  (288) 
-0.210215

>  <r_i_glide_hbond>  (288) 
-0.31852

>  <r_i_glide_metal>  (288) 
-0

>  <r_i_glide_rewards>  (288) 
-1.69405

>  <r_i_glide_evdw>  (288) 
-19.0261

>  <r_i_glide_ecoul>  (288) 
-5.94137

>  <r_i_glide_erotb>  (288) 
1.09481

>  <r_i_glide_esite>  (288) 
-0.0659611

>  <r_i_glide_emodel>  (288) 
-29.291

>  <r_i_glide_energy>  (288) 
-24.9675

>  <r_i_glide_einternal>  (288) 
3.87878

>  <r_i_glide_intrahb_reward>  (288) 
-0

>  <i_i_glide_confnum>  (288) 
5

>  <i_i_glide_posenum>  (288) 
17

>  <r_i_glide_eff_state_penalty>  (288) 
0

>  <ligand_id>  (288) 
99

>  <original_smiles>  (288) 
O=C(NCC(O)CO)C12CC3CC(CC(C3)C1)C2

>  <smiles>  (288) 
[H]OC([H])([H])C([H])(O[H])C([H])([H])N([H])C(=O)C12C([H])([H])C3([H])C([H])([H])C([H])(C([H])([H])C([H])(C3([H])[H])C1([H])[H])C2([H])[H]

$$$$
99:0:2
     RDKit          3D

 41 43  0  0  1  0  0  0  0  0999 V2000
   -1.0741   -0.8301    5.2124 O   0  0  0  0  0  0  0  0  0  0  0  0
   -0.4378    0.2150    5.0720 C   0  0  0  0  0  0  0  0  0  0  0  0
    0.5792    0.3267    4.2071 N   0  0  0  0  0  0  0  0  0  0  0  0
    1.1140   -0.7247    3.3559 C   0  0  0  0  0  0  0  0  0  0  0  0
    1.5369   -0.1790    1.9735 C   0  0  2  0  0  0  0  0  0  0  0  0
    2.2118   -1.2192    1.2882 O   0  0  0  0  0  0  0  0  0  0  0  0
    2.4802    1.0378    1.9904 C   0  0  0  0  0  0  0  0  0  0  0  0
    1.8384    2.2163    2.4420 O   0  0  0  0  0  0  0  0  0  0  0  0
   -0.7875    1.4761    5.9084 C   0  0  1  0  0  0  0  0  0  0  0  0
   -1.6227    2.4631    5.0503 C   0  0  0  0  0  0  0  0  0  0  0  0
   -1.9967    3.7029    5.8861 C   0  0  2  0  0  0  0  0  0  0  0  0
   -0.7193    4.4162    6.3732 C   0  0  0  0  0  0  0  0  0  0  0  0
    0.0946    3.4492    7.2558 C   0  0  1  0  0  0  0  0  0  0  0  0
   -0.7404    3.0089    8.4731 C   0  0  0  0  0  0  0  0  0  0  0  0
   -2.0235    2.3163    7.9790 C   0  0  1  0  0  0  0  0  0  0  0  0
   -2.8432    3.2855    7.1077 C   0  0  0  0  0  0  0  0  0  0  0  0
   -1.6456    1.0792    7.1477 C   0  0  0  0  0  0  0  0  0  0  0  0
    0.4871    2.2144    6.4240 C   0  0  0  0  0  0  0  0  0  0  0  0
    1.0269    1.2321    4.1100 H   0  0  0  0  0  0  0  0  0  0  0  0
    1.9686   -1.1598    3.8747 H   0  0  0  0  0  0  0  0  0  0  0  0
    0.3803   -1.5186    3.2253 H   0  0  0  0  0  0  0  0  0  0  0  0
    0.6474    0.0612    1.3927 H   0  0  0  0  0  0  0  0  0  0  0  0
    1.8731   -1.1985    0.3747 H   0  0  0  0  0  0  0  0  0  0  0  0
    3.3463    0.8296    2.6217 H   0  0  0  0  0  0  0  0  0  0  0  0
    2.8610    1.2171    0.9874 H   0  0  0  0  0  0  0  0  0  0  0  0
    1.2007    2.5045    1.7957 H   0  0  0  0  0  0  0  0  0  0  0  0
   -1.0609    2.7791    4.1679 H   0  0  0  0  0  0  0  0  0  0  0  0
   -2.5296    1.9846    4.6751 H   0  0  0  0  0  0  0  0  0  0  0  0
   -2.5662    4.3718    5.2476 H   0  0  0  0  0  0  0  0  0  0  0  0
   -0.1213    4.7359    5.5182 H   0  0  0  0  0  0  0  0  0  0  0  0
   -0.9721    5.3195    6.9305 H   0  0  0  0  0  0  0  0  0  0  0  0
    0.9955    3.9545    7.6048 H   0  0  0  0  0  0  0  0  0  0  0  0
   -0.1634    2.3199    9.0919 H   0  0  0  0  0  0  0  0  0  0  0  0
   -0.9857    3.8629    9.1050 H   0  0  0  0  0  0  0  0  0  0  0  0
   -2.6197    2.0096    8.8378 H   0  0  0  0  0  0  0  0  0  0  0  0
   -3.1248    4.1566    7.6993 H   0  0  0  0  0  0  0  0  0  0  0  0
   -3.7715    2.8143    6.7822 H   0  0  0  0  0  0  0  0  0  0  0  0
   -2.5642    0.5818    6.8268 H   0  0  0  0  0  0  0  0  0  0  0  0
   -1.0811    0.3812    7.7703 H   0  0  0  0  0  0  0  0  0  0  0  0
    1.1010    1.5445    7.0277 H   0  0  0  0  0  0  0  0  0  0  0  0
    1.1187    2.5507    5.6000 H   0  0  0  0  0  0  0  0  0  0  0  0
  1  2  2  0
  2  3  1  0
  9  2  1  6
  3  4  1  0
  3 19  1  0
  4  5  1  0
  4 20  1  0
  4 21  1  0
  5  6  1  0
  5  7  1  0
  5 22  1  6
  6 23  1  0
  7  8  1  0
  7 24  1  0
  7 25  1  0
  8 26  1  0
  9 17  1  0
  9 18  1  0
  9 10  1  0
 10 11  1  0
 10 27  1  0
 10 28  1  0
 11 16  1  0
 11 12  1  0
 11 29  1  6
 12 13  1  0
 12 30  1  0
 12 31  1  0
 13 14  1  0
 13 18  1  0
 13 32  1  1
 14 15  1  0
 14 33  1  0
 14 34  1  0
 15 16  1  0
 15 17  1  0
 15 35  1  1
 16 36  1  0
 16 37  1  0
 17 38  1  0
 17 39  1  0
 18 40  1  0
 18 41  1  0
M  END
>  <i_m_ct_stereo_status>  (289) 
1

>  <s_m_source_file>  (289) 
/var/tmp/pbs.5076255.sched01/tmpebi1rvwe/120qlbjc4nh.sdf

>  <i_m_source_file_index>  (289) 
11

>  <i_lp_mmshare_version>  (289) 
48012

>  <i_f3d_flags>  (289) 
0

>  <s_epik_input>  (289) 
W09IXVtDSDJdW0NAQEhdKFtPSF0pW0NIMl1bTkhdQyg9TylDMTJbQ0gyXVtDQEBIXTNbQ0gyXVtDQEhdKFtDSDJdMilbQ0gyXVtDQEBIXShbQ0gyXTMpW0NIMl0x

>  <s_epik_cmdline>  (289) 
J2VwaWtfcHl0aG9uJywgJy1waHQnLCAnMi4wJywgJy1waCcsICc3LjAnLCAnLXRuJywgJzgnLCAnLW1hJywgJzIwMCcsICctaW1hZScsICc8aW5maWxlLm1hZT4nLCAnLW9tYWUnLCAnPG91dGZpbGUubWFlPic=

>  <r_lp_tautomer_probability>  (289) 
1

>  <r_epik_Ionization_Penalty>  (289) 
1.86718e-07

>  <r_epik_Ionization_Penalty_Charging>  (289) 
0

>  <r_epik_Ionization_Penalty_Neutral>  (289) 
1.86718e-07

>  <r_epik_State_Penalty>  (289) 
-0

>  <r_epik_Charging_Adjusted_Penalty>  (289) 
0

>  <i_epik_Tot_Q>  (289) 
0

>  <i_epik_Tot_abs_Q>  (289) 
0

>  <s_lp_Force_Field>  (289) 
OPLS3e

>  <r_lp_Energy>  (289) 
2.1618

>  <b_lp_Chiralities_Consistent>  (289) 
1

>  <s_lp_Variant>  (289) 
99:0-1

>  <s_i_glide_gridfile>  (289) 
pfpi4k_grid

>  <i_i_glide_lignum>  (289) 
11

>  <i_i_glide_rotatable_bonds>  (289) 
7

>  <r_i_docking_score>  (289) 
-2.96752

>  <r_i_glide_ligand_efficiency>  (289) 
-0.164862

>  <r_i_glide_ligand_efficiency_sa>  (289) 
-0.432061

>  <r_i_glide_ligand_efficiency_ln>  (289) 
-0.762785

>  <r_i_glide_gscore>  (289) 
-2.96752

>  <r_i_glide_lipo>  (289) 
-0.153811

>  <r_i_glide_hbond>  (289) 
-0.185167

>  <r_i_glide_metal>  (289) 
-0

>  <r_i_glide_rewards>  (289) 
-2.18179

>  <r_i_glide_evdw>  (289) 
-13.7958

>  <r_i_glide_ecoul>  (289) 
-5.49598

>  <r_i_glide_erotb>  (289) 
1.09481

>  <r_i_glide_esite>  (289) 
-0.0273665

>  <r_i_glide_emodel>  (289) 
-28.9515

>  <r_i_glide_energy>  (289) 
-19.2918

>  <r_i_glide_einternal>  (289) 
2.47089

>  <r_i_glide_intrahb_reward>  (289) 
-0.5

>  <i_i_glide_confnum>  (289) 
1

>  <i_i_glide_posenum>  (289) 
16

>  <r_i_glide_eff_state_penalty>  (289) 
0

>  <ligand_id>  (289) 
99

>  <original_smiles>  (289) 
O=C(NCC(O)CO)C12CC3CC(CC(C3)C1)C2

>  <smiles>  (289) 
[H]OC([H])([H])C([H])(O[H])C([H])([H])N([H])C(=O)C12C([H])([H])C3([H])C([H])([H])C([H])(C([H])([H])C([H])(C3([H])[H])C1([H])[H])C2([H])[H]

$$$$
100:0:0
     RDKit          3D

 50 54  0  0  1  0  0  0  0  0999 V2000
    3.6471   -2.5396   -2.4093 C   0  0  0  0  0  0  0  0  0  0  0  0
    4.5457   -2.5760   -1.1627 C   0  0  2  0  0  0  0  0  0  0  0  0
    6.0422   -2.7166   -1.5381 C   0  0  0  0  0  0  0  0  0  0  0  0
    6.9959   -2.8956   -0.3220 C   0  0  0  0  0  0  0  0  0  0  0  0
    6.4630   -3.7800    0.8496 C   0  0  2  0  0  0  0  0  0  0  0  0
    6.5967   -5.3415    0.7208 C   0  0  1  0  0  0  0  0  0  0  0  0
    8.0795   -5.7747    0.8676 C   0  0  0  0  0  0  0  0  0  0  0  0
    5.5298   -6.2227    1.5488 C   0  0  1  0  0  0  0  0  0  0  0  0
    6.2379   -7.0352    2.6475 C   0  0  0  0  0  0  0  0  0  0  0  0
    6.5445   -6.7107    3.9019 C   0  0  0  0  0  0  0  0  0  0  0  0
    7.1804   -7.8605    4.6139 C   0  0  0  0  0  0  0  0  0  0  0  0
    7.2206   -8.8611    3.6050 O   0  0  0  0  0  0  0  0  0  0  0  0
    6.6810   -8.4235    2.4443 C   0  0  0  0  0  0  0  0  0  0  0  0
    6.6030   -9.0769    1.4028 O   0  0  0  0  0  0  0  0  0  0  0  0
    4.1602   -5.5130    2.0291 C   0  0  2  0  0  0  0  0  0  0  0  0
    3.4984   -6.2226    3.2396 C   0  0  0  0  0  0  0  0  0  0  0  0
    2.9936   -5.4974    0.9495 C   0  0  0  0  0  0  0  0  0  0  0  0
    2.8527   -4.2313    0.0760 C   0  0  0  0  0  0  0  0  0  0  0  0
    4.2613   -3.7480   -0.2175 C   0  0  2  0  0  0  0  0  0  0  0  0
    5.0151   -3.5008    1.0922 C   0  0  2  0  0  0  0  0  0  0  0  0
    4.3400   -2.6547    2.1082 C   0  0  0  0  0  0  0  0  0  0  0  0
    4.6210   -4.1192    2.4225 C   0  0  1  0  0  0  0  0  0  0  0  0
    3.7207   -3.4619   -2.9883 H   0  0  0  0  0  0  0  0  0  0  0  0
    3.9208   -1.7040   -3.0566 H   0  0  0  0  0  0  0  0  0  0  0  0
    2.6033   -2.3989   -2.1258 H   0  0  0  0  0  0  0  0  0  0  0  0
    4.3978   -1.6395   -0.6226 H   0  0  0  0  0  0  0  0  0  0  0  0
    6.1671   -3.5834   -2.1910 H   0  0  0  0  0  0  0  0  0  0  0  0
    6.3619   -1.8569   -2.1256 H   0  0  0  0  0  0  0  0  0  0  0  0
    7.9621   -3.2635   -0.6643 H   0  0  0  0  0  0  0  0  0  0  0  0
    7.1985   -1.9043    0.0874 H   0  0  0  0  0  0  0  0  0  0  0  0
    7.0129   -3.4847    1.7372 H   0  0  0  0  0  0  0  0  0  0  0  0
    6.3885   -5.5876   -0.3132 H   0  0  0  0  0  0  0  0  0  0  0  0
    8.4864   -5.5437    1.8496 H   0  0  0  0  0  0  0  0  0  0  0  0
    8.7153   -5.2924    0.1237 H   0  0  0  0  0  0  0  0  0  0  0  0
    8.2016   -6.8456    0.6972 H   0  0  0  0  0  0  0  0  0  0  0  0
    5.2075   -6.9931    0.8450 H   0  0  0  0  0  0  0  0  0  0  0  0
    6.3442   -5.7716    4.3966 H   0  0  0  0  0  0  0  0  0  0  0  0
    6.5681   -8.1744    5.4602 H   0  0  0  0  0  0  0  0  0  0  0  0
    8.1718   -7.5859    4.9752 H   0  0  0  0  0  0  0  0  0  0  0  0
    2.5543   -5.7415    3.5076 H   0  0  0  0  0  0  0  0  0  0  0  0
    4.0872   -6.2014    4.1527 H   0  0  0  0  0  0  0  0  0  0  0  0
    3.2756   -7.2649    2.9966 H   0  0  0  0  0  0  0  0  0  0  0  0
    3.1113   -6.3576    0.2904 H   0  0  0  0  0  0  0  0  0  0  0  0
    2.0178   -5.6444    1.4176 H   0  0  0  0  0  0  0  0  0  0  0  0
    2.3312   -4.4826   -0.8516 H   0  0  0  0  0  0  0  0  0  0  0  0
    2.2536   -3.4676    0.5710 H   0  0  0  0  0  0  0  0  0  0  0  0
    4.6610   -4.6079   -0.7434 H   0  0  0  0  0  0  0  0  0  0  0  0
    4.9663   -1.9288    2.6179 H   0  0  0  0  0  0  0  0  0  0  0  0
    3.3009   -2.3474    2.0072 H   0  0  0  0  0  0  0  0  0  0  0  0
    5.3643   -4.1767    3.2200 H   0  0  0  0  0  0  0  0  0  0  0  0
  1  2  1  0
  1 23  1  0
  1 24  1  0
  1 25  1  0
  2 19  1  0
  2  3  1  0
  2 26  1  1
  3  4  1  0
  3 27  1  0
  3 28  1  0
  4  5  1  0
  4 29  1  0
  4 30  1  0
  5 20  1  0
  5  6  1  0
  5 31  1  1
  6  7  1  0
  6  8  1  0
  6 32  1  6
  7 33  1  0
  7 34  1  0
  7 35  1  0
  8 15  1  0
  8 36  1  6
  8  9  1  0
  9 10  2  0
  9 13  1  0
 10 37  1  0
 10 11  1  0
 11 12  1  0
 11 38  1  0
 11 39  1  0
 12 13  1  0
 13 14  2  0
 15 22  1  0
 15 16  1  1
 15 17  1  0
 16 40  1  0
 16 41  1  0
 16 42  1  0
 17 18  1  0
 17 43  1  0
 17 44  1  0
 18 19  1  0
 18 45  1  0
 18 46  1  0
 19 20  1  0
 19 47  1  6
 20 22  1  0
 20 21  1  1
 21 22  1  0
 21 48  1  0
 21 49  1  0
 22 50  1  1
M  END
>  <i_m_ct_stereo_status>  (290) 
1

>  <s_m_source_file>  (290) 
/var/tmp/pbs.5076255.sched01/tmpebi1rvwe/120qlbjc4nh.sdf

>  <i_m_source_file_index>  (290) 
12

>  <i_lp_mmshare_version>  (290) 
48012

>  <i_f3d_flags>  (290) 
0

>  <s_epik_input>  (290) 
W0NAQF0xMjNbQ0BASF00W0NIMl1bQ0gyXVtDQEBIXShbQ0gzXSlbQ0BASF0xW0NIMl1bQ0gyXVtDQF0oW0NIM10pKFtDSF0zW0NIMl0yKVtDQEBIXShbQ0BASF00W0NIM10pYzVbY0hdW2NIXW9jNVtPSF0=

>  <s_epik_cmdline>  (290) 
J2VwaWtfcHl0aG9uJywgJy1waHQnLCAnMi4wJywgJy1waCcsICc3LjAnLCAnLXRuJywgJzgnLCAnLW1hJywgJzIwMCcsICctaW1hZScsICc8aW5maWxlLm1hZT4nLCAnLW9tYWUnLCAnPG91dGZpbGUubWFlPic=

>  <r_lp_tautomer_probability>  (290) 
1

>  <r_epik_Ionization_Penalty>  (290) 
0

>  <r_epik_Ionization_Penalty_Charging>  (290) 
0

>  <r_epik_Ionization_Penalty_Neutral>  (290) 
0

>  <r_epik_State_Penalty>  (290) 
-0

>  <r_epik_Charging_Adjusted_Penalty>  (290) 
0

>  <i_epik_Tot_Q>  (290) 
0

>  <i_epik_Tot_abs_Q>  (290) 
0

>  <s_epik_Chemistry_Notes>  (290) 
This compound has an ester and may undergo hydrolysis at high or low pH.

>  <s_lp_Force_Field>  (290) 
OPLS3e

>  <r_lp_Energy>  (290) 
89.1059

>  <b_lp_Chiralities_Consistent>  (290) 
1

>  <s_lp_Variant>  (290) 
100:0-1

>  <s_i_glide_gridfile>  (290) 
pfpi4k_grid

>  <i_i_glide_lignum>  (290) 
12

>  <i_i_glide_rotatable_bonds>  (290) 
1

>  <r_i_docking_score>  (290) 
-3.04314

>  <r_i_glide_ligand_efficiency>  (290) 
-0.138325

>  <r_i_glide_ligand_efficiency_sa>  (290) 
-0.387591

>  <r_i_glide_ligand_efficiency_ln>  (290) 
-0.743855

>  <r_i_glide_gscore>  (290) 
-3.04314

>  <r_i_glide_lipo>  (290) 
-0.454619

>  <r_i_glide_hbond>  (290) 
0

>  <r_i_glide_metal>  (290) 
-0

>  <r_i_glide_rewards>  (290) 
-1.44116

>  <r_i_glide_evdw>  (290) 
-24.8595

>  <r_i_glide_ecoul>  (290) 
-0.72023

>  <r_i_glide_erotb>  (290) 
0.203649

>  <r_i_glide_esite>  (290) 
0

>  <r_i_glide_emodel>  (290) 
-29.617

>  <r_i_glide_energy>  (290) 
-25.5798

>  <r_i_glide_einternal>  (290) 
0.249093

>  <r_i_glide_intrahb_reward>  (290) 
-0

>  <i_i_glide_confnum>  (290) 
2

>  <i_i_glide_posenum>  (290) 
17

>  <r_i_glide_eff_state_penalty>  (290) 
0

>  <ligand_id>  (290) 
100

>  <original_smiles>  (290) 
CC1CCC2C(C)C(c3ccoc3O)C3(C)CCC1C21CC31

>  <smiles>  (290) 
[H]C1=C(C2([H])C([H])(C([H])([H])[H])C3([H])C([H])([H])C([H])([H])C([H])(C([H])([H])[H])C4([H])C([H])([H])C([H])([H])C2(C([H])([H])[H])C2([H])C([H])([H])C432)C(=O)OC1([H])[H]

$$$$
100:0:1
     RDKit          3D

 50 54  0  0  1  0  0  0  0  0999 V2000
    4.3882   -2.3188   -2.6670 C   0  0  0  0  0  0  0  0  0  0  0  0
    5.0977   -2.5289   -1.3281 C   0  0  2  0  0  0  0  0  0  0  0  0
    6.5762   -2.9682   -1.5149 C   0  0  0  0  0  0  0  0  0  0  0  0
    7.3112   -3.3236   -0.1916 C   0  0  0  0  0  0  0  0  0  0  0  0
    6.4638   -4.0865    0.8769 C   0  0  2  0  0  0  0  0  0  0  0  0
    6.3231   -5.6436    0.7385 C   0  0  1  0  0  0  0  0  0  0  0  0
    7.6638   -6.3702    1.0276 C   0  0  0  0  0  0  0  0  0  0  0  0
    5.0277   -6.2876    1.4377 C   0  0  1  0  0  0  0  0  0  0  0  0
    5.4063   -7.1685    2.6485 C   0  0  0  0  0  0  0  0  0  0  0  0
    5.2176   -8.4795    2.8095 C   0  0  0  0  0  0  0  0  0  0  0  0
    5.7146   -8.9305    4.1621 C   0  0  0  0  0  0  0  0  0  0  0  0
    6.1952   -7.7293    4.7251 O   0  0  0  0  0  0  0  0  0  0  0  0
    6.0902   -6.6747    3.8782 C   0  0  0  0  0  0  0  0  0  0  0  0
    6.5247   -5.5674    4.0896 O   0  0  0  0  0  0  0  0  0  0  0  0
    3.7541   -5.3201    1.7170 C   0  0  2  0  0  0  0  0  0  0  0  0
    2.8440   -5.9048    2.8300 C   0  0  0  0  0  0  0  0  0  0  0  0
    2.7552   -5.1032    0.5057 C   0  0  0  0  0  0  0  0  0  0  0  0
    2.9640   -3.8334   -0.3592 C   0  0  0  0  0  0  0  0  0  0  0  0
    4.4693   -3.6303   -0.4595 C   0  0  2  0  0  0  0  0  0  0  0  0
    5.0804   -3.5293    0.9291 C   0  0  2  0  0  0  0  0  0  0  0  0
    4.4553   -2.5325    1.8528 C   0  0  0  0  0  0  0  0  0  0  0  0
    4.3762   -4.0251    2.2111 C   0  0  1  0  0  0  0  0  0  0  0  0
    4.3516   -3.2391   -3.2542 H   0  0  0  0  0  0  0  0  0  0  0  0
    4.8928   -1.5530   -3.2567 H   0  0  0  0  0  0  0  0  0  0  0  0
    3.3617   -1.9810   -2.5089 H   0  0  0  0  0  0  0  0  0  0  0  0
    5.0671   -1.5831   -0.7810 H   0  0  0  0  0  0  0  0  0  0  0  0
    6.5999   -3.8443   -2.1658 H   0  0  0  0  0  0  0  0  0  0  0  0
    7.1416   -2.1995   -2.0418 H   0  0  0  0  0  0  0  0  0  0  0  0
    8.2220   -3.8797   -0.4190 H   0  0  0  0  0  0  0  0  0  0  0  0
    7.6588   -2.3944    0.2633 H   0  0  0  0  0  0  0  0  0  0  0  0
    6.9325   -3.9088    1.8386 H   0  0  0  0  0  0  0  0  0  0  0  0
    6.1945   -5.8456   -0.3208 H   0  0  0  0  0  0  0  0  0  0  0  0
    8.0331   -6.2053    2.0403 H   0  0  0  0  0  0  0  0  0  0  0  0
    8.4612   -6.0422    0.3661 H   0  0  0  0  0  0  0  0  0  0  0  0
    7.5671   -7.4478    0.8879 H   0  0  0  0  0  0  0  0  0  0  0  0
    4.6766   -7.0294    0.7144 H   0  0  0  0  0  0  0  0  0  0  0  0
    4.7676   -9.1521    2.0976 H   0  0  0  0  0  0  0  0  0  0  0  0
    6.5360   -9.6427    4.0616 H   0  0  0  0  0  0  0  0  0  0  0  0
    4.9080   -9.3491    4.7704 H   0  0  0  0  0  0  0  0  0  0  0  0
    1.9972   -5.2480    3.0260 H   0  0  0  0  0  0  0  0  0  0  0  0
    3.3543   -6.0153    3.7785 H   0  0  0  0  0  0  0  0  0  0  0  0
    2.4422   -6.8793    2.5427 H   0  0  0  0  0  0  0  0  0  0  0  0
    2.7764   -5.9668   -0.1596 H   0  0  0  0  0  0  0  0  0  0  0  0
    1.7203   -5.0599    0.8562 H   0  0  0  0  0  0  0  0  0  0  0  0
    2.5230   -3.9624   -1.3431 H   0  0  0  0  0  0  0  0  0  0  0  0
    2.4777   -2.9685    0.0914 H   0  0  0  0  0  0  0  0  0  0  0  0
    4.7684   -4.5547   -0.9517 H   0  0  0  0  0  0  0  0  0  0  0  0
    5.1401   -1.9761    2.4714 H   0  0  0  0  0  0  0  0  0  0  0  0
    3.5202   -2.0231    1.6406 H   0  0  0  0  0  0  0  0  0  0  0  0
    4.8897   -4.1548    3.1545 H   0  0  0  0  0  0  0  0  0  0  0  0
  1  2  1  0
  1 23  1  0
  1 24  1  0
  1 25  1  0
  2 19  1  0
  2  3  1  0
  2 26  1  1
  3  4  1  0
  3 27  1  0
  3 28  1  0
  4  5  1  0
  4 29  1  0
  4 30  1  0
  5 20  1  0
  5  6  1  0
  5 31  1  1
  6  7  1  0
  6  8  1  0
  6 32  1  6
  7 33  1  0
  7 34  1  0
  7 35  1  0
  8 15  1  0
  8 36  1  6
  8  9  1  0
  9 10  2  0
  9 13  1  0
 10 37  1  0
 10 11  1  0
 11 12  1  0
 11 38  1  0
 11 39  1  0
 12 13  1  0
 13 14  2  0
 15 22  1  0
 15 16  1  1
 15 17  1  0
 16 40  1  0
 16 41  1  0
 16 42  1  0
 17 18  1  0
 17 43  1  0
 17 44  1  0
 18 19  1  0
 18 45  1  0
 18 46  1  0
 19 20  1  0
 19 47  1  6
 20 22  1  0
 20 21  1  1
 21 22  1  0
 21 48  1  0
 21 49  1  0
 22 50  1  1
M  END
>  <i_m_ct_stereo_status>  (291) 
1

>  <s_m_source_file>  (291) 
/var/tmp/pbs.5076255.sched01/tmpebi1rvwe/120qlbjc4nh.sdf

>  <i_m_source_file_index>  (291) 
12

>  <i_lp_mmshare_version>  (291) 
48012

>  <i_f3d_flags>  (291) 
0

>  <s_epik_input>  (291) 
W0NAQF0xMjNbQ0BASF00W0NIMl1bQ0gyXVtDQEBIXShbQ0gzXSlbQ0BASF0xW0NIMl1bQ0gyXVtDQF0oW0NIM10pKFtDSF0zW0NIMl0yKVtDQEBIXShbQ0BASF00W0NIM10pYzVbY0hdW2NIXW9jNVtPSF0=

>  <s_epik_cmdline>  (291) 
J2VwaWtfcHl0aG9uJywgJy1waHQnLCAnMi4wJywgJy1waCcsICc3LjAnLCAnLXRuJywgJzgnLCAnLW1hJywgJzIwMCcsICctaW1hZScsICc8aW5maWxlLm1hZT4nLCAnLW9tYWUnLCAnPG91dGZpbGUubWFlPic=

>  <r_lp_tautomer_probability>  (291) 
1

>  <r_epik_Ionization_Penalty>  (291) 
0

>  <r_epik_Ionization_Penalty_Charging>  (291) 
0

>  <r_epik_Ionization_Penalty_Neutral>  (291) 
0

>  <r_epik_State_Penalty>  (291) 
-0

>  <r_epik_Charging_Adjusted_Penalty>  (291) 
0

>  <i_epik_Tot_Q>  (291) 
0

>  <i_epik_Tot_abs_Q>  (291) 
0

>  <s_epik_Chemistry_Notes>  (291) 
This compound has an ester and may undergo hydrolysis at high or low pH.

>  <s_lp_Force_Field>  (291) 
OPLS3e

>  <r_lp_Energy>  (291) 
89.1059

>  <b_lp_Chiralities_Consistent>  (291) 
1

>  <s_lp_Variant>  (291) 
100:0-1

>  <s_i_glide_gridfile>  (291) 
pfpi4k_grid

>  <i_i_glide_lignum>  (291) 
12

>  <i_i_glide_rotatable_bonds>  (291) 
1

>  <r_i_docking_score>  (291) 
-2.98721

>  <r_i_glide_ligand_efficiency>  (291) 
-0.135782

>  <r_i_glide_ligand_efficiency_sa>  (291) 
-0.380467

>  <r_i_glide_ligand_efficiency_ln>  (291) 
-0.730183

>  <r_i_glide_gscore>  (291) 
-2.98721

>  <r_i_glide_lipo>  (291) 
-0.675567

>  <r_i_glide_hbond>  (291) 
0

>  <r_i_glide_metal>  (291) 
-0

>  <r_i_glide_rewards>  (291) 
-1.36067

>  <r_i_glide_evdw>  (291) 
-22.8869

>  <r_i_glide_ecoul>  (291) 
-0.0685192

>  <r_i_glide_erotb>  (291) 
0.203649

>  <r_i_glide_esite>  (291) 
0

>  <r_i_glide_emodel>  (291) 
-26.4527

>  <r_i_glide_energy>  (291) 
-22.9554

>  <r_i_glide_einternal>  (291) 
1.05258

>  <r_i_glide_intrahb_reward>  (291) 
-0

>  <i_i_glide_confnum>  (291) 
2

>  <i_i_glide_posenum>  (291) 
1

>  <r_i_glide_eff_state_penalty>  (291) 
0

>  <ligand_id>  (291) 
100

>  <original_smiles>  (291) 
CC1CCC2C(C)C(c3ccoc3O)C3(C)CCC1C21CC31

>  <smiles>  (291) 
[H]C1=C(C2([H])C([H])(C([H])([H])[H])C3([H])C([H])([H])C([H])([H])C([H])(C([H])([H])[H])C4([H])C([H])([H])C([H])([H])C2(C([H])([H])[H])C2([H])C([H])([H])C432)C(=O)OC1([H])[H]

$$$$
100:0:2
     RDKit          3D

 50 54  0  0  1  0  0  0  0  0999 V2000
    4.1592    0.1219   -3.1768 C   0  0  0  0  0  0  0  0  0  0  0  0
    4.4579   -1.2701   -2.7176 C   0  0  2  0  0  0  0  0  0  0  0  0
    3.3887   -2.1548   -3.3243 C   0  0  0  0  0  0  0  0  0  0  0  0
    3.5676   -3.5926   -2.8530 C   0  0  0  0  0  0  0  0  0  0  0  0
    3.9583   -3.8438   -1.3480 C   0  0  2  0  0  0  0  0  0  0  0  0
    2.8235   -3.8155   -0.2463 C   0  0  1  0  0  0  0  0  0  0  0  0
    1.9411   -5.0900   -0.2817 C   0  0  0  0  0  0  0  0  0  0  0  0
    3.2988   -3.4119    1.2330 C   0  0  1  0  0  0  0  0  0  0  0  0
    3.1394   -4.5620    2.2381 C   0  0  0  0  0  0  0  0  0  0  0  0
    3.7244   -5.7594    2.2772 C   0  0  0  0  0  0  0  0  0  0  0  0
    3.2561   -6.5399    3.4714 C   0  0  0  0  0  0  0  0  0  0  0  0
    2.3412   -5.6378    4.0832 O   0  0  0  0  0  0  0  0  0  0  0  0
    2.2422   -4.4719    3.3967 C   0  0  0  0  0  0  0  0  0  0  0  0
    1.5230   -3.5225    3.7014 O   0  0  0  0  0  0  0  0  0  0  0  0
    4.7061   -2.6650    1.3997 C   0  0  2  0  0  0  0  0  0  0  0  0
    5.2986   -2.8332    2.8099 C   0  0  0  0  0  0  0  0  0  0  0  0
    4.6576   -1.1017    1.2255 C   0  0  0  0  0  0  0  0  0  0  0  0
    4.9692   -0.5786   -0.1739 C   0  0  0  0  0  0  0  0  0  0  0  0
    4.4217   -1.5215   -1.2014 C   0  0  2  0  0  0  0  0  0  0  0  0
    5.0040   -2.8870   -0.9304 C   0  0  2  0  0  0  0  0  0  0  0  0
    6.4864   -3.0028   -0.8270 C   0  0  0  0  0  0  0  0  0  0  0  0
    5.6145   -3.3359    0.3832 C   0  0  1  0  0  0  0  0  0  0  0  0
    3.1740    0.4119   -2.8264 H   0  0  0  0  0  0  0  0  0  0  0  0
    4.1848    0.2503   -4.2554 H   0  0  0  0  0  0  0  0  0  0  0  0
    4.8850    0.7988   -2.7342 H   0  0  0  0  0  0  0  0  0  0  0  0
    5.4051   -1.6001   -3.1252 H   0  0  0  0  0  0  0  0  0  0  0  0
    2.3877   -1.8381   -3.0181 H   0  0  0  0  0  0  0  0  0  0  0  0
    3.4114   -2.1424   -4.4146 H   0  0  0  0  0  0  0  0  0  0  0  0
    2.6475   -4.0586   -3.0712 H   0  0  0  0  0  0  0  0  0  0  0  0
    4.3322   -4.0657   -3.4831 H   0  0  0  0  0  0  0  0  0  0  0  0
    4.4166   -4.8216   -1.2966 H   0  0  0  0  0  0  0  0  0  0  0  0
    2.1181   -3.0343   -0.5527 H   0  0  0  0  0  0  0  0  0  0  0  0
    2.5231   -6.0087   -0.1880 H   0  0  0  0  0  0  0  0  0  0  0  0
    1.4009   -5.1427   -1.2259 H   0  0  0  0  0  0  0  0  0  0  0  0
    1.1908   -5.1177    0.4989 H   0  0  0  0  0  0  0  0  0  0  0  0
    2.5492   -2.6971    1.5417 H   0  0  0  0  0  0  0  0  0  0  0  0
    4.4392   -6.1482    1.5739 H   0  0  0  0  0  0  0  0  0  0  0  0
    4.0897   -6.7824    4.1328 H   0  0  0  0  0  0  0  0  0  0  0  0
    2.7654   -7.4646    3.1609 H   0  0  0  0  0  0  0  0  0  0  0  0
    6.2187   -2.2594    2.8723 H   0  0  0  0  0  0  0  0  0  0  0  0
    5.5503   -3.8647    3.0544 H   0  0  0  0  0  0  0  0  0  0  0  0
    4.6196   -2.4374    3.5639 H   0  0  0  0  0  0  0  0  0  0  0  0
    3.6672   -0.7481    1.4852 H   0  0  0  0  0  0  0  0  0  0  0  0
    5.3371   -0.5795    1.9129 H   0  0  0  0  0  0  0  0  0  0  0  0
    4.4380    0.3605   -0.2438 H   0  0  0  0  0  0  0  0  0  0  0  0
    6.0334   -0.3977   -0.3025 H   0  0  0  0  0  0  0  0  0  0  0  0
    3.3650   -1.4816   -0.9492 H   0  0  0  0  0  0  0  0  0  0  0  0
    6.9160   -3.8349   -1.3561 H   0  0  0  0  0  0  0  0  0  0  0  0
    7.1221   -2.1210   -0.7730 H   0  0  0  0  0  0  0  0  0  0  0  0
    5.7009   -4.3953    0.5902 H   0  0  0  0  0  0  0  0  0  0  0  0
  1  2  1  0
  1 23  1  0
  1 24  1  0
  1 25  1  0
  2 19  1  0
  2  3  1  0
  2 26  1  6
  3  4  1  0
  3 27  1  0
  3 28  1  0
  4  5  1  0
  4 29  1  0
  4 30  1  0
  5 20  1  0
  5  6  1  0
  5 31  1  6
  6  7  1  0
  6  8  1  0
  6 32  1  6
  7 33  1  0
  7 34  1  0
  7 35  1  0
  8 15  1  0
  8 36  1  1
  8  9  1  0
  9 10  2  0
  9 13  1  0
 10 37  1  0
 10 11  1  0
 11 12  1  0
 11 38  1  0
 11 39  1  0
 12 13  1  0
 13 14  2  0
 15 22  1  0
 15 16  1  1
 15 17  1  0
 16 40  1  0
 16 41  1  0
 16 42  1  0
 17 18  1  0
 17 43  1  0
 17 44  1  0
 18 19  1  0
 18 45  1  0
 18 46  1  0
 19 20  1  0
 19 47  1  1
 20 22  1  0
 20 21  1  6
 21 22  1  0
 21 48  1  0
 21 49  1  0
 22 50  1  1
M  END
>  <i_m_ct_stereo_status>  (292) 
1

>  <s_m_source_file>  (292) 
/var/tmp/pbs.5076255.sched01/tmpebi1rvwe/120qlbjc4nh.sdf

>  <i_m_source_file_index>  (292) 
12

>  <i_lp_mmshare_version>  (292) 
48012

>  <i_f3d_flags>  (292) 
0

>  <s_epik_input>  (292) 
W0NAQF0xMjNbQ0BASF00W0NIMl1bQ0gyXVtDQEBIXShbQ0gzXSlbQ0BASF0xW0NIMl1bQ0gyXVtDQF0oW0NIM10pKFtDSF0zW0NIMl0yKVtDQEBIXShbQ0BASF00W0NIM10pYzVbY0hdW2NIXW9jNVtPSF0=

>  <s_epik_cmdline>  (292) 
J2VwaWtfcHl0aG9uJywgJy1waHQnLCAnMi4wJywgJy1waCcsICc3LjAnLCAnLXRuJywgJzgnLCAnLW1hJywgJzIwMCcsICctaW1hZScsICc8aW5maWxlLm1hZT4nLCAnLW9tYWUnLCAnPG91dGZpbGUubWFlPic=

>  <r_lp_tautomer_probability>  (292) 
1

>  <r_epik_Ionization_Penalty>  (292) 
0

>  <r_epik_Ionization_Penalty_Charging>  (292) 
0

>  <r_epik_Ionization_Penalty_Neutral>  (292) 
0

>  <r_epik_State_Penalty>  (292) 
-0

>  <r_epik_Charging_Adjusted_Penalty>  (292) 
0

>  <i_epik_Tot_Q>  (292) 
0

>  <i_epik_Tot_abs_Q>  (292) 
0

>  <s_epik_Chemistry_Notes>  (292) 
This compound has an ester and may undergo hydrolysis at high or low pH.

>  <s_lp_Force_Field>  (292) 
OPLS3e

>  <r_lp_Energy>  (292) 
89.1059

>  <b_lp_Chiralities_Consistent>  (292) 
1

>  <s_lp_Variant>  (292) 
100:0-1

>  <s_i_glide_gridfile>  (292) 
pfpi4k_grid

>  <i_i_glide_lignum>  (292) 
12

>  <i_i_glide_rotatable_bonds>  (292) 
1

>  <r_i_docking_score>  (292) 
-1.79625

>  <r_i_glide_ligand_efficiency>  (292) 
-0.0816477

>  <r_i_glide_ligand_efficiency_sa>  (292) 
-0.22878

>  <r_i_glide_ligand_efficiency_ln>  (292) 
-0.439069

>  <r_i_glide_gscore>  (292) 
-1.79625

>  <r_i_glide_lipo>  (292) 
-0.43338

>  <r_i_glide_hbond>  (292) 
0

>  <r_i_glide_metal>  (292) 
-0

>  <r_i_glide_rewards>  (292) 
-1.36067

>  <r_i_glide_evdw>  (292) 
-7.89451

>  <r_i_glide_ecoul>  (292) 
1.25917

>  <r_i_glide_erotb>  (292) 
0.203649

>  <r_i_glide_esite>  (292) 
0

>  <r_i_glide_emodel>  (292) 
-8.87032

>  <r_i_glide_energy>  (292) 
-6.63533

>  <r_i_glide_einternal>  (292) 
4.25165e-05

>  <r_i_glide_intrahb_reward>  (292) 
-0

>  <i_i_glide_confnum>  (292) 
3

>  <i_i_glide_posenum>  (292) 
7

>  <r_i_glide_eff_state_penalty>  (292) 
0

>  <ligand_id>  (292) 
100

>  <original_smiles>  (292) 
CC1CCC2C(C)C(c3ccoc3O)C3(C)CCC1C21CC31

>  <smiles>  (292) 
[H]C1=C(C2([H])C([H])(C([H])([H])[H])C3([H])C([H])([H])C([H])([H])C([H])(C([H])([H])[H])C4([H])C([H])([H])C([H])([H])C2(C([H])([H])[H])C2([H])C([H])([H])C432)C(=O)OC1([H])[H]

$$$$
101:0:0
     RDKit          3D

 33 35  0  0  1  0  0  0  0  0999 V2000
    1.6944   -0.7164    2.3240 C   0  0  0  0  0  0  0  0  0  0  0  0
    2.8776   -1.0907    1.5764 N   0  0  0  0  0  0  0  0  0  0  0  0
    3.8551   -0.2422    1.1142 C   0  0  0  0  0  0  0  0  0  0  0  0
    4.8365   -0.8177    0.4700 N   0  0  0  0  0  0  0  0  0  0  0  0
    4.4841   -2.1614    0.4602 C   0  0  0  0  0  0  0  0  0  0  0  0
    5.0730   -3.3382   -0.0665 C   0  0  0  0  0  0  0  0  0  0  0  0
    6.2429   -3.3361   -0.7362 N   0  0  0  0  0  0  0  0  0  0  0  0
    6.2913   -2.9880   -2.1558 C   0  0  0  0  0  0  0  0  0  0  0  0
    5.0017   -2.5405   -2.7771 C   0  0  0  0  0  0  0  0  0  0  0  0
    4.0423   -3.1794   -3.5133 C   0  0  0  0  0  0  0  0  0  0  0  0
    3.0339   -2.2117   -3.7789 C   0  0  0  0  0  0  0  0  0  0  0  0
    3.4596   -1.0512   -3.2032 C   0  0  0  0  0  0  0  0  0  0  0  0
    4.6665   -1.2291   -2.5990 O   0  0  0  0  0  0  0  0  0  0  0  0
    4.4504   -4.5225    0.1429 N   0  0  0  0  0  0  0  0  0  0  0  0
    3.2938   -4.5664    0.8199 C   0  0  0  0  0  0  0  0  0  0  0  0
    2.5236   -6.2055    1.0373 S   0  0  0  0  0  0  0  0  0  0  0  0
    2.8470   -6.3348    2.8608 C   0  0  0  0  0  0  0  0  0  0  0  0
    1.0162   -5.9966    0.8602 O   0  0  0  0  0  0  0  0  0  0  0  0
    2.6306   -3.5388    1.3613 N   0  0  0  0  0  0  0  0  0  0  0  0
    3.2607   -2.3501    1.1547 C   0  0  0  0  0  0  0  0  0  0  0  0
    7.1165   -3.6011   -0.3114 H   0  0  0  0  0  0  0  0  0  0  0  0
    1.7050    0.3588    2.5070 H   0  0  0  0  0  0  0  0  0  0  0  0
    1.6757   -1.2396    3.2805 H   0  0  0  0  0  0  0  0  0  0  0  0
    0.8036   -0.9638    1.7467 H   0  0  0  0  0  0  0  0  0  0  0  0
    3.8085    0.8252    1.2775 H   0  0  0  0  0  0  0  0  0  0  0  0
    7.0458   -2.2148   -2.2869 H   0  0  0  0  0  0  0  0  0  0  0  0
    6.6642   -3.8554   -2.7002 H   0  0  0  0  0  0  0  0  0  0  0  0
    4.0580   -4.2224   -3.7979 H   0  0  0  0  0  0  0  0  0  0  0  0
    2.1043   -2.3488   -4.3118 H   0  0  0  0  0  0  0  0  0  0  0  0
    3.0433   -0.0586   -3.1216 H   0  0  0  0  0  0  0  0  0  0  0  0
    3.9172   -6.3014    3.0629 H   0  0  0  0  0  0  0  0  0  0  0  0
    2.4513   -7.2720    3.2536 H   0  0  0  0  0  0  0  0  0  0  0  0
    2.3683   -5.5128    3.3924 H   0  0  0  0  0  0  0  0  0  0  0  0
  1 22  1  0
  1 23  1  0
  1 24  1  0
  1  2  1  0
  2 20  1  0
  2  3  1  0
  3 25  1  0
  3  4  2  0
  4  5  1  0
  5 20  2  0
  5  6  1  0
  6 14  2  0
  6  7  1  0
  7  8  1  0
  7 21  1  0
  8  9  1  0
  8 26  1  0
  8 27  1  0
  9 13  1  0
  9 10  2  0
 10 11  1  0
 10 28  1  0
 11 12  2  0
 11 29  1  0
 12 13  1  0
 12 30  1  0
 14 15  1  0
 15 16  1  0
 15 19  2  0
 16 17  1  1
 16 18  2  0
 17 31  1  0
 17 32  1  0
 17 33  1  0
 19 20  1  0
M  END
>  <i_m_ct_stereo_status>  (293) 
1

>  <s_m_source_file>  (293) 
/var/tmp/pbs.5076255.sched01/tmpebi1rvwe/120qlbjc4nh.sdf

>  <i_m_source_file_index>  (293) 
13

>  <i_lp_mmshare_version>  (293) 
48012

>  <i_f3d_flags>  (293) 
0

>  <s_epik_input>  (293) 
bjFbY0hdbihbQ0gzXSljKGMxMiluYyhbUytdKFtPLV0pW0NIM10pW25IXWNcMj1OXFtDSDJdYzNbY0hdW2NIXVtjSF1vMw==

>  <s_epik_cmdline>  (293) 
J2VwaWtfcHl0aG9uJywgJy1waHQnLCAnMi4wJywgJy1waCcsICc3LjAnLCAnLXRuJywgJzgnLCAnLW1hJywgJzIwMCcsICctaW1hZScsICc8aW5maWxlLm1hZT4nLCAnLW9tYWUnLCAnPG91dGZpbGUubWFlPic=

>  <r_lp_tautomer_probability>  (293) 
1

>  <r_epik_Ionization_Penalty>  (293) 
1.09474e-05

>  <r_epik_Ionization_Penalty_Charging>  (293) 
0

>  <r_epik_Ionization_Penalty_Neutral>  (293) 
1.09474e-05

>  <r_epik_State_Penalty>  (293) 
-0

>  <r_epik_Charging_Adjusted_Penalty>  (293) 
0

>  <i_epik_Tot_Q>  (293) 
0

>  <i_epik_Tot_abs_Q>  (293) 
0

>  <s_lp_Force_Field>  (293) 
OPLS3e

>  <r_lp_Energy>  (293) 
21.7907

>  <b_lp_Chiralities_Consistent>  (293) 
1

>  <s_lp_Variant>  (293) 
101:0-1

>  <s_i_glide_gridfile>  (293) 
pfpi4k_grid

>  <i_i_glide_lignum>  (293) 
13

>  <i_i_glide_rotatable_bonds>  (293) 
4

>  <r_i_docking_score>  (293) 
-3.95147

>  <r_i_glide_ligand_efficiency>  (293) 
-0.197573

>  <r_i_glide_ligand_efficiency_sa>  (293) 
-0.536296

>  <r_i_glide_ligand_efficiency_ln>  (293) 
-0.988922

>  <r_i_glide_gscore>  (293) 
-3.95147

>  <r_i_glide_lipo>  (293) 
-0.711396

>  <r_i_glide_hbond>  (293) 
-0.16

>  <r_i_glide_metal>  (293) 
-0

>  <r_i_glide_rewards>  (293) 
-1.47757

>  <r_i_glide_evdw>  (293) 
-29.5473

>  <r_i_glide_ecoul>  (293) 
-4.55947

>  <r_i_glide_erotb>  (293) 
0.644702

>  <r_i_glide_esite>  (293) 
-0.0859176

>  <r_i_glide_emodel>  (293) 
-39.1928

>  <r_i_glide_energy>  (293) 
-34.1068

>  <r_i_glide_einternal>  (293) 
7.72424

>  <r_i_glide_intrahb_reward>  (293) 
-0

>  <i_i_glide_confnum>  (293) 
3

>  <i_i_glide_posenum>  (293) 
25

>  <r_i_glide_eff_state_penalty>  (293) 
0

>  <ligand_id>  (293) 
101

>  <original_smiles>  (293) 
Cn1cnc2c(=NCc3ccco3)[nH]c([S+](C)[O-])nc21

>  <smiles>  (293) 
[H]c1oc(C([H])([H])N([H])c2nc(S(=O)C([H])([H])[H])nc3c2nc([H])n3C([H])([H])[H])c([H])c1[H]

$$$$
101:0:1
     RDKit          3D

 33 35  0  0  1  0  0  0  0  0999 V2000
    3.4928   -0.5058   -4.2138 C   0  0  0  0  0  0  0  0  0  0  0  0
    3.2143   -1.6170   -3.3322 N   0  0  0  0  0  0  0  0  0  0  0  0
    2.2506   -2.5964   -3.4906 C   0  0  0  0  0  0  0  0  0  0  0  0
    2.1682   -3.4490   -2.5198 N   0  0  0  0  0  0  0  0  0  0  0  0
    3.1648   -3.0765   -1.6462 C   0  0  0  0  0  0  0  0  0  0  0  0
    3.6164   -3.6128   -0.4144 C   0  0  0  0  0  0  0  0  0  0  0  0
    3.0564   -4.7243    0.1078 N   0  0  0  0  0  0  0  0  0  0  0  0
    3.1310   -5.0120    1.5410 C   0  0  0  0  0  0  0  0  0  0  0  0
    1.9792   -5.8592    2.0186 C   0  0  0  0  0  0  0  0  0  0  0  0
    1.4613   -6.1127    3.2587 C   0  0  0  0  0  0  0  0  0  0  0  0
    0.3752   -7.0178    3.0736 C   0  0  0  0  0  0  0  0  0  0  0  0
    0.3136   -7.2497    1.7350 C   0  0  0  0  0  0  0  0  0  0  0  0
    1.2697   -6.5428    1.0695 O   0  0  0  0  0  0  0  0  0  0  0  0
    4.6440   -2.9847    0.2008 N   0  0  0  0  0  0  0  0  0  0  0  0
    5.1984   -1.8968   -0.3547 C   0  0  0  0  0  0  0  0  0  0  0  0
    6.5658   -1.1083    0.5322 S   0  0  0  0  0  0  0  0  0  0  0  0
    5.8394   -1.2292    2.2332 C   0  0  0  0  0  0  0  0  0  0  0  0
    7.7583   -2.0610    0.4290 O   0  0  0  0  0  0  0  0  0  0  0  0
    4.8760   -1.3052   -1.5124 N   0  0  0  0  0  0  0  0  0  0  0  0
    3.8367   -1.9296   -2.1327 C   0  0  0  0  0  0  0  0  0  0  0  0
    2.6642   -5.4492   -0.4819 H   0  0  0  0  0  0  0  0  0  0  0  0
    2.8254   -0.5571   -5.0663 H   0  0  0  0  0  0  0  0  0  0  0  0
    4.5225   -0.5559   -4.5631 H   0  0  0  0  0  0  0  0  0  0  0  0
    3.3219    0.4403   -3.6986 H   0  0  0  0  0  0  0  0  0  0  0  0
    1.5564   -2.6607   -4.3131 H   0  0  0  0  0  0  0  0  0  0  0  0
    4.0732   -5.5272    1.7449 H   0  0  0  0  0  0  0  0  0  0  0  0
    3.1496   -4.0875    2.1249 H   0  0  0  0  0  0  0  0  0  0  0  0
    1.8396   -5.7083    4.1870 H   0  0  0  0  0  0  0  0  0  0  0  0
   -0.2673   -7.4649    3.8192 H   0  0  0  0  0  0  0  0  0  0  0  0
   -0.3223   -7.8763    1.1283 H   0  0  0  0  0  0  0  0  0  0  0  0
    4.8947   -0.6836    2.2664 H   0  0  0  0  0  0  0  0  0  0  0  0
    6.5252   -0.7855    2.9540 H   0  0  0  0  0  0  0  0  0  0  0  0
    5.6649   -2.2698    2.5113 H   0  0  0  0  0  0  0  0  0  0  0  0
  1 22  1  0
  1 23  1  0
  1 24  1  0
  1  2  1  0
  2 20  1  0
  2  3  1  0
  3 25  1  0
  3  4  2  0
  4  5  1  0
  5 20  2  0
  5  6  1  0
  6 14  2  0
  6  7  1  0
  7  8  1  0
  7 21  1  0
  8  9  1  0
  8 26  1  0
  8 27  1  0
  9 13  1  0
  9 10  2  0
 10 11  1  0
 10 28  1  0
 11 12  2  0
 11 29  1  0
 12 13  1  0
 12 30  1  0
 14 15  1  0
 15 16  1  0
 15 19  2  0
 16 17  1  1
 16 18  2  0
 17 31  1  0
 17 32  1  0
 17 33  1  0
 19 20  1  0
M  END
>  <i_m_ct_stereo_status>  (294) 
1

>  <s_m_source_file>  (294) 
/var/tmp/pbs.5076255.sched01/tmpebi1rvwe/120qlbjc4nh.sdf

>  <i_m_source_file_index>  (294) 
13

>  <i_lp_mmshare_version>  (294) 
48012

>  <i_f3d_flags>  (294) 
0

>  <s_epik_input>  (294) 
bjFbY0hdbihbQ0gzXSljKGMxMiluYyhbUytdKFtPLV0pW0NIM10pW25IXWNcMj1OXFtDSDJdYzNbY0hdW2NIXVtjSF1vMw==

>  <s_epik_cmdline>  (294) 
J2VwaWtfcHl0aG9uJywgJy1waHQnLCAnMi4wJywgJy1waCcsICc3LjAnLCAnLXRuJywgJzgnLCAnLW1hJywgJzIwMCcsICctaW1hZScsICc8aW5maWxlLm1hZT4nLCAnLW9tYWUnLCAnPG91dGZpbGUubWFlPic=

>  <r_lp_tautomer_probability>  (294) 
1

>  <r_epik_Ionization_Penalty>  (294) 
1.09474e-05

>  <r_epik_Ionization_Penalty_Charging>  (294) 
0

>  <r_epik_Ionization_Penalty_Neutral>  (294) 
1.09474e-05

>  <r_epik_State_Penalty>  (294) 
-0

>  <r_epik_Charging_Adjusted_Penalty>  (294) 
0

>  <i_epik_Tot_Q>  (294) 
0

>  <i_epik_Tot_abs_Q>  (294) 
0

>  <s_lp_Force_Field>  (294) 
OPLS3e

>  <r_lp_Energy>  (294) 
21.7907

>  <b_lp_Chiralities_Consistent>  (294) 
1

>  <s_lp_Variant>  (294) 
101:0-1

>  <s_i_glide_gridfile>  (294) 
pfpi4k_grid

>  <i_i_glide_lignum>  (294) 
13

>  <i_i_glide_rotatable_bonds>  (294) 
4

>  <r_i_docking_score>  (294) 
-3.91666

>  <r_i_glide_ligand_efficiency>  (294) 
-0.195833

>  <r_i_glide_ligand_efficiency_sa>  (294) 
-0.531573

>  <r_i_glide_ligand_efficiency_ln>  (294) 
-0.980212

>  <r_i_glide_gscore>  (294) 
-3.91666

>  <r_i_glide_lipo>  (294) 
-0.430543

>  <r_i_glide_hbond>  (294) 
-0.15313

>  <r_i_glide_metal>  (294) 
-0

>  <r_i_glide_rewards>  (294) 
-1.90862

>  <r_i_glide_evdw>  (294) 
-30.3255

>  <r_i_glide_ecoul>  (294) 
-3.15754

>  <r_i_glide_erotb>  (294) 
0.644702

>  <r_i_glide_esite>  (294) 
-0.0791698

>  <r_i_glide_emodel>  (294) 
-40.745

>  <r_i_glide_energy>  (294) 
-33.483

>  <r_i_glide_einternal>  (294) 
3.37729

>  <r_i_glide_intrahb_reward>  (294) 
-0

>  <i_i_glide_confnum>  (294) 
1

>  <i_i_glide_posenum>  (294) 
38

>  <r_i_glide_eff_state_penalty>  (294) 
0

>  <ligand_id>  (294) 
101

>  <original_smiles>  (294) 
Cn1cnc2c(=NCc3ccco3)[nH]c([S+](C)[O-])nc21

>  <smiles>  (294) 
[H]c1oc(C([H])([H])N([H])c2nc(S(=O)C([H])([H])[H])nc3c2nc([H])n3C([H])([H])[H])c([H])c1[H]

$$$$
101:0:2
     RDKit          3D

 33 35  0  0  1  0  0  0  0  0999 V2000
    3.9999   -0.6836   -3.8934 C   0  0  0  0  0  0  0  0  0  0  0  0
    3.4782   -1.7816   -3.1008 N   0  0  0  0  0  0  0  0  0  0  0  0
    2.3712   -2.5525   -3.3751 C   0  0  0  0  0  0  0  0  0  0  0  0
    2.0762   -3.4509   -2.4809 N   0  0  0  0  0  0  0  0  0  0  0  0
    3.0714   -3.3207   -1.5386 C   0  0  0  0  0  0  0  0  0  0  0  0
    3.3521   -3.9961   -0.3274 C   0  0  0  0  0  0  0  0  0  0  0  0
    2.5487   -4.9935    0.1037 N   0  0  0  0  0  0  0  0  0  0  0  0
    2.7432   -5.6484    1.3903 C   0  0  0  0  0  0  0  0  0  0  0  0
    1.4882   -6.3154    1.8764 C   0  0  0  0  0  0  0  0  0  0  0  0
    0.9711   -6.5338    3.1253 C   0  0  0  0  0  0  0  0  0  0  0  0
   -0.2468   -7.2539    2.9520 C   0  0  0  0  0  0  0  0  0  0  0  0
   -0.3650   -7.4425    1.6109 C   0  0  0  0  0  0  0  0  0  0  0  0
    0.6571   -6.8480    0.9328 O   0  0  0  0  0  0  0  0  0  0  0  0
    4.4551   -3.6128    0.3584 N   0  0  0  0  0  0  0  0  0  0  0  0
    5.2414   -2.6286   -0.1097 C   0  0  0  0  0  0  0  0  0  0  0  0
    6.6722   -2.1992    0.9019 S   0  0  0  0  0  0  0  0  0  0  0  0
    7.5281   -3.8349    0.7686 C   0  0  0  0  0  0  0  0  0  0  0  0
    7.5197   -1.2247    0.0944 O   0  0  0  0  0  0  0  0  0  0  0  0
    5.0826   -1.9085   -1.2243 N   0  0  0  0  0  0  0  0  0  0  0  0
    3.9714   -2.2904   -1.9129 C   0  0  0  0  0  0  0  0  0  0  0  0
    1.9920   -5.5051   -0.5622 H   0  0  0  0  0  0  0  0  0  0  0  0
    3.3804   -0.5463   -4.7754 H   0  0  0  0  0  0  0  0  0  0  0  0
    5.0126   -0.9170   -4.2080 H   0  0  0  0  0  0  0  0  0  0  0  0
    3.9839    0.2430   -3.3146 H   0  0  0  0  0  0  0  0  0  0  0  0
    1.7494   -2.4149   -4.2391 H   0  0  0  0  0  0  0  0  0  0  0  0
    3.5394   -6.3935    1.3044 H   0  0  0  0  0  0  0  0  0  0  0  0
    3.0595   -4.9273    2.1466 H   0  0  0  0  0  0  0  0  0  0  0  0
    1.4330   -6.2321    4.0533 H   0  0  0  0  0  0  0  0  0  0  0  0
   -0.9357   -7.6269    3.6993 H   0  0  0  0  0  0  0  0  0  0  0  0
   -1.0865   -7.9610    1.0016 H   0  0  0  0  0  0  0  0  0  0  0  0
    6.9090   -4.6167    1.2057 H   0  0  0  0  0  0  0  0  0  0  0  0
    8.4780   -3.8079    1.3039 H   0  0  0  0  0  0  0  0  0  0  0  0
    7.7236   -4.0720   -0.2773 H   0  0  0  0  0  0  0  0  0  0  0  0
  1 22  1  0
  1 23  1  0
  1 24  1  0
  1  2  1  0
  2 20  1  0
  2  3  1  0
  3 25  1  0
  3  4  2  0
  4  5  1  0
  5 20  2  0
  5  6  1  0
  6 14  2  0
  6  7  1  0
  7  8  1  0
  7 21  1  0
  8  9  1  0
  8 26  1  0
  8 27  1  0
  9 13  1  0
  9 10  2  0
 10 11  1  0
 10 28  1  0
 11 12  2  0
 11 29  1  0
 12 13  1  0
 12 30  1  0
 14 15  1  0
 15 16  1  0
 15 19  2  0
 16 17  1  6
 16 18  2  0
 17 31  1  0
 17 32  1  0
 17 33  1  0
 19 20  1  0
M  END
>  <i_m_ct_stereo_status>  (295) 
1

>  <s_m_source_file>  (295) 
/var/tmp/pbs.5076255.sched01/tmpebi1rvwe/120qlbjc4nh.sdf

>  <i_m_source_file_index>  (295) 
13

>  <i_lp_mmshare_version>  (295) 
48012

>  <i_f3d_flags>  (295) 
0

>  <s_epik_input>  (295) 
bjFbY0hdbihbQ0gzXSljKGMxMiluYyhbUytdKFtPLV0pW0NIM10pW25IXWNcMj1OXFtDSDJdYzNbY0hdW2NIXVtjSF1vMw==

>  <s_epik_cmdline>  (295) 
J2VwaWtfcHl0aG9uJywgJy1waHQnLCAnMi4wJywgJy1waCcsICc3LjAnLCAnLXRuJywgJzgnLCAnLW1hJywgJzIwMCcsICctaW1hZScsICc8aW5maWxlLm1hZT4nLCAnLW9tYWUnLCAnPG91dGZpbGUubWFlPic=

>  <r_lp_tautomer_probability>  (295) 
1

>  <r_epik_Ionization_Penalty>  (295) 
1.09474e-05

>  <r_epik_Ionization_Penalty_Charging>  (295) 
0

>  <r_epik_Ionization_Penalty_Neutral>  (295) 
1.09474e-05

>  <r_epik_State_Penalty>  (295) 
-0

>  <r_epik_Charging_Adjusted_Penalty>  (295) 
0

>  <i_epik_Tot_Q>  (295) 
0

>  <i_epik_Tot_abs_Q>  (295) 
0

>  <s_lp_Force_Field>  (295) 
OPLS3e

>  <r_lp_Energy>  (295) 
21.7907

>  <b_lp_Chiralities_Consistent>  (295) 
1

>  <s_lp_Variant>  (295) 
101:0-1

>  <s_i_glide_gridfile>  (295) 
pfpi4k_grid

>  <i_i_glide_lignum>  (295) 
13

>  <i_i_glide_rotatable_bonds>  (295) 
4

>  <r_i_docking_score>  (295) 
-3.65729

>  <r_i_glide_ligand_efficiency>  (295) 
-0.182864

>  <r_i_glide_ligand_efficiency_sa>  (295) 
-0.49637

>  <r_i_glide_ligand_efficiency_ln>  (295) 
-0.915298

>  <r_i_glide_gscore>  (295) 
-3.65729

>  <r_i_glide_lipo>  (295) 
-0.469778

>  <r_i_glide_hbond>  (295) 
-0.157172

>  <r_i_glide_metal>  (295) 
-0

>  <r_i_glide_rewards>  (295) 
-1.83878

>  <r_i_glide_evdw>  (295) 
-26.978

>  <r_i_glide_ecoul>  (295) 
-2.76445

>  <r_i_glide_erotb>  (295) 
0.644702

>  <r_i_glide_esite>  (295) 
-0.0726897

>  <r_i_glide_emodel>  (295) 
-37.408

>  <r_i_glide_energy>  (295) 
-29.7424

>  <r_i_glide_einternal>  (295) 
1.49744

>  <r_i_glide_intrahb_reward>  (295) 
-0

>  <i_i_glide_confnum>  (295) 
1

>  <i_i_glide_posenum>  (295) 
8

>  <r_i_glide_eff_state_penalty>  (295) 
0

>  <ligand_id>  (295) 
101

>  <original_smiles>  (295) 
Cn1cnc2c(=NCc3ccco3)[nH]c([S+](C)[O-])nc21

>  <smiles>  (295) 
[H]c1oc(C([H])([H])N([H])c2nc(S(=O)C([H])([H])[H])nc3c2nc([H])n3C([H])([H])[H])c([H])c1[H]

$$$$
102:0:0
     RDKit          3D

 42 44  0  0  1  0  0  0  0  0999 V2000
    3.6381   -7.4304    1.4908 C   0  0  0  0  0  0  0  0  0  0  0  0
    4.1681   -6.1890    0.9649 N   0  0  0  0  0  0  0  0  0  0  0  0
    5.4801   -5.9387    0.8563 C   0  0  0  0  0  0  0  0  0  0  0  0
    6.3952   -6.6787    1.1534 O   0  0  0  0  0  0  0  0  0  0  0  0
    5.7057   -4.5338    0.3324 C   0  0  0  0  0  0  0  0  0  0  0  0
    4.2851   -3.9620    0.1344 C   0  0  1  0  0  0  0  0  0  0  0  0
    4.0439   -2.7160    1.0155 C   0  0  0  0  0  0  0  0  0  0  0  0
    4.8687   -1.4838    0.5543 C   0  0  0  0  0  0  0  0  0  0  0  0
    4.4679   -0.3213    1.4802 C   0  0  0  0  0  0  0  0  0  0  0  0
    6.4071   -1.6273    0.7424 C   0  0  0  0  0  0  0  0  0  0  0  0
    4.5414   -1.1874   -0.8153 O   0  0  0  0  0  0  0  0  0  0  0  0
    4.7891   -2.2732   -1.7463 C   0  0  2  0  0  0  0  0  0  0  0  0
    4.5180   -1.8987   -3.2266 C   0  0  0  0  0  0  0  0  0  0  0  0
    3.0213   -1.8025   -3.5797 C   0  0  0  0  0  0  0  0  0  0  0  0
    2.2926   -3.0952   -3.2033 C   0  0  0  0  0  0  0  0  0  0  0  0
    2.5042   -3.4298   -1.7225 C   0  0  0  0  0  0  0  0  0  0  0  0
    4.0111   -3.5788   -1.3582 C   0  0  2  0  0  0  0  0  0  0  0  0
    3.4145   -5.1322    0.6243 C   0  0  0  0  0  0  0  0  0  0  0  0
    2.1828   -5.0781    0.7083 O   0  0  0  0  0  0  0  0  0  0  0  0
    4.3586   -7.9340    2.1465 H   0  0  0  0  0  0  0  0  0  0  0  0
    3.4149   -8.0815    0.6461 H   0  0  0  0  0  0  0  0  0  0  0  0
    2.7223   -7.2544    2.0623 H   0  0  0  0  0  0  0  0  0  0  0  0
    6.2616   -4.0175    1.1166 H   0  0  0  0  0  0  0  0  0  0  0  0
    6.3051   -4.5501   -0.5780 H   0  0  0  0  0  0  0  0  0  0  0  0
    2.9856   -2.4443    0.9704 H   0  0  0  0  0  0  0  0  0  0  0  0
    4.2217   -2.9356    2.0577 H   0  0  0  0  0  0  0  0  0  0  0  0
    4.6452   -0.5714    2.5216 H   0  0  0  0  0  0  0  0  0  0  0  0
    3.4205    0.0029    1.3927 H   0  0  0  0  0  0  0  0  0  0  0  0
    5.1068    0.5153    1.2682 H   0  0  0  0  0  0  0  0  0  0  0  0
    6.6266   -1.9089    1.7627 H   0  0  0  0  0  0  0  0  0  0  0  0
    6.9171   -0.6660    0.5775 H   0  0  0  0  0  0  0  0  0  0  0  0
    6.8600   -2.4048    0.1202 H   0  0  0  0  0  0  0  0  0  0  0  0
    5.8611   -2.5020   -1.7404 H   0  0  0  0  0  0  0  0  0  0  0  0
    5.0097   -0.9576   -3.4820 H   0  0  0  0  0  0  0  0  0  0  0  0
    4.9601   -2.6687   -3.8562 H   0  0  0  0  0  0  0  0  0  0  0  0
    2.5901   -0.9562   -3.0442 H   0  0  0  0  0  0  0  0  0  0  0  0
    2.9013   -1.6151   -4.6541 H   0  0  0  0  0  0  0  0  0  0  0  0
    1.2277   -2.9961   -3.3994 H   0  0  0  0  0  0  0  0  0  0  0  0
    2.6414   -3.9252   -3.8238 H   0  0  0  0  0  0  0  0  0  0  0  0
    2.0508   -2.6498   -1.1143 H   0  0  0  0  0  0  0  0  0  0  0  0
    1.9479   -4.3499   -1.5126 H   0  0  0  0  0  0  0  0  0  0  0  0
    4.4009   -4.3650   -1.9952 H   0  0  0  0  0  0  0  0  0  0  0  0
  1  2  1  0
  1 20  1  0
  1 21  1  0
  1 22  1  0
  2 18  1  0
  2  3  1  0
  3  4  2  0
  3  5  1  0
  6  5  1  6
  5 23  1  0
  5 24  1  0
  6 17  1  0
  6  7  1  0
  6 18  1  0
  7  8  1  0
  7 25  1  0
  7 26  1  0
  8  9  1  0
  8 10  1  0
  8 11  1  0
  9 27  1  0
  9 28  1  0
  9 29  1  0
 10 30  1  0
 10 31  1  0
 10 32  1  0
 11 12  1  0
 12 17  1  0
 12 13  1  0
 12 33  1  6
 13 14  1  0
 13 34  1  0
 13 35  1  0
 14 15  1  0
 14 36  1  0
 14 37  1  0
 15 16  1  0
 15 38  1  0
 15 39  1  0
 16 17  1  0
 16 40  1  0
 16 41  1  0
 17 42  1  6
 18 19  2  0
M  END
>  <i_m_ct_stereo_status>  (296) 
1

>  <s_m_source_file>  (296) 
/var/tmp/pbs.5076255.sched01/tmpebi1rvwe/120qlbjc4nh.sdf

>  <i_m_source_file_index>  (296) 
14

>  <i_lp_mmshare_version>  (296) 
48012

>  <i_f3d_flags>  (296) 
0

>  <s_epik_input>  (296) 
Tz1DMU4oW0NIM10pQyg9TylbQ0gyXVtDQEBdMTJbQ0BASF0zW0NASF0oT0MoW0NIMl0yKShbQ0gzXSlbQ0gzXSlbQ0gyXVtDSDJdW0NIMl1bQ0gyXTM=

>  <s_epik_cmdline>  (296) 
J2VwaWtfcHl0aG9uJywgJy1waHQnLCAnMi4wJywgJy1waCcsICc3LjAnLCAnLXRuJywgJzgnLCAnLW1hJywgJzIwMCcsICctaW1hZScsICc8aW5maWxlLm1hZT4nLCAnLW9tYWUnLCAnPG91dGZpbGUubWFlPic=

>  <r_lp_tautomer_probability>  (296) 
1

>  <r_epik_Ionization_Penalty>  (296) 
1.12804e-10

>  <r_epik_Ionization_Penalty_Charging>  (296) 
0

>  <r_epik_Ionization_Penalty_Neutral>  (296) 
1.12804e-10

>  <r_epik_State_Penalty>  (296) 
-0

>  <r_epik_Charging_Adjusted_Penalty>  (296) 
0

>  <i_epik_Tot_Q>  (296) 
0

>  <i_epik_Tot_abs_Q>  (296) 
0

>  <s_lp_Force_Field>  (296) 
OPLS3e

>  <r_lp_Energy>  (296) 
18.3146

>  <b_lp_Chiralities_Consistent>  (296) 
1

>  <s_lp_Variant>  (296) 
102:0-1

>  <s_i_glide_gridfile>  (296) 
pfpi4k_grid

>  <i_i_glide_lignum>  (296) 
14

>  <i_i_glide_rotatable_bonds>  (296) 
0

>  <r_i_docking_score>  (296) 
-4.16224

>  <r_i_glide_ligand_efficiency>  (296) 
-0.219065

>  <r_i_glide_ligand_efficiency_sa>  (296) 
-0.584553

>  <r_i_glide_ligand_efficiency_ln>  (296) 
-1.05522

>  <r_i_glide_gscore>  (296) 
-4.16224

>  <r_i_glide_lipo>  (296) 
-1.0123

>  <r_i_glide_hbond>  (296) 
-0.0261331

>  <r_i_glide_metal>  (296) 
-0

>  <r_i_glide_rewards>  (296) 
-1.85037

>  <r_i_glide_evdw>  (296) 
-21.0557

>  <r_i_glide_ecoul>  (296) 
-1.40742

>  <r_i_glide_erotb>  (296) 
0

>  <r_i_glide_esite>  (296) 
-0.00953506

>  <r_i_glide_emodel>  (296) 
-26.2397

>  <r_i_glide_energy>  (296) 
-22.4632

>  <r_i_glide_einternal>  (296) 
0

>  <r_i_glide_intrahb_reward>  (296) 
-0

>  <i_i_glide_confnum>  (296) 
2

>  <i_i_glide_posenum>  (296) 
18

>  <r_i_glide_eff_state_penalty>  (296) 
0

>  <ligand_id>  (296) 
102

>  <original_smiles>  (296) 
CN1C(=O)CC2(CC(C)(C)OC3CCCCC32)C1=O

>  <smiles>  (296) 
[H]C([H])([H])N1C(=O)C([H])([H])C2(C1=O)C([H])([H])C(C([H])([H])[H])(C([H])([H])[H])OC1([H])C([H])([H])C([H])([H])C([H])([H])C([H])([H])C12[H]

$$$$
102:0:1
     RDKit          3D

 42 44  0  0  1  0  0  0  0  0999 V2000
    3.3493   -7.0035    2.5824 C   0  0  0  0  0  0  0  0  0  0  0  0
    4.0966   -6.0927    1.7254 N   0  0  0  0  0  0  0  0  0  0  0  0
    5.3541   -6.2937    1.3591 C   0  0  0  0  0  0  0  0  0  0  0  0
    6.0738   -7.2649    1.6456 O   0  0  0  0  0  0  0  0  0  0  0  0
    5.8642   -5.1415    0.5475 C   0  0  0  0  0  0  0  0  0  0  0  0
    4.6620   -4.1676    0.4442 C   0  0  1  0  0  0  0  0  0  0  0  0
    4.9860   -2.7933    1.0542 C   0  0  0  0  0  0  0  0  0  0  0  0
    6.0142   -1.9836    0.2048 C   0  0  0  0  0  0  0  0  0  0  0  0
    6.1648   -0.6226    0.8998 C   0  0  0  0  0  0  0  0  0  0  0  0
    7.4474   -2.5856    0.1714 C   0  0  0  0  0  0  0  0  0  0  0  0
    5.5016   -1.8249   -1.1259 O   0  0  0  0  0  0  0  0  0  0  0  0
    5.2154   -3.0553   -1.8171 C   0  0  2  0  0  0  0  0  0  0  0  0
    4.7392   -2.8567   -3.2804 C   0  0  0  0  0  0  0  0  0  0  0  0
    3.2968   -2.3374   -3.4200 C   0  0  0  0  0  0  0  0  0  0  0  0
    2.3256   -3.2454   -2.6681 C   0  0  0  0  0  0  0  0  0  0  0  0
    2.7462   -3.4029   -1.2025 C   0  0  0  0  0  0  0  0  0  0  0  0
    4.1993   -3.9458   -1.0269 C   0  0  2  0  0  0  0  0  0  0  0  0
    3.6168   -4.9187    1.2999 C   0  0  0  0  0  0  0  0  0  0  0  0
    2.4947   -4.4627    1.5442 O   0  0  0  0  0  0  0  0  0  0  0  0
    4.0221   -7.6016    3.2072 H   0  0  0  0  0  0  0  0  0  0  0  0
    2.7706   -7.6597    1.9335 H   0  0  0  0  0  0  0  0  0  0  0  0
    2.6763   -6.4493    3.2383 H   0  0  0  0  0  0  0  0  0  0  0  0
    6.7149   -4.7029    1.0746 H   0  0  0  0  0  0  0  0  0  0  0  0
    6.2040   -5.4980   -0.4254 H   0  0  0  0  0  0  0  0  0  0  0  0
    4.0612   -2.2149    1.1130 H   0  0  0  0  0  0  0  0  0  0  0  0
    5.3152   -2.8924    2.0846 H   0  0  0  0  0  0  0  0  0  0  0  0
    6.4799   -0.7605    1.9340 H   0  0  0  0  0  0  0  0  0  0  0  0
    5.2586   -0.0144    0.9173 H   0  0  0  0  0  0  0  0  0  0  0  0
    6.9514   -0.0449    0.4159 H   0  0  0  0  0  0  0  0  0  0  0  0
    7.7820   -2.7734    1.1903 H   0  0  0  0  0  0  0  0  0  0  0  0
    8.1654   -1.8865   -0.2579 H   0  0  0  0  0  0  0  0  0  0  0  0
    7.5092   -3.5691   -0.3109 H   0  0  0  0  0  0  0  0  0  0  0  0
    6.1474   -3.6135   -1.9399 H   0  0  0  0  0  0  0  0  0  0  0  0
    5.4072   -2.1809   -3.8140 H   0  0  0  0  0  0  0  0  0  0  0  0
    4.8069   -3.8176   -3.7966 H   0  0  0  0  0  0  0  0  0  0  0  0
    3.2329   -1.3219   -3.0239 H   0  0  0  0  0  0  0  0  0  0  0  0
    3.0104   -2.3011   -4.4773 H   0  0  0  0  0  0  0  0  0  0  0  0
    1.3231   -2.8291   -2.7074 H   0  0  0  0  0  0  0  0  0  0  0  0
    2.2522   -4.2179   -3.1592 H   0  0  0  0  0  0  0  0  0  0  0  0
    2.6417   -2.4334   -0.7068 H   0  0  0  0  0  0  0  0  0  0  0  0
    2.0223   -4.0887   -0.7557 H   0  0  0  0  0  0  0  0  0  0  0  0
    4.2187   -4.9240   -1.4849 H   0  0  0  0  0  0  0  0  0  0  0  0
  1  2  1  0
  1 20  1  0
  1 21  1  0
  1 22  1  0
  2 18  1  0
  2  3  1  0
  3  4  2  0
  3  5  1  0
  6  5  1  6
  5 23  1  0
  5 24  1  0
  6 17  1  0
  6  7  1  0
  6 18  1  0
  7  8  1  0
  7 25  1  0
  7 26  1  0
  8  9  1  0
  8 10  1  0
  8 11  1  0
  9 27  1  0
  9 28  1  0
  9 29  1  0
 10 30  1  0
 10 31  1  0
 10 32  1  0
 11 12  1  0
 12 17  1  0
 12 13  1  0
 12 33  1  6
 13 14  1  0
 13 34  1  0
 13 35  1  0
 14 15  1  0
 14 36  1  0
 14 37  1  0
 15 16  1  0
 15 38  1  0
 15 39  1  0
 16 17  1  0
 16 40  1  0
 16 41  1  0
 17 42  1  6
 18 19  2  0
M  END
>  <i_m_ct_stereo_status>  (297) 
1

>  <s_m_source_file>  (297) 
/var/tmp/pbs.5076255.sched01/tmpebi1rvwe/120qlbjc4nh.sdf

>  <i_m_source_file_index>  (297) 
14

>  <i_lp_mmshare_version>  (297) 
48012

>  <i_f3d_flags>  (297) 
0

>  <s_epik_input>  (297) 
Tz1DMU4oW0NIM10pQyg9TylbQ0gyXVtDQEBdMTJbQ0BASF0zW0NASF0oT0MoW0NIMl0yKShbQ0gzXSlbQ0gzXSlbQ0gyXVtDSDJdW0NIMl1bQ0gyXTM=

>  <s_epik_cmdline>  (297) 
J2VwaWtfcHl0aG9uJywgJy1waHQnLCAnMi4wJywgJy1waCcsICc3LjAnLCAnLXRuJywgJzgnLCAnLW1hJywgJzIwMCcsICctaW1hZScsICc8aW5maWxlLm1hZT4nLCAnLW9tYWUnLCAnPG91dGZpbGUubWFlPic=

>  <r_lp_tautomer_probability>  (297) 
1

>  <r_epik_Ionization_Penalty>  (297) 
1.12804e-10

>  <r_epik_Ionization_Penalty_Charging>  (297) 
0

>  <r_epik_Ionization_Penalty_Neutral>  (297) 
1.12804e-10

>  <r_epik_State_Penalty>  (297) 
-0

>  <r_epik_Charging_Adjusted_Penalty>  (297) 
0

>  <i_epik_Tot_Q>  (297) 
0

>  <i_epik_Tot_abs_Q>  (297) 
0

>  <s_lp_Force_Field>  (297) 
OPLS3e

>  <r_lp_Energy>  (297) 
18.3146

>  <b_lp_Chiralities_Consistent>  (297) 
1

>  <s_lp_Variant>  (297) 
102:0-1

>  <s_i_glide_gridfile>  (297) 
pfpi4k_grid

>  <i_i_glide_lignum>  (297) 
14

>  <i_i_glide_rotatable_bonds>  (297) 
0

>  <r_i_docking_score>  (297) 
-3.81329

>  <r_i_glide_ligand_efficiency>  (297) 
-0.200699

>  <r_i_glide_ligand_efficiency_sa>  (297) 
-0.535546

>  <r_i_glide_ligand_efficiency_ln>  (297) 
-0.96675

>  <r_i_glide_gscore>  (297) 
-3.81329

>  <r_i_glide_lipo>  (297) 
-1.03154

>  <r_i_glide_hbond>  (297) 
0

>  <r_i_glide_metal>  (297) 
-0

>  <r_i_glide_rewards>  (297) 
-1.77851

>  <r_i_glide_evdw>  (297) 
-17.1382

>  <r_i_glide_ecoul>  (297) 
-0.975492

>  <r_i_glide_erotb>  (297) 
0

>  <r_i_glide_esite>  (297) 
0

>  <r_i_glide_emodel>  (297) 
-21.7548

>  <r_i_glide_energy>  (297) 
-18.1137

>  <r_i_glide_einternal>  (297) 
0

>  <r_i_glide_intrahb_reward>  (297) 
-0

>  <i_i_glide_confnum>  (297) 
2

>  <i_i_glide_posenum>  (297) 
12

>  <r_i_glide_eff_state_penalty>  (297) 
0

>  <ligand_id>  (297) 
102

>  <original_smiles>  (297) 
CN1C(=O)CC2(CC(C)(C)OC3CCCCC32)C1=O

>  <smiles>  (297) 
[H]C([H])([H])N1C(=O)C([H])([H])C2(C1=O)C([H])([H])C(C([H])([H])[H])(C([H])([H])[H])OC1([H])C([H])([H])C([H])([H])C([H])([H])C([H])([H])C12[H]

$$$$
102:0:2
     RDKit          3D

 42 44  0  0  1  0  0  0  0  0999 V2000
    1.8514    5.0269    3.1822 C   0  0  0  0  0  0  0  0  0  0  0  0
    0.8484    4.2061    3.8603 N   0  0  0  0  0  0  0  0  0  0  0  0
   -0.4614    4.4269    3.7793 C   0  0  0  0  0  0  0  0  0  0  0  0
   -1.0526    5.3397    3.1596 O   0  0  0  0  0  0  0  0  0  0  0  0
   -1.2200    3.4788    4.6346 C   0  0  0  0  0  0  0  0  0  0  0  0
   -0.1426    2.5392    5.2377 C   0  0  1  0  0  0  0  0  0  0  0  0
   -0.1292    2.6070    6.7801 C   0  0  0  0  0  0  0  0  0  0  0  0
   -1.3924    1.9487    7.4337 C   0  0  0  0  0  0  0  0  0  0  0  0
   -1.1833    2.0138    8.9639 C   0  0  0  0  0  0  0  0  0  0  0  0
   -2.7292    2.7127    7.1888 C   0  0  0  0  0  0  0  0  0  0  0  0
   -1.4801    0.5960    6.9663 O   0  0  0  0  0  0  0  0  0  0  0  0
   -1.5682    0.4284    5.5424 C   0  0  2  0  0  0  0  0  0  0  0  0
   -1.7783   -1.0439    5.1122 C   0  0  0  0  0  0  0  0  0  0  0  0
   -0.5097   -1.9129    5.2116 C   0  0  0  0  0  0  0  0  0  0  0  0
    0.6509   -1.2745    4.4497 C   0  0  0  0  0  0  0  0  0  0  0  0
    0.9009    0.1473    4.9356 C   0  0  0  0  0  0  0  0  0  0  0  0
   -0.3490    1.0601    4.7862 C   0  0  2  0  0  0  0  0  0  0  0  0
    1.1406    3.1996    4.6611 C   0  0  0  0  0  0  0  0  0  0  0  0
    2.2897    2.8049    4.9609 O   0  0  0  0  0  0  0  0  0  0  0  0
    1.4835    6.0405    3.0013 H   0  0  0  0  0  0  0  0  0  0  0  0
    2.0691    4.5456    2.2303 H   0  0  0  0  0  0  0  0  0  0  0  0
    2.7651    5.0842    3.7746 H   0  0  0  0  0  0  0  0  0  0  0  0
   -1.7065    4.1071    5.3854 H   0  0  0  0  0  0  0  0  0  0  0  0
   -1.9982    2.9696    4.0482 H   0  0  0  0  0  0  0  0  0  0  0  0
    0.7537    2.0705    7.1332 H   0  0  0  0  0  0  0  0  0  0  0  0
    0.0145    3.6205    7.1389 H   0  0  0  0  0  0  0  0  0  0  0  0
   -1.0178    3.0410    9.2667 H   0  0  0  0  0  0  0  0  0  0  0  0
   -0.3289    1.4377    9.3312 H   0  0  0  0  0  0  0  0  0  0  0  0
   -2.0764    1.7137    9.5165 H   0  0  0  0  0  0  0  0  0  0  0  0
   -2.5941    3.7607    7.4553 H   0  0  0  0  0  0  0  0  0  0  0  0
   -3.5330    2.3328    7.8185 H   0  0  0  0  0  0  0  0  0  0  0  0
   -3.0521    2.7279    6.1425 H   0  0  0  0  0  0  0  0  0  0  0  0
   -2.4784    0.9159    5.1849 H   0  0  0  0  0  0  0  0  0  0  0  0
   -2.5985   -1.5097    5.6673 H   0  0  0  0  0  0  0  0  0  0  0  0
   -2.0938   -1.0387    4.0737 H   0  0  0  0  0  0  0  0  0  0  0  0
   -0.2373   -2.0348    6.2597 H   0  0  0  0  0  0  0  0  0  0  0  0
   -0.6927   -2.9089    4.7964 H   0  0  0  0  0  0  0  0  0  0  0  0
    1.5604   -1.8577    4.5864 H   0  0  0  0  0  0  0  0  0  0  0  0
    0.4511   -1.2542    3.3752 H   0  0  0  0  0  0  0  0  0  0  0  0
    1.2392    0.1265    5.9744 H   0  0  0  0  0  0  0  0  0  0  0  0
    1.7247    0.5135    4.3178 H   0  0  0  0  0  0  0  0  0  0  0  0
   -0.6047    1.0480    3.7295 H   0  0  0  0  0  0  0  0  0  0  0  0
  1  2  1  0
  1 20  1  0
  1 21  1  0
  1 22  1  0
  2 18  1  0
  2  3  1  0
  3  4  2  0
  3  5  1  0
  6  5  1  6
  5 23  1  0
  5 24  1  0
  6 17  1  0
  6  7  1  0
  6 18  1  0
  7  8  1  0
  7 25  1  0
  7 26  1  0
  8  9  1  0
  8 10  1  0
  8 11  1  0
  9 27  1  0
  9 28  1  0
  9 29  1  0
 10 30  1  0
 10 31  1  0
 10 32  1  0
 11 12  1  0
 12 17  1  0
 12 13  1  0
 12 33  1  6
 13 14  1  0
 13 34  1  0
 13 35  1  0
 14 15  1  0
 14 36  1  0
 14 37  1  0
 15 16  1  0
 15 38  1  0
 15 39  1  0
 16 17  1  0
 16 40  1  0
 16 41  1  0
 17 42  1  6
 18 19  2  0
M  END
>  <i_m_ct_stereo_status>  (298) 
1

>  <s_m_source_file>  (298) 
/var/tmp/pbs.5076255.sched01/tmpebi1rvwe/120qlbjc4nh.sdf

>  <i_m_source_file_index>  (298) 
14

>  <i_lp_mmshare_version>  (298) 
48012

>  <i_f3d_flags>  (298) 
0

>  <s_epik_input>  (298) 
Tz1DMU4oW0NIM10pQyg9TylbQ0gyXVtDQEBdMTJbQ0BASF0zW0NASF0oT0MoW0NIMl0yKShbQ0gzXSlbQ0gzXSlbQ0gyXVtDSDJdW0NIMl1bQ0gyXTM=

>  <s_epik_cmdline>  (298) 
J2VwaWtfcHl0aG9uJywgJy1waHQnLCAnMi4wJywgJy1waCcsICc3LjAnLCAnLXRuJywgJzgnLCAnLW1hJywgJzIwMCcsICctaW1hZScsICc8aW5maWxlLm1hZT4nLCAnLW9tYWUnLCAnPG91dGZpbGUubWFlPic=

>  <r_lp_tautomer_probability>  (298) 
1

>  <r_epik_Ionization_Penalty>  (298) 
1.12804e-10

>  <r_epik_Ionization_Penalty_Charging>  (298) 
0

>  <r_epik_Ionization_Penalty_Neutral>  (298) 
1.12804e-10

>  <r_epik_State_Penalty>  (298) 
-0

>  <r_epik_Charging_Adjusted_Penalty>  (298) 
0

>  <i_epik_Tot_Q>  (298) 
0

>  <i_epik_Tot_abs_Q>  (298) 
0

>  <s_lp_Force_Field>  (298) 
OPLS3e

>  <r_lp_Energy>  (298) 
18.3146

>  <b_lp_Chiralities_Consistent>  (298) 
1

>  <s_lp_Variant>  (298) 
102:0-1

>  <s_i_glide_gridfile>  (298) 
pfpi4k_grid

>  <i_i_glide_lignum>  (298) 
14

>  <i_i_glide_rotatable_bonds>  (298) 
0

>  <r_i_docking_score>  (298) 
-3.7325

>  <r_i_glide_ligand_efficiency>  (298) 
-0.196447

>  <r_i_glide_ligand_efficiency_sa>  (298) 
-0.5242

>  <r_i_glide_ligand_efficiency_ln>  (298) 
-0.946269

>  <r_i_glide_gscore>  (298) 
-3.7325

>  <r_i_glide_lipo>  (298) 
-0.178757

>  <r_i_glide_hbond>  (298) 
-0.319088

>  <r_i_glide_metal>  (298) 
-0

>  <r_i_glide_rewards>  (298) 
-1.5999

>  <r_i_glide_evdw>  (298) 
-14.807

>  <r_i_glide_ecoul>  (298) 
-4.7166

>  <r_i_glide_erotb>  (298) 
0

>  <r_i_glide_esite>  (298) 
-0.186913

>  <r_i_glide_emodel>  (298) 
-23.074

>  <r_i_glide_energy>  (298) 
-19.5236

>  <r_i_glide_einternal>  (298) 
0

>  <r_i_glide_intrahb_reward>  (298) 
-0

>  <i_i_glide_confnum>  (298) 
2

>  <i_i_glide_posenum>  (298) 
2

>  <r_i_glide_eff_state_penalty>  (298) 
0

>  <ligand_id>  (298) 
102

>  <original_smiles>  (298) 
CN1C(=O)CC2(CC(C)(C)OC3CCCCC32)C1=O

>  <smiles>  (298) 
[H]C([H])([H])N1C(=O)C([H])([H])C2(C1=O)C([H])([H])C(C([H])([H])[H])(C([H])([H])[H])OC1([H])C([H])([H])C([H])([H])C([H])([H])C([H])([H])C12[H]

$$$$
104:0:0
     RDKit          3D

 53 57  0  0  1  0  0  0  0  0999 V2000
   -1.5227   -9.0504    2.2797 C   0  0  0  0  0  0  0  0  0  0  0  0
   -1.7189   -8.0675    3.4484 C   0  0  0  0  0  0  0  0  0  0  0  0
   -0.5610   -7.2460    3.4835 O   0  0  0  0  0  0  0  0  0  0  0  0
   -0.2073   -6.5141    4.5180 C   0  0  0  0  0  0  0  0  0  0  0  0
   -0.9399   -6.2551    5.4600 O   0  0  0  0  0  0  0  0  0  0  0  0
    1.1793   -5.9560    4.4236 C   0  0  0  0  0  0  0  0  0  0  0  0
    2.1009   -6.0818    3.4333 C   0  0  0  0  0  0  0  0  0  0  0  0
    1.9516   -6.8456    2.1071 C   0  0  0  0  0  0  0  0  0  0  0  0
    3.0852   -7.8147    1.9070 C   0  0  0  0  0  0  0  0  0  0  0  0
    4.4397   -7.1229    1.7592 C   0  0  1  0  0  0  0  0  0  0  0  0
    5.4413   -8.3019    1.6223 C   0  0  0  0  0  0  0  0  0  0  0  0
    4.5401   -6.3568    0.3933 C   0  0  0  0  0  0  0  0  0  0  0  0
    4.7309   -4.8393    0.4704 C   0  0  1  0  0  0  0  0  0  0  0  0
    5.7969   -4.5633    1.5177 C   0  0  0  0  0  0  0  0  0  0  0  0
    5.8206   -5.2301    2.6777 C   0  0  0  0  0  0  0  0  0  0  0  0
    4.7189   -6.2099    3.0389 C   0  0  2  0  0  0  0  0  0  0  0  0
    5.2396   -7.0742    4.2231 C   0  0  0  0  0  0  0  0  0  0  0  0
    3.4689   -5.3807    3.5833 C   0  0  1  0  0  0  0  0  0  0  0  0
    3.4061   -3.8193    3.3329 C   0  0  0  0  0  0  0  0  0  0  0  0
    2.9253   -3.3650    1.9493 C   0  0  1  0  0  0  0  0  0  0  0  0
    3.6636   -2.1538    1.3558 C   0  0  0  0  0  0  0  0  0  0  0  0
    3.7602   -2.7865    0.1723 C   0  0  0  0  0  0  0  0  0  0  0  0
    4.8952   -2.8825   -0.7800 C   0  0  0  0  0  0  0  0  0  0  0  0
    5.1719   -4.2873   -0.7862 O   0  0  0  0  0  0  0  0  0  0  0  0
    3.3867   -4.1113    0.6804 C   0  0  1  0  0  0  0  0  0  0  0  0
   -2.3934   -9.7048    2.1798 H   0  0  0  0  0  0  0  0  0  0  0  0
   -0.6515   -9.6900    2.4195 H   0  0  0  0  0  0  0  0  0  0  0  0
   -1.3868   -8.5398    1.3308 H   0  0  0  0  0  0  0  0  0  0  0  0
   -2.5882   -7.4493    3.2805 H   0  0  0  0  0  0  0  0  0  0  0  0
   -1.8433   -8.6036    4.3738 H   0  0  0  0  0  0  0  0  0  0  0  0
    1.4551   -5.3643    5.2899 H   0  0  0  0  0  0  0  0  0  0  0  0
    1.1210   -7.5275    1.9704 H   0  0  0  0  0  0  0  0  0  0  0  0
    1.8555   -6.1364    1.2927 H   0  0  0  0  0  0  0  0  0  0  0  0
    3.0974   -8.4743    2.7741 H   0  0  0  0  0  0  0  0  0  0  0  0
    2.8738   -8.4589    1.0577 H   0  0  0  0  0  0  0  0  0  0  0  0
    6.4747   -7.9526    1.5806 H   0  0  0  0  0  0  0  0  0  0  0  0
    5.2447   -8.8605    0.7052 H   0  0  0  0  0  0  0  0  0  0  0  0
    5.3564   -9.0316    2.4305 H   0  0  0  0  0  0  0  0  0  0  0  0
    5.4119   -6.7053   -0.1510 H   0  0  0  0  0  0  0  0  0  0  0  0
    3.7086   -6.6007   -0.2608 H   0  0  0  0  0  0  0  0  0  0  0  0
    6.5738   -3.8623    1.2594 H   0  0  0  0  0  0  0  0  0  0  0  0
    6.6132   -5.0823    3.3929 H   0  0  0  0  0  0  0  0  0  0  0  0
    4.5161   -7.8324    4.5241 H   0  0  0  0  0  0  0  0  0  0  0  0
    5.4569   -6.4665    5.1029 H   0  0  0  0  0  0  0  0  0  0  0  0
    6.1776   -7.5820    3.9945 H   0  0  0  0  0  0  0  0  0  0  0  0
    3.6191   -5.3672    4.6634 H   0  0  0  0  0  0  0  0  0  0  0  0
    2.7381   -3.3901    4.0821 H   0  0  0  0  0  0  0  0  0  0  0  0
    4.3584   -3.3455    3.5755 H   0  0  0  0  0  0  0  0  0  0  0  0
    1.8403   -3.2601    1.9228 H   0  0  0  0  0  0  0  0  0  0  0  0
    4.1240   -1.2656    1.7659 H   0  0  0  0  0  0  0  0  0  0  0  0
    4.6478   -2.5063   -1.7736 H   0  0  0  0  0  0  0  0  0  0  0  0
    5.7480   -2.3296   -0.3864 H   0  0  0  0  0  0  0  0  0  0  0  0
    2.5492   -4.5324    0.1255 H   0  0  0  0  0  0  0  0  0  0  0  0
  1  2  1  0
  1 26  1  0
  1 27  1  0
  1 28  1  0
  2  3  1  0
  2 29  1  0
  2 30  1  0
  3  4  1  0
  4  5  2  0
  4  6  1  0
  6  7  2  3
  6 31  1  0
  7 18  1  0
  7  8  1  0
  8  9  1  0
  8 32  1  0
  8 33  1  0
  9 10  1  0
  9 34  1  0
  9 35  1  0
 10 16  1  0
 10 11  1  6
 10 12  1  0
 11 36  1  0
 11 37  1  0
 11 38  1  0
 12 13  1  0
 12 39  1  0
 12 40  1  0
 13 24  1  6
 13 25  1  0
 13 14  1  0
 14 15  2  0
 14 41  1  0
 15 16  1  0
 15 42  1  0
 16 17  1  1
 16 18  1  0
 17 43  1  0
 17 44  1  0
 17 45  1  0
 18 19  1  0
 18 46  1  1
 19 20  1  0
 19 47  1  0
 19 48  1  0
 20 25  1  0
 20 21  1  0
 20 49  1  1
 21 22  2  0
 21 50  1  0
 22 23  1  0
 22 25  1  0
 23 24  1  0
 23 51  1  0
 23 52  1  0
 25 53  1  6
M  END
>  <i_m_ct_stereo_status>  (299) 
1

>  <s_m_source_file>  (299) 
/var/tmp/pbs.5076255.sched01/tmpebi1rvwe/120qlbjc4nh.sdf

>  <i_m_source_file_index>  (299) 
17

>  <i_lp_mmshare_version>  (299) 
48012

>  <i_f3d_flags>  (299) 
0

>  <s_epik_input>  (299) 
W0NIM11bQ0gyXU9DKD1PKS9bQ0hdPUMxXFtDSDJdW0NIMl1bQ0BAXShbQ0gzXSkoW0NIMl0yKVtDQEBdKFtDSDNdKShbQ0hdPVtDSF0zKVtDQEhdMVtDSDJdW0NASF0oW0NAQEhdNFtDQF0yMzUpW0NIXT1DNFtDSDJdTzU=

>  <s_epik_cmdline>  (299) 
J2VwaWtfcHl0aG9uJywgJy1waHQnLCAnMi4wJywgJy1waCcsICc3LjAnLCAnLXRuJywgJzgnLCAnLW1hJywgJzIwMCcsICctaW1hZScsICc8aW5maWxlLm1hZT4nLCAnLW9tYWUnLCAnPG91dGZpbGUubWFlPic=

>  <r_lp_tautomer_probability>  (299) 
1

>  <r_epik_Ionization_Penalty>  (299) 
3.59115e-12

>  <r_epik_Ionization_Penalty_Charging>  (299) 
0

>  <r_epik_Ionization_Penalty_Neutral>  (299) 
3.59115e-12

>  <r_epik_State_Penalty>  (299) 
-0

>  <r_epik_Charging_Adjusted_Penalty>  (299) 
0

>  <i_epik_Tot_Q>  (299) 
0

>  <i_epik_Tot_abs_Q>  (299) 
0

>  <s_epik_Chemistry_Notes>  (299) 
This compound has an ester and may undergo hydrolysis at high or low pH.

>  <s_lp_Force_Field>  (299) 
OPLS3e

>  <r_lp_Energy>  (299) 
79.0767

>  <b_lp_Chiralities_Consistent>  (299) 
1

>  <s_lp_Variant>  (299) 
104:0-1

>  <s_i_glide_gridfile>  (299) 
pfpi4k_grid

>  <i_i_glide_lignum>  (299) 
17

>  <i_i_glide_rotatable_bonds>  (299) 
3

>  <r_i_docking_score>  (299) 
-2.72481

>  <r_i_glide_ligand_efficiency>  (299) 
-0.108992

>  <r_i_glide_ligand_efficiency_sa>  (299) 
-0.318696

>  <r_i_glide_ligand_efficiency_ln>  (299) 
-0.645862

>  <r_i_glide_gscore>  (299) 
-2.72481

>  <r_i_glide_lipo>  (299) 
-0.640526

>  <r_i_glide_hbond>  (299) 
0

>  <r_i_glide_metal>  (299) 
-0

>  <r_i_glide_rewards>  (299) 
-1.0878

>  <r_i_glide_evdw>  (299) 
-24.1889

>  <r_i_glide_ecoul>  (299) 
-0.551046

>  <r_i_glide_erotb>  (299) 
0.326763

>  <r_i_glide_esite>  (299) 
-0.0311454

>  <r_i_glide_emodel>  (299) 
-28.074

>  <r_i_glide_energy>  (299) 
-24.7399

>  <r_i_glide_einternal>  (299) 
0.864375

>  <r_i_glide_intrahb_reward>  (299) 
-0

>  <i_i_glide_confnum>  (299) 
5

>  <i_i_glide_posenum>  (299) 
25

>  <r_i_glide_eff_state_penalty>  (299) 
0

>  <ligand_id>  (299) 
104

>  <original_smiles>  (299) 
CCOC(=O)C=C1CCC2(C)CC34C=CC2(C)C1CC1C=C(CO3)C14

>  <smiles>  (299) 
[H]C(C(=O)OC([H])([H])C([H])([H])[H])=C1C([H])([H])C([H])([H])C2(C([H])([H])[H])C([H])([H])C34OC([H])([H])C5=C([H])C([H])(C([H])([H])C1([H])C2(C([H])([H])[H])C([H])=C3[H])C54[H]

$$$$
104:0:1
     RDKit          3D

 53 57  0  0  1  0  0  0  0  0999 V2000
   -0.6208   -9.5053    2.6300 C   0  0  0  0  0  0  0  0  0  0  0  0
   -1.0721   -8.1293    2.1356 C   0  0  0  0  0  0  0  0  0  0  0  0
   -0.2108   -7.0988    2.5889 O   0  0  0  0  0  0  0  0  0  0  0  0
   -0.1891   -6.6627    3.8411 C   0  0  0  0  0  0  0  0  0  0  0  0
   -1.0659   -6.9278    4.6652 O   0  0  0  0  0  0  0  0  0  0  0  0
    0.9576   -5.7843    4.1557 C   0  0  0  0  0  0  0  0  0  0  0  0
    2.0134   -5.4452    3.3701 C   0  0  0  0  0  0  0  0  0  0  0  0
    2.3032   -5.9391    1.9433 C   0  0  0  0  0  0  0  0  0  0  0  0
    3.7068   -6.4883    1.8365 C   0  0  0  0  0  0  0  0  0  0  0  0
    4.7957   -5.4437    2.0935 C   0  0  1  0  0  0  0  0  0  0  0  0
    6.1214   -6.2512    1.9967 C   0  0  0  0  0  0  0  0  0  0  0  0
    4.8867   -4.4071    0.9110 C   0  0  0  0  0  0  0  0  0  0  0  0
    4.5867   -2.9434    1.2798 C   0  0  1  0  0  0  0  0  0  0  0  0
    5.3388   -2.6297    2.5670 C   0  0  0  0  0  0  0  0  0  0  0  0
    5.3661   -3.4977    3.5854 C   0  0  0  0  0  0  0  0  0  0  0  0
    4.5717   -4.7879    3.5348 C   0  0  2  0  0  0  0  0  0  0  0  0
    5.1336   -5.7154    4.6553 C   0  0  0  0  0  0  0  0  0  0  0  0
    3.0604   -4.4614    3.9214 C   0  0  1  0  0  0  0  0  0  0  0  0
    2.5680   -2.9588    3.9131 C   0  0  0  0  0  0  0  0  0  0  0  0
    2.2024   -2.3457    2.5540 C   0  0  1  0  0  0  0  0  0  0  0  0
    2.6305   -0.8917    2.3245 C   0  0  0  0  0  0  0  0  0  0  0  0
    3.0964   -1.2082    1.1081 C   0  0  0  0  0  0  0  0  0  0  0  0
    4.3564   -0.7875    0.4327 C   0  0  0  0  0  0  0  0  0  0  0  0
    5.0378   -2.0319    0.2553 O   0  0  0  0  0  0  0  0  0  0  0  0
    3.0660   -2.6637    1.3094 C   0  0  1  0  0  0  0  0  0  0  0  0
   -1.3002  -10.2534    2.2476 H   0  0  0  0  0  0  0  0  0  0  0  0
   -0.6279   -9.5744    3.7135 H   0  0  0  0  0  0  0  0  0  0  0  0
    0.3761   -9.7611    2.2816 H   0  0  0  0  0  0  0  0  0  0  0  0
   -1.0074   -8.1193    1.0460 H   0  0  0  0  0  0  0  0  0  0  0  0
   -2.1151   -7.9245    2.3895 H   0  0  0  0  0  0  0  0  0  0  0  0
    0.9064   -5.3572    5.1437 H   0  0  0  0  0  0  0  0  0  0  0  0
    1.7263   -6.7821    1.5836 H   0  0  0  0  0  0  0  0  0  0  0  0
    2.1326   -5.1334    1.2359 H   0  0  0  0  0  0  0  0  0  0  0  0
    3.7867   -7.2949    2.5671 H   0  0  0  0  0  0  0  0  0  0  0  0
    3.8387   -6.9612    0.8648 H   0  0  0  0  0  0  0  0  0  0  0  0
    6.9884   -5.6359    2.2426 H   0  0  0  0  0  0  0  0  0  0  0  0
    6.2625   -6.6275    0.9822 H   0  0  0  0  0  0  0  0  0  0  0  0
    6.1309   -7.1333    2.6407 H   0  0  0  0  0  0  0  0  0  0  0  0
    5.9057   -4.3995    0.5200 H   0  0  0  0  0  0  0  0  0  0  0  0
    4.2750   -4.7195    0.0673 H   0  0  0  0  0  0  0  0  0  0  0  0
    5.8871   -1.7024    2.6080 H   0  0  0  0  0  0  0  0  0  0  0  0
    5.9217   -3.2881    4.4860 H   0  0  0  0  0  0  0  0  0  0  0  0
    4.6368   -6.6851    4.6670 H   0  0  0  0  0  0  0  0  0  0  0  0
    5.0067   -5.2771    5.6452 H   0  0  0  0  0  0  0  0  0  0  0  0
    6.2057   -5.8917    4.5586 H   0  0  0  0  0  0  0  0  0  0  0  0
    3.0211   -4.6376    4.9940 H   0  0  0  0  0  0  0  0  0  0  0  0
    1.6844   -2.8930    4.5547 H   0  0  0  0  0  0  0  0  0  0  0  0
    3.2769   -2.3132    4.4320 H   0  0  0  0  0  0  0  0  0  0  0  0
    1.1579   -2.5334    2.3184 H   0  0  0  0  0  0  0  0  0  0  0  0
    2.7228   -0.0215    2.9685 H   0  0  0  0  0  0  0  0  0  0  0  0
    4.1796   -0.2808   -0.5174 H   0  0  0  0  0  0  0  0  0  0  0  0
    4.9203   -0.1231    1.0892 H   0  0  0  0  0  0  0  0  0  0  0  0
    2.4992   -3.1671    0.5283 H   0  0  0  0  0  0  0  0  0  0  0  0
  1  2  1  0
  1 26  1  0
  1 27  1  0
  1 28  1  0
  2  3  1  0
  2 29  1  0
  2 30  1  0
  3  4  1  0
  4  5  2  0
  4  6  1  0
  6  7  2  3
  6 31  1  0
  7 18  1  0
  7  8  1  0
  8  9  1  0
  8 32  1  0
  8 33  1  0
  9 10  1  0
  9 34  1  0
  9 35  1  0
 10 16  1  0
 10 11  1  1
 10 12  1  0
 11 36  1  0
 11 37  1  0
 11 38  1  0
 12 13  1  0
 12 39  1  0
 12 40  1  0
 13 24  1  6
 13 25  1  0
 13 14  1  0
 14 15  2  0
 14 41  1  0
 15 16  1  0
 15 42  1  0
 16 17  1  1
 16 18  1  0
 17 43  1  0
 17 44  1  0
 17 45  1  0
 18 19  1  0
 18 46  1  1
 19 20  1  0
 19 47  1  0
 19 48  1  0
 20 25  1  0
 20 21  1  0
 20 49  1  6
 21 22  2  0
 21 50  1  0
 22 23  1  0
 22 25  1  0
 23 24  1  0
 23 51  1  0
 23 52  1  0
 25 53  1  6
M  END
>  <i_m_ct_stereo_status>  (300) 
1

>  <s_m_source_file>  (300) 
/var/tmp/pbs.5076255.sched01/tmpebi1rvwe/120qlbjc4nh.sdf

>  <i_m_source_file_index>  (300) 
17

>  <i_lp_mmshare_version>  (300) 
48012

>  <i_f3d_flags>  (300) 
0

>  <s_epik_input>  (300) 
W0NIM11bQ0gyXU9DKD1PKS9bQ0hdPUMxXFtDSDJdW0NIMl1bQ0BAXShbQ0gzXSkoW0NIMl0yKVtDQEBdKFtDSDNdKShbQ0hdPVtDSF0zKVtDQEhdMVtDSDJdW0NASF0oW0NAQEhdNFtDQF0yMzUpW0NIXT1DNFtDSDJdTzU=

>  <s_epik_cmdline>  (300) 
J2VwaWtfcHl0aG9uJywgJy1waHQnLCAnMi4wJywgJy1waCcsICc3LjAnLCAnLXRuJywgJzgnLCAnLW1hJywgJzIwMCcsICctaW1hZScsICc8aW5maWxlLm1hZT4nLCAnLW9tYWUnLCAnPG91dGZpbGUubWFlPic=

>  <r_lp_tautomer_probability>  (300) 
1

>  <r_epik_Ionization_Penalty>  (300) 
3.59115e-12

>  <r_epik_Ionization_Penalty_Charging>  (300) 
0

>  <r_epik_Ionization_Penalty_Neutral>  (300) 
3.59115e-12

>  <r_epik_State_Penalty>  (300) 
-0

>  <r_epik_Charging_Adjusted_Penalty>  (300) 
0

>  <i_epik_Tot_Q>  (300) 
0

>  <i_epik_Tot_abs_Q>  (300) 
0

>  <s_epik_Chemistry_Notes>  (300) 
This compound has an ester and may undergo hydrolysis at high or low pH.

>  <s_lp_Force_Field>  (300) 
OPLS3e

>  <r_lp_Energy>  (300) 
79.0767

>  <b_lp_Chiralities_Consistent>  (300) 
1

>  <s_lp_Variant>  (300) 
104:0-1

>  <s_i_glide_gridfile>  (300) 
pfpi4k_grid

>  <i_i_glide_lignum>  (300) 
17

>  <i_i_glide_rotatable_bonds>  (300) 
3

>  <r_i_docking_score>  (300) 
-2.57476

>  <r_i_glide_ligand_efficiency>  (300) 
-0.10299

>  <r_i_glide_ligand_efficiency_sa>  (300) 
-0.301145

>  <r_i_glide_ligand_efficiency_ln>  (300) 
-0.610295

>  <r_i_glide_gscore>  (300) 
-2.57476

>  <r_i_glide_lipo>  (300) 
-0.357716

>  <r_i_glide_hbond>  (300) 
-0.0547688

>  <r_i_glide_metal>  (300) 
-0

>  <r_i_glide_rewards>  (300) 
-1.0878

>  <r_i_glide_evdw>  (300) 
-22.9897

>  <r_i_glide_ecoul>  (300) 
-1.30284

>  <r_i_glide_erotb>  (300) 
0.326763

>  <r_i_glide_esite>  (300) 
-0.0563241

>  <r_i_glide_emodel>  (300) 
-27.7936

>  <r_i_glide_energy>  (300) 
-24.2925

>  <r_i_glide_einternal>  (300) 
0.0721222

>  <r_i_glide_intrahb_reward>  (300) 
-0

>  <i_i_glide_confnum>  (300) 
1

>  <i_i_glide_posenum>  (300) 
16

>  <r_i_glide_eff_state_penalty>  (300) 
0

>  <ligand_id>  (300) 
104

>  <original_smiles>  (300) 
CCOC(=O)C=C1CCC2(C)CC34C=CC2(C)C1CC1C=C(CO3)C14

>  <smiles>  (300) 
[H]C(C(=O)OC([H])([H])C([H])([H])[H])=C1C([H])([H])C([H])([H])C2(C([H])([H])[H])C([H])([H])C34OC([H])([H])C5=C([H])C([H])(C([H])([H])C1([H])C2(C([H])([H])[H])C([H])=C3[H])C54[H]

$$$$
104:0:2
     RDKit          3D

 53 57  0  0  1  0  0  0  0  0999 V2000
    4.9024   -3.3889   -1.8583 C   0  0  0  0  0  0  0  0  0  0  0  0
    3.9116   -2.5917   -0.9969 C   0  0  0  0  0  0  0  0  0  0  0  0
    4.4790   -2.2657    0.2587 O   0  0  0  0  0  0  0  0  0  0  0  0
    4.5123   -3.1083    1.3191 C   0  0  0  0  0  0  0  0  0  0  0  0
    4.9694   -2.7419    2.4005 O   0  0  0  0  0  0  0  0  0  0  0  0
    3.9482   -4.4555    1.0451 C   0  0  0  0  0  0  0  0  0  0  0  0
    3.7772   -5.4987    1.8898 C   0  0  0  0  0  0  0  0  0  0  0  0
    4.1525   -5.5441    3.3730 C   0  0  0  0  0  0  0  0  0  0  0  0
    4.9750   -6.7879    3.6772 C   0  0  0  0  0  0  0  0  0  0  0  0
    4.2333   -8.1128    3.3816 C   0  0  1  0  0  0  0  0  0  0  0  0
    5.2876   -9.2125    3.6740 C   0  0  0  0  0  0  0  0  0  0  0  0
    3.0880   -8.3728    4.4211 C   0  0  0  0  0  0  0  0  0  0  0  0
    1.6596   -8.4295    3.8527 C   0  0  1  0  0  0  0  0  0  0  0  0
    1.6862   -9.3225    2.6105 C   0  0  0  0  0  0  0  0  0  0  0  0
    2.6803   -9.2278    1.7187 C   0  0  0  0  0  0  0  0  0  0  0  0
    3.7419   -8.1554    1.8573 C   0  0  2  0  0  0  0  0  0  0  0  0
    4.9059   -8.5399    0.9019 C   0  0  0  0  0  0  0  0  0  0  0  0
    3.1380   -6.7814    1.3317 C   0  0  1  0  0  0  0  0  0  0  0  0
    1.5844   -6.6320    1.0929 C   0  0  0  0  0  0  0  0  0  0  0  0
    0.7291   -6.3232    2.3180 C   0  0  1  0  0  0  0  0  0  0  0  0
   -0.6082   -7.0634    2.4173 C   0  0  0  0  0  0  0  0  0  0  0  0
   -0.3706   -7.3653    3.6820 C   0  0  0  0  0  0  0  0  0  0  0  0
   -0.5877   -8.6527    4.4077 C   0  0  0  0  0  0  0  0  0  0  0  0
    0.7398   -9.0033    4.8042 O   0  0  0  0  0  0  0  0  0  0  0  0
    1.0571   -7.0149    3.6549 C   0  0  1  0  0  0  0  0  0  0  0  0
    4.4302   -3.7251   -2.7806 H   0  0  0  0  0  0  0  0  0  0  0  0
    5.2580   -4.2886   -1.3424 H   0  0  0  0  0  0  0  0  0  0  0  0
    5.7833   -2.8006   -2.1133 H   0  0  0  0  0  0  0  0  0  0  0  0
    3.6620   -1.6639   -1.4940 H   0  0  0  0  0  0  0  0  0  0  0  0
    3.0042   -3.1668   -0.8250 H   0  0  0  0  0  0  0  0  0  0  0  0
    3.5937   -4.6114    0.0337 H   0  0  0  0  0  0  0  0  0  0  0  0
    4.7538   -4.6911    3.6655 H   0  0  0  0  0  0  0  0  0  0  0  0
    3.2527   -5.5091    3.9845 H   0  0  0  0  0  0  0  0  0  0  0  0
    5.8712   -6.7313    3.0498 H   0  0  0  0  0  0  0  0  0  0  0  0
    5.3354   -6.7584    4.7065 H   0  0  0  0  0  0  0  0  0  0  0  0
    4.9032  -10.2060    3.4297 H   0  0  0  0  0  0  0  0  0  0  0  0
    5.5397   -9.2013    4.7351 H   0  0  0  0  0  0  0  0  0  0  0  0
    6.2259   -9.0590    3.1354 H   0  0  0  0  0  0  0  0  0  0  0  0
    3.2591   -9.3351    4.9024 H   0  0  0  0  0  0  0  0  0  0  0  0
    3.1370   -7.6449    5.2293 H   0  0  0  0  0  0  0  0  0  0  0  0
    0.9085  -10.0648    2.5119 H   0  0  0  0  0  0  0  0  0  0  0  0
    2.7241   -9.8770    0.8607 H   0  0  0  0  0  0  0  0  0  0  0  0
    5.7340   -7.8352    0.9661 H   0  0  0  0  0  0  0  0  0  0  0  0
    4.5877   -8.5686   -0.1399 H   0  0  0  0  0  0  0  0  0  0  0  0
    5.2966   -9.5404    1.1032 H   0  0  0  0  0  0  0  0  0  0  0  0
    3.4600   -6.7786    0.2957 H   0  0  0  0  0  0  0  0  0  0  0  0
    1.4402   -5.8364    0.3632 H   0  0  0  0  0  0  0  0  0  0  0  0
    1.1670   -7.4885    0.5651 H   0  0  0  0  0  0  0  0  0  0  0  0
    0.6970   -5.2555    2.5291 H   0  0  0  0  0  0  0  0  0  0  0  0
   -1.3175   -7.4200    1.6585 H   0  0  0  0  0  0  0  0  0  0  0  0
   -1.2515   -8.5285    5.2525 H   0  0  0  0  0  0  0  0  0  0  0  0
   -1.0041   -9.4007    3.7252 H   0  0  0  0  0  0  0  0  0  0  0  0
    1.3154   -6.3144    4.4468 H   0  0  0  0  0  0  0  0  0  0  0  0
  1  2  1  0
  1 26  1  0
  1 27  1  0
  1 28  1  0
  2  3  1  0
  2 29  1  0
  2 30  1  0
  3  4  1  0
  4  5  2  0
  4  6  1  0
  6  7  2  3
  6 31  1  0
  7 18  1  0
  7  8  1  0
  8  9  1  0
  8 32  1  0
  8 33  1  0
  9 10  1  0
  9 34  1  0
  9 35  1  0
 10 16  1  0
 10 11  1  6
 10 12  1  0
 11 36  1  0
 11 37  1  0
 11 38  1  0
 12 13  1  0
 12 39  1  0
 12 40  1  0
 13 24  1  1
 13 25  1  0
 13 14  1  0
 14 15  2  0
 14 41  1  0
 15 16  1  0
 15 42  1  0
 16 17  1  6
 16 18  1  0
 17 43  1  0
 17 44  1  0
 17 45  1  0
 18 19  1  0
 18 46  1  6
 19 20  1  0
 19 47  1  0
 19 48  1  0
 20 25  1  0
 20 21  1  0
 20 49  1  1
 21 22  2  0
 21 50  1  0
 22 23  1  0
 22 25  1  0
 23 24  1  0
 23 51  1  0
 23 52  1  0
 25 53  1  1
M  END
>  <i_m_ct_stereo_status>  (301) 
1

>  <s_m_source_file>  (301) 
/var/tmp/pbs.5076255.sched01/tmpebi1rvwe/120qlbjc4nh.sdf

>  <i_m_source_file_index>  (301) 
17

>  <i_lp_mmshare_version>  (301) 
48012

>  <i_f3d_flags>  (301) 
0

>  <s_epik_input>  (301) 
W0NIM11bQ0gyXU9DKD1PKS9bQ0hdPUMxXFtDSDJdW0NIMl1bQ0BAXShbQ0gzXSkoW0NIMl0yKVtDQEBdKFtDSDNdKShbQ0hdPVtDSF0zKVtDQEhdMVtDSDJdW0NASF0oW0NAQEhdNFtDQF0yMzUpW0NIXT1DNFtDSDJdTzU=

>  <s_epik_cmdline>  (301) 
J2VwaWtfcHl0aG9uJywgJy1waHQnLCAnMi4wJywgJy1waCcsICc3LjAnLCAnLXRuJywgJzgnLCAnLW1hJywgJzIwMCcsICctaW1hZScsICc8aW5maWxlLm1hZT4nLCAnLW9tYWUnLCAnPG91dGZpbGUubWFlPic=

>  <r_lp_tautomer_probability>  (301) 
1

>  <r_epik_Ionization_Penalty>  (301) 
3.59115e-12

>  <r_epik_Ionization_Penalty_Charging>  (301) 
0

>  <r_epik_Ionization_Penalty_Neutral>  (301) 
3.59115e-12

>  <r_epik_State_Penalty>  (301) 
-0

>  <r_epik_Charging_Adjusted_Penalty>  (301) 
0

>  <i_epik_Tot_Q>  (301) 
0

>  <i_epik_Tot_abs_Q>  (301) 
0

>  <s_epik_Chemistry_Notes>  (301) 
This compound has an ester and may undergo hydrolysis at high or low pH.

>  <s_lp_Force_Field>  (301) 
OPLS3e

>  <r_lp_Energy>  (301) 
79.0767

>  <b_lp_Chiralities_Consistent>  (301) 
1

>  <s_lp_Variant>  (301) 
104:0-1

>  <s_i_glide_gridfile>  (301) 
pfpi4k_grid

>  <i_i_glide_lignum>  (301) 
17

>  <i_i_glide_rotatable_bonds>  (301) 
3

>  <r_i_docking_score>  (301) 
-2.40033

>  <r_i_glide_ligand_efficiency>  (301) 
-0.0960131

>  <r_i_glide_ligand_efficiency_sa>  (301) 
-0.280744

>  <r_i_glide_ligand_efficiency_ln>  (301) 
-0.56895

>  <r_i_glide_gscore>  (301) 
-2.40033

>  <r_i_glide_lipo>  (301) 
-0.203975

>  <r_i_glide_hbond>  (301) 
0

>  <r_i_glide_metal>  (301) 
-0

>  <r_i_glide_rewards>  (301) 
-1.11308

>  <r_i_glide_evdw>  (301) 
-24.6658

>  <r_i_glide_ecoul>  (301) 
-1.17831

>  <r_i_glide_erotb>  (301) 
0.326763

>  <r_i_glide_esite>  (301) 
0

>  <r_i_glide_emodel>  (301) 
-26.9359

>  <r_i_glide_energy>  (301) 
-25.8441

>  <r_i_glide_einternal>  (301) 
4.05818

>  <r_i_glide_intrahb_reward>  (301) 
-0

>  <i_i_glide_confnum>  (301) 
6

>  <i_i_glide_posenum>  (301) 
18

>  <r_i_glide_eff_state_penalty>  (301) 
0

>  <ligand_id>  (301) 
104

>  <original_smiles>  (301) 
CCOC(=O)C=C1CCC2(C)CC34C=CC2(C)C1CC1C=C(CO3)C14

>  <smiles>  (301) 
[H]C(C(=O)OC([H])([H])C([H])([H])[H])=C1C([H])([H])C([H])([H])C2(C([H])([H])[H])C([H])([H])C34OC([H])([H])C5=C([H])C([H])(C([H])([H])C1([H])C2(C([H])([H])[H])C([H])=C3[H])C54[H]

$$$$
104:1:0
     RDKit          3D

 53 57  0  0  1  0  0  0  0  0999 V2000
    3.4144    0.6868   -5.2050 C   0  0  0  0  0  0  0  0  0  0  0  0
    3.0014   -0.4563   -4.3038 C   0  0  0  0  0  0  0  0  0  0  0  0
    4.0594   -1.3947   -4.1431 O   0  0  0  0  0  0  0  0  0  0  0  0
    4.4058   -2.0254   -2.9811 C   0  0  0  0  0  0  0  0  0  0  0  0
    5.2574   -2.9220   -2.9907 O   0  0  0  0  0  0  0  0  0  0  0  0
    3.7055   -1.5142   -1.7673 C   0  0  0  0  0  0  0  0  0  0  0  0
    3.9059   -1.7736   -0.4707 C   0  0  0  0  0  0  0  0  0  0  0  0
    3.0742   -1.0233    0.5537 C   0  0  0  0  0  0  0  0  0  0  0  0
    3.9280   -0.2631    1.5192 C   0  0  0  0  0  0  0  0  0  0  0  0
    4.8075   -1.2129    2.3467 C   0  0  1  0  0  0  0  0  0  0  0  0
    5.6457   -0.2184    3.1755 C   0  0  0  0  0  0  0  0  0  0  0  0
    3.9737   -2.0012    3.4229 C   0  0  0  0  0  0  0  0  0  0  0  0
    3.9339   -3.5247    3.2613 C   0  0  1  0  0  0  0  0  0  0  0  0
    5.3579   -3.9983    2.9960 C   0  0  0  0  0  0  0  0  0  0  0  0
    6.1754   -3.3339    2.1691 C   0  0  0  0  0  0  0  0  0  0  0  0
    5.6855   -2.1506    1.3839 C   0  0  2  0  0  0  0  0  0  0  0  0
    6.9214   -1.3832    0.8359 C   0  0  0  0  0  0  0  0  0  0  0  0
    4.9353   -2.7365    0.1147 C   0  0  1  0  0  0  0  0  0  0  0  0
    4.4409   -4.2312    0.0726 C   0  0  0  0  0  0  0  0  0  0  0  0
    3.1547   -4.5839    0.8328 C   0  0  1  0  0  0  0  0  0  0  0  0
    3.1671   -5.9206    1.5806 C   0  0  0  0  0  0  0  0  0  0  0  0
    2.6491   -5.3311    2.6690 C   0  0  0  0  0  0  0  0  0  0  0  0
    3.0269   -5.4922    4.1046 C   0  0  0  0  0  0  0  0  0  0  0  0
    3.4554   -4.1707    4.4603 O   0  0  0  0  0  0  0  0  0  0  0  0
    2.8871   -3.9484    2.2138 C   0  0  1  0  0  0  0  0  0  0  0  0
    2.5980    1.4226   -5.2122 H   0  0  0  0  0  0  0  0  0  0  0  0
    3.6334    0.3616   -6.2290 H   0  0  0  0  0  0  0  0  0  0  0  0
    4.2798    1.1984   -4.7652 H   0  0  0  0  0  0  0  0  0  0  0  0
    2.7254    0.1073   -3.4231 H   0  0  0  0  0  0  0  0  0  0  0  0
    2.1227   -0.9781   -4.6754 H   0  0  0  0  0  0  0  0  0  0  0  0
    2.8961   -0.8140   -1.8908 H   0  0  0  0  0  0  0  0  0  0  0  0
    2.4950   -0.2358    0.1034 H   0  0  0  0  0  0  0  0  0  0  0  0
    2.3373   -1.6766    1.0011 H   0  0  0  0  0  0  0  0  0  0  0  0
    4.5384    0.4243    0.9234 H   0  0  0  0  0  0  0  0  0  0  0  0
    3.2868    0.3711    2.1376 H   0  0  0  0  0  0  0  0  0  0  0  0
    6.4094   -0.6913    3.7480 H   0  0  0  0  0  0  0  0  0  0  0  0
    5.0432    0.3457    3.8895 H   0  0  0  0  0  0  0  0  0  0  0  0
    6.1816    0.5050    2.5761 H   0  0  0  0  0  0  0  0  0  0  0  0
    4.4346   -1.8442    4.3990 H   0  0  0  0  0  0  0  0  0  0  0  0
    2.9699   -1.5884    3.5296 H   0  0  0  0  0  0  0  0  0  0  0  0
    5.7281   -4.8352    3.5502 H   0  0  0  0  0  0  0  0  0  0  0  0
    7.1914   -3.6483    2.0183 H   0  0  0  0  0  0  0  0  0  0  0  0
    6.6457   -0.4862    0.2774 H   0  0  0  0  0  0  0  0  0  0  0  0
    7.5451   -1.9967    0.1862 H   0  0  0  0  0  0  0  0  0  0  0  0
    7.5841   -1.0646    1.6327 H   0  0  0  0  0  0  0  0  0  0  0  0
    5.7205   -2.7791   -0.6348 H   0  0  0  0  0  0  0  0  0  0  0  0
    4.2697   -4.4836   -0.9731 H   0  0  0  0  0  0  0  0  0  0  0  0
    5.2571   -4.8947    0.3648 H   0  0  0  0  0  0  0  0  0  0  0  0
    2.2706   -4.4577    0.2026 H   0  0  0  0  0  0  0  0  0  0  0  0
    3.6449   -6.8795    1.4017 H   0  0  0  0  0  0  0  0  0  0  0  0
    2.2042   -5.8413    4.7335 H   0  0  0  0  0  0  0  0  0  0  0  0
    3.8550   -6.2019    4.1863 H   0  0  0  0  0  0  0  0  0  0  0  0
    1.9768   -3.3499    2.2352 H   0  0  0  0  0  0  0  0  0  0  0  0
  1  2  1  0
  1 26  1  0
  1 27  1  0
  1 28  1  0
  2  3  1  0
  2 29  1  0
  2 30  1  0
  3  4  1  0
  4  5  2  0
  4  6  1  0
  6  7  2  3
  6 31  1  0
  7 18  1  0
  7  8  1  0
  8  9  1  0
  8 32  1  0
  8 33  1  0
  9 10  1  0
  9 34  1  0
  9 35  1  0
 10 16  1  0
 10 11  1  1
 10 12  1  0
 11 36  1  0
 11 37  1  0
 11 38  1  0
 12 13  1  0
 12 39  1  0
 12 40  1  0
 13 24  1  1
 13 25  1  0
 13 14  1  0
 14 15  2  0
 14 41  1  0
 15 16  1  0
 15 42  1  0
 16 17  1  6
 16 18  1  0
 17 43  1  0
 17 44  1  0
 17 45  1  0
 18 19  1  0
 18 46  1  6
 19 20  1  0
 19 47  1  0
 19 48  1  0
 20 25  1  0
 20 21  1  0
 20 49  1  6
 21 22  2  0
 21 50  1  0
 22 23  1  0
 22 25  1  0
 23 24  1  0
 23 51  1  0
 23 52  1  0
 25 53  1  6
M  END
>  <i_m_ct_stereo_status>  (302) 
1

>  <s_m_source_file>  (302) 
/var/tmp/pbs.5076255.sched01/tmpebi1rvwe/120qlbjc4nh.sdf

>  <i_m_source_file_index>  (302) 
18

>  <i_lp_mmshare_version>  (302) 
48012

>  <i_f3d_flags>  (302) 
0

>  <s_epik_input>  (302) 
W0NIM11bQ0gyXU9DKD1PKS9bQ0hdPUMxXFtDSDJdW0NIMl1bQ0BAXShbQ0gzXSkoW0NIMl0yKVtDQEBdKFtDSDNdKShbQ0hdPVtDSF0zKVtDQEhdMVtDSDJdW0NASF0oW0NAQEhdNFtDQF0yMzUpW0NIXT1DNFtDSDJdTzU=

>  <s_epik_cmdline>  (302) 
J2VwaWtfcHl0aG9uJywgJy1waHQnLCAnMi4wJywgJy1waCcsICc3LjAnLCAnLXRuJywgJzgnLCAnLW1hJywgJzIwMCcsICctaW1hZScsICc8aW5maWxlLm1hZT4nLCAnLW9tYWUnLCAnPG91dGZpbGUubWFlPic=

>  <r_lp_tautomer_probability>  (302) 
1

>  <r_epik_Ionization_Penalty>  (302) 
3.59115e-12

>  <r_epik_Ionization_Penalty_Charging>  (302) 
0

>  <r_epik_Ionization_Penalty_Neutral>  (302) 
3.59115e-12

>  <r_epik_State_Penalty>  (302) 
-0

>  <r_epik_Charging_Adjusted_Penalty>  (302) 
0

>  <i_epik_Tot_Q>  (302) 
0

>  <i_epik_Tot_abs_Q>  (302) 
0

>  <s_epik_Chemistry_Notes>  (302) 
This compound has an ester and may undergo hydrolysis at high or low pH.

>  <s_lp_Force_Field>  (302) 
OPLS3e

>  <r_lp_Energy>  (302) 
78.4728

>  <b_lp_Chiralities_Consistent>  (302) 
1

>  <s_lp_Variant>  (302) 
104:0-2

>  <s_i_glide_gridfile>  (302) 
pfpi4k_grid

>  <i_i_glide_lignum>  (302) 
18

>  <i_i_glide_rotatable_bonds>  (302) 
3

>  <r_i_docking_score>  (302) 
-3.38943

>  <r_i_glide_ligand_efficiency>  (302) 
-0.135577

>  <r_i_glide_ligand_efficiency_sa>  (302) 
-0.396431

>  <r_i_glide_ligand_efficiency_ln>  (302) 
-0.803397

>  <r_i_glide_gscore>  (302) 
-3.38943

>  <r_i_glide_lipo>  (302) 
-0.864713

>  <r_i_glide_hbond>  (302) 
-0.148385

>  <r_i_glide_metal>  (302) 
-0

>  <r_i_glide_rewards>  (302) 
-1.19426

>  <r_i_glide_evdw>  (302) 
-23.2412

>  <r_i_glide_ecoul>  (302) 
-2.31185

>  <r_i_glide_erotb>  (302) 
0.326763

>  <r_i_glide_esite>  (302) 
0

>  <r_i_glide_emodel>  (302) 
-28.53

>  <r_i_glide_energy>  (302) 
-25.5531

>  <r_i_glide_einternal>  (302) 
4.78157

>  <r_i_glide_intrahb_reward>  (302) 
-0

>  <i_i_glide_confnum>  (302) 
1

>  <i_i_glide_posenum>  (302) 
3

>  <r_i_glide_eff_state_penalty>  (302) 
0

>  <ligand_id>  (302) 
104

>  <original_smiles>  (302) 
CCOC(=O)C=C1CCC2(C)CC34C=CC2(C)C1CC1C=C(CO3)C14

>  <smiles>  (302) 
[H]C(C(=O)OC([H])([H])C([H])([H])[H])=C1C([H])([H])C([H])([H])C2(C([H])([H])[H])C([H])([H])C34OC([H])([H])C5=C([H])C([H])(C([H])([H])C1([H])C2(C([H])([H])[H])C([H])=C3[H])C54[H]

$$$$
104:1:1
     RDKit          3D

 53 57  0  0  1  0  0  0  0  0999 V2000
    0.8600  -10.2563    3.8686 C   0  0  0  0  0  0  0  0  0  0  0  0
    0.2577   -9.8626    2.5085 C   0  0  0  0  0  0  0  0  0  0  0  0
   -0.1790   -8.4993    2.5401 O   0  0  0  0  0  0  0  0  0  0  0  0
    0.6254   -7.4259    2.3006 C   0  0  0  0  0  0  0  0  0  0  0  0
    0.2546   -6.2789    2.5335 O   0  0  0  0  0  0  0  0  0  0  0  0
    1.9056   -7.7974    1.6530 C   0  0  0  0  0  0  0  0  0  0  0  0
    3.0711   -7.1094    1.6397 C   0  0  0  0  0  0  0  0  0  0  0  0
    4.2676   -7.7692    0.9740 C   0  0  0  0  0  0  0  0  0  0  0  0
    5.4334   -7.8851    1.9454 C   0  0  0  0  0  0  0  0  0  0  0  0
    5.9525   -6.5165    2.4491 C   0  0  1  0  0  0  0  0  0  0  0  0
    7.0359   -6.8817    3.4992 C   0  0  0  0  0  0  0  0  0  0  0  0
    6.7510   -5.7502    1.3264 C   0  0  0  0  0  0  0  0  0  0  0  0
    6.1430   -4.4174    0.8569 C   0  0  1  0  0  0  0  0  0  0  0  0
    5.7495   -3.6281    2.0947 C   0  0  0  0  0  0  0  0  0  0  0  0
    5.1635   -4.2149    3.1447 C   0  0  0  0  0  0  0  0  0  0  0  0
    4.7431   -5.6754    3.0862 C   0  0  2  0  0  0  0  0  0  0  0  0
    4.4609   -6.1338    4.5479 C   0  0  0  0  0  0  0  0  0  0  0  0
    3.3537   -5.7512    2.3061 C   0  0  1  0  0  0  0  0  0  0  0  0
    2.8884   -4.5418    1.4156 C   0  0  0  0  0  0  0  0  0  0  0  0
    3.5135   -4.3871    0.0225 C   0  0  1  0  0  0  0  0  0  0  0  0
    3.8262   -2.9622   -0.4320 C   0  0  0  0  0  0  0  0  0  0  0  0
    5.0414   -3.3515   -0.8531 C   0  0  0  0  0  0  0  0  0  0  0  0
    6.3630   -2.6737   -0.6691 C   0  0  0  0  0  0  0  0  0  0  0  0
    7.0918   -3.6417    0.0958 O   0  0  0  0  0  0  0  0  0  0  0  0
    5.0183   -4.6564   -0.1780 C   0  0  1  0  0  0  0  0  0  0  0  0
    1.2498  -11.2727    3.8246 H   0  0  0  0  0  0  0  0  0  0  0  0
    0.1289  -10.2108    4.6766 H   0  0  0  0  0  0  0  0  0  0  0  0
    1.6894   -9.6061    4.1325 H   0  0  0  0  0  0  0  0  0  0  0  0
    0.9661  -10.0604    1.7326 H   0  0  0  0  0  0  0  0  0  0  0  0
   -0.6251  -10.4911    2.3113 H   0  0  0  0  0  0  0  0  0  0  0  0
    1.9042   -8.7104    1.1225 H   0  0  0  0  0  0  0  0  0  0  0  0
    3.9972   -8.7780    0.6612 H   0  0  0  0  0  0  0  0  0  0  0  0
    4.5351   -7.2492    0.0650 H   0  0  0  0  0  0  0  0  0  0  0  0
    5.0889   -8.4839    2.7933 H   0  0  0  0  0  0  0  0  0  0  0  0
    6.2323   -8.4723    1.4860 H   0  0  0  0  0  0  0  0  0  0  0  0
    7.4218   -5.9916    3.9983 H   0  0  0  0  0  0  0  0  0  0  0  0
    7.8785   -7.3815    3.0292 H   0  0  0  0  0  0  0  0  0  0  0  0
    6.6747   -7.5667    4.2699 H   0  0  0  0  0  0  0  0  0  0  0  0
    7.7324   -5.4748    1.7256 H   0  0  0  0  0  0  0  0  0  0  0  0
    6.9708   -6.3946    0.4783 H   0  0  0  0  0  0  0  0  0  0  0  0
    6.0174   -2.5830    2.1317 H   0  0  0  0  0  0  0  0  0  0  0  0
    4.9276   -3.6544    4.0383 H   0  0  0  0  0  0  0  0  0  0  0  0
    4.1886   -7.1872    4.6015 H   0  0  0  0  0  0  0  0  0  0  0  0
    3.6418   -5.5718    5.0032 H   0  0  0  0  0  0  0  0  0  0  0  0
    5.3122   -5.9758    5.2163 H   0  0  0  0  0  0  0  0  0  0  0  0
    2.6195   -5.6795    3.1001 H   0  0  0  0  0  0  0  0  0  0  0  0
    1.8165   -4.6517    1.2584 H   0  0  0  0  0  0  0  0  0  0  0  0
    2.9605   -3.5947    1.9627 H   0  0  0  0  0  0  0  0  0  0  0  0
    2.9564   -4.9707   -0.7154 H   0  0  0  0  0  0  0  0  0  0  0  0
    3.3379   -2.0040   -0.2594 H   0  0  0  0  0  0  0  0  0  0  0  0
    6.8523   -2.4490   -1.6179 H   0  0  0  0  0  0  0  0  0  0  0  0
    6.2262   -1.7514   -0.1040 H   0  0  0  0  0  0  0  0  0  0  0  0
    5.2183   -5.4709   -0.8720 H   0  0  0  0  0  0  0  0  0  0  0  0
  1  2  1  0
  1 26  1  0
  1 27  1  0
  1 28  1  0
  2  3  1  0
  2 29  1  0
  2 30  1  0
  3  4  1  0
  4  5  2  0
  4  6  1  0
  6  7  2  3
  6 31  1  0
  7 18  1  0
  7  8  1  0
  8  9  1  0
  8 32  1  0
  8 33  1  0
  9 10  1  0
  9 34  1  0
  9 35  1  0
 10 16  1  0
 10 11  1  1
 10 12  1  0
 11 36  1  0
 11 37  1  0
 11 38  1  0
 12 13  1  0
 12 39  1  0
 12 40  1  0
 13 24  1  6
 13 25  1  0
 13 14  1  0
 14 15  2  0
 14 41  1  0
 15 16  1  0
 15 42  1  0
 16 17  1  1
 16 18  1  0
 17 43  1  0
 17 44  1  0
 17 45  1  0
 18 19  1  0
 18 46  1  1
 19 20  1  0
 19 47  1  0
 19 48  1  0
 20 25  1  0
 20 21  1  0
 20 49  1  6
 21 22  2  0
 21 50  1  0
 22 23  1  0
 22 25  1  0
 23 24  1  0
 23 51  1  0
 23 52  1  0
 25 53  1  6
M  END
>  <i_m_ct_stereo_status>  (303) 
1

>  <s_m_source_file>  (303) 
/var/tmp/pbs.5076255.sched01/tmpebi1rvwe/120qlbjc4nh.sdf

>  <i_m_source_file_index>  (303) 
18

>  <i_lp_mmshare_version>  (303) 
48012

>  <i_f3d_flags>  (303) 
0

>  <s_epik_input>  (303) 
W0NIM11bQ0gyXU9DKD1PKS9bQ0hdPUMxXFtDSDJdW0NIMl1bQ0BAXShbQ0gzXSkoW0NIMl0yKVtDQEBdKFtDSDNdKShbQ0hdPVtDSF0zKVtDQEhdMVtDSDJdW0NASF0oW0NAQEhdNFtDQF0yMzUpW0NIXT1DNFtDSDJdTzU=

>  <s_epik_cmdline>  (303) 
J2VwaWtfcHl0aG9uJywgJy1waHQnLCAnMi4wJywgJy1waCcsICc3LjAnLCAnLXRuJywgJzgnLCAnLW1hJywgJzIwMCcsICctaW1hZScsICc8aW5maWxlLm1hZT4nLCAnLW9tYWUnLCAnPG91dGZpbGUubWFlPic=

>  <r_lp_tautomer_probability>  (303) 
1

>  <r_epik_Ionization_Penalty>  (303) 
3.59115e-12

>  <r_epik_Ionization_Penalty_Charging>  (303) 
0

>  <r_epik_Ionization_Penalty_Neutral>  (303) 
3.59115e-12

>  <r_epik_State_Penalty>  (303) 
-0

>  <r_epik_Charging_Adjusted_Penalty>  (303) 
0

>  <i_epik_Tot_Q>  (303) 
0

>  <i_epik_Tot_abs_Q>  (303) 
0

>  <s_epik_Chemistry_Notes>  (303) 
This compound has an ester and may undergo hydrolysis at high or low pH.

>  <s_lp_Force_Field>  (303) 
OPLS3e

>  <r_lp_Energy>  (303) 
78.4728

>  <b_lp_Chiralities_Consistent>  (303) 
1

>  <s_lp_Variant>  (303) 
104:0-2

>  <s_i_glide_gridfile>  (303) 
pfpi4k_grid

>  <i_i_glide_lignum>  (303) 
18

>  <i_i_glide_rotatable_bonds>  (303) 
3

>  <r_i_docking_score>  (303) 
-3.23951

>  <r_i_glide_ligand_efficiency>  (303) 
-0.129581

>  <r_i_glide_ligand_efficiency_sa>  (303) 
-0.378896

>  <r_i_glide_ligand_efficiency_ln>  (303) 
-0.767862

>  <r_i_glide_gscore>  (303) 
-3.23951

>  <r_i_glide_lipo>  (303) 
-0.554571

>  <r_i_glide_hbond>  (303) 
-0.138258

>  <r_i_glide_metal>  (303) 
-0

>  <r_i_glide_rewards>  (303) 
-1.0878

>  <r_i_glide_evdw>  (303) 
-25.2442

>  <r_i_glide_ecoul>  (303) 
-3.1743

>  <r_i_glide_erotb>  (303) 
0.326763

>  <r_i_glide_esite>  (303) 
-0.0472894

>  <r_i_glide_emodel>  (303) 
-31.6438

>  <r_i_glide_energy>  (303) 
-28.4185

>  <r_i_glide_einternal>  (303) 
5.07153

>  <r_i_glide_intrahb_reward>  (303) 
-0

>  <i_i_glide_confnum>  (303) 
1

>  <i_i_glide_posenum>  (303) 
8

>  <r_i_glide_eff_state_penalty>  (303) 
0

>  <ligand_id>  (303) 
104

>  <original_smiles>  (303) 
CCOC(=O)C=C1CCC2(C)CC34C=CC2(C)C1CC1C=C(CO3)C14

>  <smiles>  (303) 
[H]C(C(=O)OC([H])([H])C([H])([H])[H])=C1C([H])([H])C([H])([H])C2(C([H])([H])[H])C([H])([H])C34OC([H])([H])C5=C([H])C([H])(C([H])([H])C1([H])C2(C([H])([H])[H])C([H])=C3[H])C54[H]

$$$$
104:1:2
     RDKit          3D

 53 57  0  0  1  0  0  0  0  0999 V2000
    3.3147   -3.0474   -2.9082 C   0  0  0  0  0  0  0  0  0  0  0  0
    2.2128   -3.4509   -1.9281 C   0  0  0  0  0  0  0  0  0  0  0  0
    2.7788   -3.7435   -0.6543 O   0  0  0  0  0  0  0  0  0  0  0  0
    2.3466   -4.7958    0.0821 C   0  0  0  0  0  0  0  0  0  0  0  0
    1.4035   -5.5182   -0.2395 O   0  0  0  0  0  0  0  0  0  0  0  0
    3.0940   -4.8753    1.3524 C   0  0  0  0  0  0  0  0  0  0  0  0
    3.1144   -5.8969    2.2459 C   0  0  0  0  0  0  0  0  0  0  0  0
    3.9679   -5.7453    3.4911 C   0  0  0  0  0  0  0  0  0  0  0  0
    4.9857   -6.8755    3.5873 C   0  0  0  0  0  0  0  0  0  0  0  0
    4.3560   -8.2841    3.6854 C   0  0  1  0  0  0  0  0  0  0  0  0
    5.5686   -9.2591    3.6164 C   0  0  0  0  0  0  0  0  0  0  0  0
    3.7433   -8.5604    5.1096 C   0  0  0  0  0  0  0  0  0  0  0  0
    2.2241   -8.7769    5.1570 C   0  0  1  0  0  0  0  0  0  0  0  0
    1.8624   -9.7620    4.0558 C   0  0  0  0  0  0  0  0  0  0  0  0
    2.4160   -9.6730    2.8382 C   0  0  0  0  0  0  0  0  0  0  0  0
    3.3305   -8.5137    2.4799 C   0  0  2  0  0  0  0  0  0  0  0  0
    4.0961   -8.9244    1.1872 C   0  0  0  0  0  0  0  0  0  0  0  0
    2.4141   -7.2603    2.1009 C   0  0  1  0  0  0  0  0  0  0  0  0
    0.8984   -7.2338    2.5396 C   0  0  0  0  0  0  0  0  0  0  0  0
    0.5837   -6.8787    4.0000 C   0  0  1  0  0  0  0  0  0  0  0  0
   -0.5535   -7.6802    4.6514 C   0  0  0  0  0  0  0  0  0  0  0  0
    0.1892   -7.8766    5.7457 C   0  0  0  0  0  0  0  0  0  0  0  0
    0.3974   -9.0993    6.5674 C   0  0  0  0  0  0  0  0  0  0  0  0
    1.8031   -9.3211    6.4185 O   0  0  0  0  0  0  0  0  0  0  0  0
    1.4605   -7.4375    5.1434 C   0  0  1  0  0  0  0  0  0  0  0  0
    2.8903   -2.8452   -3.8898 H   0  0  0  0  0  0  0  0  0  0  0  0
    4.0527   -3.8415   -3.0206 H   0  0  0  0  0  0  0  0  0  0  0  0
    3.8285   -2.1452   -2.5740 H   0  0  0  0  0  0  0  0  0  0  0  0
    1.4854   -2.6574   -1.8489 H   0  0  0  0  0  0  0  0  0  0  0  0
    1.6660   -4.2997   -2.3380 H   0  0  0  0  0  0  0  0  0  0  0  0
    3.6788   -3.9974    1.5919 H   0  0  0  0  0  0  0  0  0  0  0  0
    4.5026   -4.7928    3.4694 H   0  0  0  0  0  0  0  0  0  0  0  0
    3.3411   -5.7087    4.3753 H   0  0  0  0  0  0  0  0  0  0  0  0
    5.6080   -6.8233    2.6919 H   0  0  0  0  0  0  0  0  0  0  0  0
    5.6648   -6.6960    4.4201 H   0  0  0  0  0  0  0  0  0  0  0  0
    5.2463  -10.3021    3.5918 H   0  0  0  0  0  0  0  0  0  0  0  0
    6.2084   -9.1395    4.4935 H   0  0  0  0  0  0  0  0  0  0  0  0
    6.2143   -9.0860    2.7540 H   0  0  0  0  0  0  0  0  0  0  0  0
    4.1706   -9.4802    5.5159 H   0  0  0  0  0  0  0  0  0  0  0  0
    4.0357   -7.7897    5.8187 H   0  0  0  0  0  0  0  0  0  0  0  0
    1.1955  -10.5769    4.3058 H   0  0  0  0  0  0  0  0  0  0  0  0
    2.1972  -10.4011    2.0758 H   0  0  0  0  0  0  0  0  0  0  0  0
    4.8020   -8.1582    0.8653 H   0  0  0  0  0  0  0  0  0  0  0  0
    3.4129   -9.1120    0.3627 H   0  0  0  0  0  0  0  0  0  0  0  0
    4.6401   -9.8593    1.3005 H   0  0  0  0  0  0  0  0  0  0  0  0
    2.2888   -7.3769    1.0301 H   0  0  0  0  0  0  0  0  0  0  0  0
    0.3789   -6.5174    1.9042 H   0  0  0  0  0  0  0  0  0  0  0  0
    0.4157   -8.1735    2.2687 H   0  0  0  0  0  0  0  0  0  0  0  0
    0.5001   -5.7982    4.1271 H   0  0  0  0  0  0  0  0  0  0  0  0
   -1.4702   -8.1225    4.2767 H   0  0  0  0  0  0  0  0  0  0  0  0
    0.1144   -8.9554    7.6074 H   0  0  0  0  0  0  0  0  0  0  0  0
   -0.1729   -9.9267    6.1514 H   0  0  0  0  0  0  0  0  0  0  0  0
    1.9429   -6.6474    5.7195 H   0  0  0  0  0  0  0  0  0  0  0  0
  1  2  1  0
  1 26  1  0
  1 27  1  0
  1 28  1  0
  2  3  1  0
  2 29  1  0
  2 30  1  0
  3  4  1  0
  4  5  2  0
  4  6  1  0
  6  7  2  3
  6 31  1  0
  7 18  1  0
  7  8  1  0
  8  9  1  0
  8 32  1  0
  8 33  1  0
  9 10  1  0
  9 34  1  0
  9 35  1  0
 10 16  1  0
 10 11  1  6
 10 12  1  0
 11 36  1  0
 11 37  1  0
 11 38  1  0
 12 13  1  0
 12 39  1  0
 12 40  1  0
 13 24  1  1
 13 25  1  0
 13 14  1  0
 14 15  2  0
 14 41  1  0
 15 16  1  0
 15 42  1  0
 16 17  1  6
 16 18  1  0
 17 43  1  0
 17 44  1  0
 17 45  1  0
 18 19  1  0
 18 46  1  6
 19 20  1  0
 19 47  1  0
 19 48  1  0
 20 25  1  0
 20 21  1  0
 20 49  1  6
 21 22  2  0
 21 50  1  0
 22 23  1  0
 22 25  1  0
 23 24  1  0
 23 51  1  0
 23 52  1  0
 25 53  1  1
M  END
>  <i_m_ct_stereo_status>  (304) 
1

>  <s_m_source_file>  (304) 
/var/tmp/pbs.5076255.sched01/tmpebi1rvwe/120qlbjc4nh.sdf

>  <i_m_source_file_index>  (304) 
18

>  <i_lp_mmshare_version>  (304) 
48012

>  <i_f3d_flags>  (304) 
0

>  <s_epik_input>  (304) 
W0NIM11bQ0gyXU9DKD1PKS9bQ0hdPUMxXFtDSDJdW0NIMl1bQ0BAXShbQ0gzXSkoW0NIMl0yKVtDQEBdKFtDSDNdKShbQ0hdPVtDSF0zKVtDQEhdMVtDSDJdW0NASF0oW0NAQEhdNFtDQF0yMzUpW0NIXT1DNFtDSDJdTzU=

>  <s_epik_cmdline>  (304) 
J2VwaWtfcHl0aG9uJywgJy1waHQnLCAnMi4wJywgJy1waCcsICc3LjAnLCAnLXRuJywgJzgnLCAnLW1hJywgJzIwMCcsICctaW1hZScsICc8aW5maWxlLm1hZT4nLCAnLW9tYWUnLCAnPG91dGZpbGUubWFlPic=

>  <r_lp_tautomer_probability>  (304) 
1

>  <r_epik_Ionization_Penalty>  (304) 
3.59115e-12

>  <r_epik_Ionization_Penalty_Charging>  (304) 
0

>  <r_epik_Ionization_Penalty_Neutral>  (304) 
3.59115e-12

>  <r_epik_State_Penalty>  (304) 
-0

>  <r_epik_Charging_Adjusted_Penalty>  (304) 
0

>  <i_epik_Tot_Q>  (304) 
0

>  <i_epik_Tot_abs_Q>  (304) 
0

>  <s_epik_Chemistry_Notes>  (304) 
This compound has an ester and may undergo hydrolysis at high or low pH.

>  <s_lp_Force_Field>  (304) 
OPLS3e

>  <r_lp_Energy>  (304) 
78.4728

>  <b_lp_Chiralities_Consistent>  (304) 
1

>  <s_lp_Variant>  (304) 
104:0-2

>  <s_i_glide_gridfile>  (304) 
pfpi4k_grid

>  <i_i_glide_lignum>  (304) 
18

>  <i_i_glide_rotatable_bonds>  (304) 
3

>  <r_i_docking_score>  (304) 
-2.71935

>  <r_i_glide_ligand_efficiency>  (304) 
-0.108774

>  <r_i_glide_ligand_efficiency_sa>  (304) 
-0.318057

>  <r_i_glide_ligand_efficiency_ln>  (304) 
-0.644568

>  <r_i_glide_gscore>  (304) 
-2.71935

>  <r_i_glide_lipo>  (304) 
-0.175142

>  <r_i_glide_hbond>  (304) 
-0.259674

>  <r_i_glide_metal>  (304) 
-0

>  <r_i_glide_rewards>  (304) 
-1.0878

>  <r_i_glide_evdw>  (304) 
-20.7664

>  <r_i_glide_ecoul>  (304) 
-2.82782

>  <r_i_glide_erotb>  (304) 
0.326763

>  <r_i_glide_esite>  (304) 
-0.0610033

>  <r_i_glide_emodel>  (304) 
-27.9425

>  <r_i_glide_energy>  (304) 
-23.5942

>  <r_i_glide_einternal>  (304) 
1.86515

>  <r_i_glide_intrahb_reward>  (304) 
-0

>  <i_i_glide_confnum>  (304) 
4

>  <i_i_glide_posenum>  (304) 
16

>  <r_i_glide_eff_state_penalty>  (304) 
0

>  <ligand_id>  (304) 
104

>  <original_smiles>  (304) 
CCOC(=O)C=C1CCC2(C)CC34C=CC2(C)C1CC1C=C(CO3)C14

>  <smiles>  (304) 
[H]C(C(=O)OC([H])([H])C([H])([H])[H])=C1C([H])([H])C([H])([H])C2(C([H])([H])[H])C([H])([H])C34OC([H])([H])C5=C([H])C([H])(C([H])([H])C1([H])C2(C([H])([H])[H])C([H])=C3[H])C54[H]

$$$$
105:1:0
     RDKit          3D

 66 71  0  0  1  0  0  0  0  0999 V2000
    2.0461    0.0574    1.6145 C   0  0  0  0  0  0  0  0  0  0  0  0
    3.1930    0.1622    2.6296 C   0  0  0  0  0  0  0  0  0  0  0  0
    3.2361    1.0676    3.4450 O   0  0  0  0  0  0  0  0  0  0  0  0
    4.1675   -0.7888    2.5564 O   0  0  0  0  0  0  0  0  0  0  0  0
    4.0703   -1.9891    1.7900 C   0  0  2  0  0  0  0  0  0  0  0  0
    3.3363   -3.1767    2.5942 C   0  0  2  0  0  0  0  0  0  0  0  0
    1.8505   -2.9358    2.9123 C   0  0  0  0  0  0  0  0  0  0  0  0
    4.0350   -3.5130    3.9788 C   0  0  1  0  0  0  0  0  0  0  0  0
    3.9688   -4.9070    4.7160 C   0  0  0  0  0  0  0  0  0  0  0  0
    5.2336   -5.8833    4.6751 C   0  0  0  0  0  0  0  0  0  0  0  0
    5.8178   -6.2158    3.2550 C   0  0  2  0  0  0  0  0  0  0  0  0
    6.8354   -7.3232    3.0110 C   0  0  0  0  0  0  0  0  0  0  0  0
    7.2047   -8.1576    3.8345 O   0  0  0  0  0  0  0  0  0  0  0  0
    7.1820   -7.2434    1.5806 C   0  0  0  0  0  0  0  0  0  0  0  0
    6.7913   -6.0493    1.1033 C   0  0  0  0  0  0  0  0  0  0  0  0
    6.3080   -5.1454    2.2108 C   0  0  1  0  0  0  0  0  0  0  0  0
    5.3004   -3.9708    2.0528 C   0  0  1  0  0  0  0  0  0  0  0  0
    5.4130   -3.3936    3.5340 C   0  0  0  0  0  0  0  0  0  0  0  0
    5.4794   -2.5895    1.2867 C   0  0  2  0  0  0  0  0  0  0  0  0
    6.5924   -1.7778    1.6815 O   0  0  0  0  0  0  0  0  0  0  0  0
    5.6238   -2.5996   -0.2903 C   0  0  0  0  0  0  0  0  0  0  0  0
    5.2786   -1.1883   -0.8795 C   0  0  0  0  0  0  0  0  0  0  0  0
    7.0833   -2.8868   -0.7498 C   0  0  0  0  0  0  0  0  0  0  0  0
    4.7380   -3.7328   -0.8738 C   0  0  2  0  0  0  0  0  0  0  0  0
    4.0245   -3.4049   -2.1763 C   0  0  0  0  0  0  0  0  0  0  0  0
    4.7617   -3.3978   -3.4965 C   0  0  0  0  0  0  0  0  0  0  0  0
    2.7113   -3.2325   -1.9964 C   0  0  0  0  0  0  0  0  0  0  0  0
    2.2993   -3.4939   -0.5705 C   0  0  0  0  0  0  0  0  0  0  0  0
    3.5621   -4.1357    0.0323 C   0  0  2  0  0  0  0  0  0  0  0  0
    3.7738   -4.2962    1.6127 C   0  0  2  0  0  0  0  0  0  0  0  0
    3.0202   -5.6553    1.8273 C   0  0  0  0  0  0  0  0  0  0  0  0
    1.8352   -5.6199    2.2085 O   0  0  0  0  0  0  0  0  0  0  0  0
    3.5211   -6.7065    1.3719 O   0  0  0  0  0  0  0  0  0  0  0  0
    2.4283    0.0318    0.6036 H   0  0  0  0  0  0  0  0  0  0  0  0
    1.3813    0.9045    1.6885 H   0  0  0  0  0  0  0  0  0  0  0  0
    1.4357   -0.8170    1.7550 H   0  0  0  0  0  0  0  0  0  0  0  0
    3.5256   -1.7344    0.8961 H   0  0  0  0  0  0  0  0  0  0  0  0
    1.4077   -3.7313    3.5184 H   0  0  0  0  0  0  0  0  0  0  0  0
    1.3315   -2.8909    1.9791 H   0  0  0  0  0  0  0  0  0  0  0  0
    1.6920   -2.0000    3.4424 H   0  0  0  0  0  0  0  0  0  0  0  0
    3.7840   -2.7173    4.6810 H   0  0  0  0  0  0  0  0  0  0  0  0
    3.8466   -4.6518    5.7691 H   0  0  0  0  0  0  0  0  0  0  0  0
    3.0348   -5.4175    4.4842 H   0  0  0  0  0  0  0  0  0  0  0  0
    6.0072   -5.5307    5.3693 H   0  0  0  0  0  0  0  0  0  0  0  0
    4.9014   -6.8240    5.1170 H   0  0  0  0  0  0  0  0  0  0  0  0
    7.2513   -4.6689    2.5023 H   0  0  0  0  0  0  0  0  0  0  0  0
    7.6011   -8.0489    1.0018 H   0  0  0  0  0  0  0  0  0  0  0  0
    4.9875   -6.7781    2.8830 H   0  0  0  0  0  0  0  0  0  0  0  0
    6.8897   -5.7179    0.0858 H   0  0  0  0  0  0  0  0  0  0  0  0
    5.6621   -2.3467    3.6834 H   0  0  0  0  0  0  0  0  0  0  0  0
    6.1627   -3.7858    4.2073 H   0  0  0  0  0  0  0  0  0  0  0  0
    6.4516   -0.9028    1.3450 H   0  0  0  0  0  0  0  0  0  0  0  0
    5.6081   -1.0861   -1.9138 H   0  0  0  0  0  0  0  0  0  0  0  0
    5.7726   -0.3853   -0.3319 H   0  0  0  0  0  0  0  0  0  0  0  0
    4.2122   -0.9581   -0.8783 H   0  0  0  0  0  0  0  0  0  0  0  0
    7.1280   -3.1622   -1.8053 H   0  0  0  0  0  0  0  0  0  0  0  0
    7.5374   -3.6932   -0.1793 H   0  0  0  0  0  0  0  0  0  0  0  0
    7.7307   -2.0183   -0.6258 H   0  0  0  0  0  0  0  0  0  0  0  0
    5.3346   -4.6294   -1.0419 H   0  0  0  0  0  0  0  0  0  0  0  0
    5.2577   -4.3569   -3.6270 H   0  0  0  0  0  0  0  0  0  0  0  0
    5.5219   -2.6213   -3.5213 H   0  0  0  0  0  0  0  0  0  0  0  0
    4.0731   -3.2541   -4.3281 H   0  0  0  0  0  0  0  0  0  0  0  0
    1.9909   -3.0288   -2.7765 H   0  0  0  0  0  0  0  0  0  0  0  0
    2.0452   -2.5613   -0.0932 H   0  0  0  0  0  0  0  0  0  0  0  0
    1.4373   -4.1625   -0.5433 H   0  0  0  0  0  0  0  0  0  0  0  0
    3.4248   -5.1348   -0.3894 H   0  0  0  0  0  0  0  0  0  0  0  0
  1  2  1  0
  1 34  1  0
  1 35  1  0
  1 36  1  0
  2  3  2  0
  2  4  1  0
  4  5  1  0
  5 19  1  0
  5  6  1  0
  5 37  1  6
  6 30  1  0
  6  7  1  1
  6  8  1  0
  7 38  1  0
  7 39  1  0
  7 40  1  0
  8 18  1  0
  8  9  1  0
  8 41  1  1
  9 10  1  0
  9 42  1  0
  9 43  1  0
 10 44  1  0
 10 45  1  0
 10 11  1  0
 11 16  1  0
 11 48  1  6
 11 12  1  0
 12 13  2  0
 12 14  1  0
 14 15  2  0
 14 47  1  0
 15 49  1  0
 15 16  1  0
 16 17  1  0
 16 46  1  1
 17 30  1  0
 17 18  1  1
 17 19  1  0
 18 50  1  0
 18 51  1  0
 19 20  1  1
 19 21  1  0
 20 52  1  0
 21 22  1  0
 21 23  1  0
 21 24  1  0
 22 53  1  0
 22 54  1  0
 22 55  1  0
 23 56  1  0
 23 57  1  0
 23 58  1  0
 24 29  1  0
 24 25  1  0
 24 59  1  6
 25 26  1  0
 25 27  2  0
 26 60  1  0
 26 61  1  0
 26 62  1  0
 27 28  1  0
 27 63  1  0
 28 29  1  0
 28 64  1  0
 28 65  1  0
 29 30  1  0
 29 66  1  6
 30 31  1  1
 31 32  2  0
 31 33  1  0
M  CHG  1  33  -1
M  END
>  <i_m_ct_stereo_status>  (305) 
1

>  <s_m_source_file>  (305) 
/var/tmp/pbs.5076255.sched01/tmpebi1rvwe/120qlbjc4nh.sdf

>  <i_m_source_file_index>  (305) 
20

>  <i_lp_mmshare_version>  (305) 
48012

>  <i_f3d_flags>  (305) 
0

>  <s_epik_input>  (305) 
W0NIM11DKD1PKU9bQ0BIXTFbQ0BdMihbT0hdKUMoW0NIM10pKFtDSDNdKVtDQEhdKEMoW0NIM10pPVtDSF1bQ0gyXTMpW0NASF0zW0NAXTQoQyg9TylbT0hdKVtDQEBdMShbQ0gzXSlbQ0BIXShbQ0gyXTUpW0NIMl1bQ0gyXVtDQEBIXShDNltDQEBdMjQ1KUMoPU8pW0NIMl1bQ0hdPTY=

>  <s_epik_cmdline>  (305) 
J2VwaWtfcHl0aG9uJywgJy1waHQnLCAnMi4wJywgJy1waCcsICc3LjAnLCAnLXRuJywgJzgnLCAnLW1hJywgJzIwMCcsICctaW1hZScsICc8aW5maWxlLm1hZT4nLCAnLW9tYWUnLCAnPG91dGZpbGUubWFlPic=

>  <r_lp_tautomer_probability>  (305) 
0.499977

>  <r_epik_Ionization_Penalty>  (305) 
0.00291168

>  <r_epik_Ionization_Penalty_Charging>  (305) 
0.00291165

>  <r_epik_Ionization_Penalty_Neutral>  (305) 
3.3714e-08

>  <r_epik_State_Penalty>  (305) 
0.461454

>  <r_epik_Charging_Adjusted_Penalty>  (305) 
0.464366

>  <i_epik_Tot_Q>  (305) 
-1

>  <i_epik_Tot_abs_Q>  (305) 
1

>  <s_epik_Chemistry_Notes>  (305) 
This compound has an ester and may undergo hydrolysis at high or low pH.

>  <s_lp_Force_Field>  (305) 
OPLS3e

>  <r_lp_Energy>  (305) 
153.302

>  <b_lp_Chiralities_Consistent>  (305) 
1

>  <s_lp_Variant>  (305) 
105:0-2

>  <s_i_glide_gridfile>  (305) 
pfpi4k_grid

>  <i_i_glide_lignum>  (305) 
20

>  <i_i_glide_rotatable_bonds>  (305) 
4

>  <r_i_docking_score>  (305) 
-2.19016

>  <r_i_glide_ligand_efficiency>  (305) 
-0.0663686

>  <r_i_glide_ligand_efficiency_sa>  (305) 
-0.212879

>  <r_i_glide_ligand_efficiency_ln>  (305) 
-0.487081

>  <r_i_glide_gscore>  (305) 
-2.19016

>  <r_i_glide_lipo>  (305) 
-0.639143

>  <r_i_glide_hbond>  (305) 
0

>  <r_i_glide_metal>  (305) 
-0

>  <r_i_glide_rewards>  (305) 
-0.366493

>  <r_i_glide_evdw>  (305) 
-25.1905

>  <r_i_glide_ecoul>  (305) 
-0.150584

>  <r_i_glide_erotb>  (305) 
0.0975863

>  <r_i_glide_esite>  (305) 
0

>  <r_i_glide_emodel>  (305) 
-24.4646

>  <r_i_glide_energy>  (305) 
-25.3411

>  <r_i_glide_einternal>  (305) 
5.65288

>  <r_i_glide_intrahb_reward>  (305) 
-0

>  <i_i_glide_confnum>  (305) 
1

>  <i_i_glide_posenum>  (305) 
4

>  <r_i_glide_eff_state_penalty>  (305) 
0

>  <ligand_id>  (305) 
105

>  <original_smiles>  (305) 
CC(=O)OC1C2(C)C3CCC4C(=O)CC=C4C4(C3)C1(O)C(C)(C)C1C(C)=CCC1C24C(=O)O

>  <smiles>  (305) 
[H]OC12C([H])(OC(=O)C([H])([H])[H])C3(C([H])([H])[H])C4([H])C([H])([H])C([H])([H])C5([H])C(=O)C([H])=C([H])C5([H])C1(C4([H])[H])C3(C(=O)[O-])C1([H])C([H])([H])C([H])=C(C([H])([H])[H])C1([H])C2(C([H])([H])[H])C([H])([H])[H]

$$$$
105:1:1
     RDKit          3D

 66 71  0  0  1  0  0  0  0  0999 V2000
    2.0729    0.0917    1.6068 C   0  0  0  0  0  0  0  0  0  0  0  0
    3.2188    0.1787    2.6261 C   0  0  0  0  0  0  0  0  0  0  0  0
    3.2656    1.1100    3.4321 O   0  0  0  0  0  0  0  0  0  0  0  0
    4.1639   -0.7891    2.5868 O   0  0  0  0  0  0  0  0  0  0  0  0
    4.0604   -1.9841    1.8000 C   0  0  2  0  0  0  0  0  0  0  0  0
    3.3391   -3.1797    2.5974 C   0  0  2  0  0  0  0  0  0  0  0  0
    1.8563   -2.9308    2.9234 C   0  0  0  0  0  0  0  0  0  0  0  0
    4.0423   -3.5247    3.9816 C   0  0  1  0  0  0  0  0  0  0  0  0
    3.9880   -4.9249    4.7113 C   0  0  0  0  0  0  0  0  0  0  0  0
    5.2593   -5.8929    4.6580 C   0  0  0  0  0  0  0  0  0  0  0  0
    5.8390   -6.2198    3.2340 C   0  0  2  0  0  0  0  0  0  0  0  0
    6.8541   -7.3170    2.9630 C   0  0  0  0  0  0  0  0  0  0  0  0
    7.2375   -8.1496    3.7893 O   0  0  0  0  0  0  0  0  0  0  0  0
    7.1988   -7.2242    1.5416 C   0  0  0  0  0  0  0  0  0  0  0  0
    6.7979   -6.0184    1.0811 C   0  0  0  0  0  0  0  0  0  0  0  0
    6.3194   -5.1273    2.1950 C   0  0  1  0  0  0  0  0  0  0  0  0
    5.3035   -3.9565    2.0472 C   0  0  1  0  0  0  0  0  0  0  0  0
    5.4067   -3.3951    3.5281 C   0  0  0  0  0  0  0  0  0  0  0  0
    5.4667   -2.5754    1.2838 C   0  0  2  0  0  0  0  0  0  0  0  0
    6.5685   -1.7552    1.6728 O   0  0  0  0  0  0  0  0  0  0  0  0
    5.6006   -2.5762   -0.2936 C   0  0  0  0  0  0  0  0  0  0  0  0
    5.2484   -1.1609   -0.8648 C   0  0  0  0  0  0  0  0  0  0  0  0
    7.0629   -2.8500   -0.7622 C   0  0  0  0  0  0  0  0  0  0  0  0
    4.7256   -3.7087   -0.8777 C   0  0  2  0  0  0  0  0  0  0  0  0
    3.9971   -3.3686   -2.1680 C   0  0  0  0  0  0  0  0  0  0  0  0
    4.7234   -3.3463   -3.4964 C   0  0  0  0  0  0  0  0  0  0  0  0
    2.6901   -3.2100   -1.9824 C   0  0  0  0  0  0  0  0  0  0  0  0
    2.2875   -3.4872   -0.5564 C   0  0  0  0  0  0  0  0  0  0  0  0
    3.5588   -4.1216    0.0322 C   0  0  2  0  0  0  0  0  0  0  0  0
    3.7766   -4.2920    1.6055 C   0  0  2  0  0  0  0  0  0  0  0  0
    3.0319   -5.6554    1.8324 C   0  0  0  0  0  0  0  0  0  0  0  0
    1.8637   -5.6331    2.2587 O   0  0  0  0  0  0  0  0  0  0  0  0
    3.5383   -6.6974    1.3363 O   0  0  0  0  0  0  0  0  0  0  0  0
    2.4685    0.0271    0.5875 H   0  0  0  0  0  0  0  0  0  0  0  0
    1.4276    0.9677    1.6501 H   0  0  0  0  0  0  0  0  0  0  0  0
    1.4350   -0.7799    1.7746 H   0  0  0  0  0  0  0  0  0  0  0  0
    3.5113   -1.7270    0.9140 H   0  0  0  0  0  0  0  0  0  0  0  0
    1.4167   -3.7215    3.5405 H   0  0  0  0  0  0  0  0  0  0  0  0
    1.3166   -2.8872    1.9989 H   0  0  0  0  0  0  0  0  0  0  0  0
    1.6964   -1.9846    3.4457 H   0  0  0  0  0  0  0  0  0  0  0  0
    3.7934   -2.7336    4.6987 H   0  0  0  0  0  0  0  0  0  0  0  0
    3.8734   -4.6793    5.7658 H   0  0  0  0  0  0  0  0  0  0  0  0
    3.0605   -5.4409    4.4828 H   0  0  0  0  0  0  0  0  0  0  0  0
    6.0389   -5.5444    5.3390 H   0  0  0  0  0  0  0  0  0  0  0  0
    4.9393   -6.8387    5.0901 H   0  0  0  0  0  0  0  0  0  0  0  0
    7.2600   -4.6614    2.4817 H   0  0  0  0  0  0  0  0  0  0  0  0
    7.6185   -8.0203    0.9500 H   0  0  0  0  0  0  0  0  0  0  0  0
    4.9952   -6.7745    2.8437 H   0  0  0  0  0  0  0  0  0  0  0  0
    6.8933   -5.6778    0.0705 H   0  0  0  0  0  0  0  0  0  0  0  0
    5.6592   -2.3500    3.6863 H   0  0  0  0  0  0  0  0  0  0  0  0
    6.1707   -3.7927    4.1984 H   0  0  0  0  0  0  0  0  0  0  0  0
    6.5349   -1.6385    2.6069 H   0  0  0  0  0  0  0  0  0  0  0  0
    5.5704   -1.0459   -1.8995 H   0  0  0  0  0  0  0  0  0  0  0  0
    5.7430   -0.3618   -0.3108 H   0  0  0  0  0  0  0  0  0  0  0  0
    4.1812   -0.9333   -0.8549 H   0  0  0  0  0  0  0  0  0  0  0  0
    7.1007   -3.1149   -1.8219 H   0  0  0  0  0  0  0  0  0  0  0  0
    7.5255   -3.6574   -0.2013 H   0  0  0  0  0  0  0  0  0  0  0  0
    7.7035   -1.9768   -0.6331 H   0  0  0  0  0  0  0  0  0  0  0  0
    5.3252   -4.5983   -1.0588 H   0  0  0  0  0  0  0  0  0  0  0  0
    5.2264   -4.3014   -3.6401 H   0  0  0  0  0  0  0  0  0  0  0  0
    5.4746   -2.5608   -3.5216 H   0  0  0  0  0  0  0  0  0  0  0  0
    4.0239   -3.2002   -4.3215 H   0  0  0  0  0  0  0  0  0  0  0  0
    1.9586   -2.9994   -2.7527 H   0  0  0  0  0  0  0  0  0  0  0  0
    2.0244   -2.5631   -0.0614 H   0  0  0  0  0  0  0  0  0  0  0  0
    1.4515   -4.1750   -0.5280 H   0  0  0  0  0  0  0  0  0  0  0  0
    3.4261   -5.1184   -0.3951 H   0  0  0  0  0  0  0  0  0  0  0  0
  1  2  1  0
  1 34  1  0
  1 35  1  0
  1 36  1  0
  2  3  2  0
  2  4  1  0
  4  5  1  0
  5 19  1  0
  5  6  1  0
  5 37  1  6
  6 30  1  0
  6  7  1  1
  6  8  1  0
  7 38  1  0
  7 39  1  0
  7 40  1  0
  8 18  1  0
  8  9  1  0
  8 41  1  1
  9 10  1  0
  9 42  1  0
  9 43  1  0
 10 44  1  0
 10 45  1  0
 10 11  1  0
 11 16  1  0
 11 48  1  6
 11 12  1  0
 12 13  2  0
 12 14  1  0
 14 15  2  0
 14 47  1  0
 15 49  1  0
 15 16  1  0
 16 17  1  0
 16 46  1  1
 17 30  1  0
 17 18  1  1
 17 19  1  0
 18 50  1  0
 18 51  1  0
 19 20  1  1
 19 21  1  0
 20 52  1  0
 21 22  1  0
 21 23  1  0
 21 24  1  0
 22 53  1  0
 22 54  1  0
 22 55  1  0
 23 56  1  0
 23 57  1  0
 23 58  1  0
 24 29  1  0
 24 25  1  0
 24 59  1  6
 25 26  1  0
 25 27  2  0
 26 60  1  0
 26 61  1  0
 26 62  1  0
 27 28  1  0
 27 63  1  0
 28 29  1  0
 28 64  1  0
 28 65  1  0
 29 30  1  0
 29 66  1  6
 30 31  1  1
 31 32  2  0
 31 33  1  0
M  CHG  1  33  -1
M  END
>  <i_m_ct_stereo_status>  (306) 
1

>  <s_m_source_file>  (306) 
/var/tmp/pbs.5076255.sched01/tmpebi1rvwe/120qlbjc4nh.sdf

>  <i_m_source_file_index>  (306) 
20

>  <i_lp_mmshare_version>  (306) 
48012

>  <i_f3d_flags>  (306) 
0

>  <s_epik_input>  (306) 
W0NIM11DKD1PKU9bQ0BIXTFbQ0BdMihbT0hdKUMoW0NIM10pKFtDSDNdKVtDQEhdKEMoW0NIM10pPVtDSF1bQ0gyXTMpW0NASF0zW0NAXTQoQyg9TylbT0hdKVtDQEBdMShbQ0gzXSlbQ0BIXShbQ0gyXTUpW0NIMl1bQ0gyXVtDQEBIXShDNltDQEBdMjQ1KUMoPU8pW0NIMl1bQ0hdPTY=

>  <s_epik_cmdline>  (306) 
J2VwaWtfcHl0aG9uJywgJy1waHQnLCAnMi4wJywgJy1waCcsICc3LjAnLCAnLXRuJywgJzgnLCAnLW1hJywgJzIwMCcsICctaW1hZScsICc8aW5maWxlLm1hZT4nLCAnLW9tYWUnLCAnPG91dGZpbGUubWFlPic=

>  <r_lp_tautomer_probability>  (306) 
0.499977

>  <r_epik_Ionization_Penalty>  (306) 
0.00291168

>  <r_epik_Ionization_Penalty_Charging>  (306) 
0.00291165

>  <r_epik_Ionization_Penalty_Neutral>  (306) 
3.3714e-08

>  <r_epik_State_Penalty>  (306) 
0.461454

>  <r_epik_Charging_Adjusted_Penalty>  (306) 
0.464366

>  <i_epik_Tot_Q>  (306) 
-1

>  <i_epik_Tot_abs_Q>  (306) 
1

>  <s_epik_Chemistry_Notes>  (306) 
This compound has an ester and may undergo hydrolysis at high or low pH.

>  <s_lp_Force_Field>  (306) 
OPLS3e

>  <r_lp_Energy>  (306) 
153.302

>  <b_lp_Chiralities_Consistent>  (306) 
1

>  <s_lp_Variant>  (306) 
105:0-2

>  <s_i_glide_gridfile>  (306) 
pfpi4k_grid

>  <i_i_glide_lignum>  (306) 
20

>  <i_i_glide_rotatable_bonds>  (306) 
4

>  <r_i_docking_score>  (306) 
-2.0789

>  <r_i_glide_ligand_efficiency>  (306) 
-0.062997

>  <r_i_glide_ligand_efficiency_sa>  (306) 
-0.202065

>  <r_i_glide_ligand_efficiency_ln>  (306) 
-0.462337

>  <r_i_glide_gscore>  (306) 
-2.0789

>  <r_i_glide_lipo>  (306) 
-0.641425

>  <r_i_glide_hbond>  (306) 
0

>  <r_i_glide_metal>  (306) 
-0

>  <r_i_glide_rewards>  (306) 
-0.370192

>  <r_i_glide_evdw>  (306) 
-25.6479

>  <r_i_glide_ecoul>  (306) 
0.783494

>  <r_i_glide_erotb>  (306) 
0.0975863

>  <r_i_glide_esite>  (306) 
0

>  <r_i_glide_emodel>  (306) 
-24.2967

>  <r_i_glide_energy>  (306) 
-24.8644

>  <r_i_glide_einternal>  (306) 
5.41415

>  <r_i_glide_intrahb_reward>  (306) 
-0

>  <i_i_glide_confnum>  (306) 
2

>  <i_i_glide_posenum>  (306) 
7

>  <r_i_glide_eff_state_penalty>  (306) 
0

>  <ligand_id>  (306) 
105

>  <original_smiles>  (306) 
CC(=O)OC1C2(C)C3CCC4C(=O)CC=C4C4(C3)C1(O)C(C)(C)C1C(C)=CCC1C24C(=O)O

>  <smiles>  (306) 
[H]OC12C([H])(OC(=O)C([H])([H])[H])C3(C([H])([H])[H])C4([H])C([H])([H])C([H])([H])C5([H])C(=O)C([H])=C([H])C5([H])C1(C4([H])[H])C3(C(=O)[O-])C1([H])C([H])([H])C([H])=C(C([H])([H])[H])C1([H])C2(C([H])([H])[H])C([H])([H])[H]

$$$$
105:1:2
     RDKit          3D

 66 71  0  0  1  0  0  0  0  0999 V2000
    3.4097    0.7036    4.0993 C   0  0  0  0  0  0  0  0  0  0  0  0
    3.4342   -0.2032    2.8809 C   0  0  0  0  0  0  0  0  0  0  0  0
    3.2532    0.2632    1.7630 O   0  0  0  0  0  0  0  0  0  0  0  0
    3.6712   -1.4982    3.1970 O   0  0  0  0  0  0  0  0  0  0  0  0
    3.7719   -2.5244    2.1958 C   0  0  2  0  0  0  0  0  0  0  0  0
    3.3050   -3.9566    2.7614 C   0  0  2  0  0  0  0  0  0  0  0  0
    1.7913   -4.0182    3.0134 C   0  0  0  0  0  0  0  0  0  0  0  0
    4.0696   -4.3932    4.1032 C   0  0  1  0  0  0  0  0  0  0  0  0
    4.3188   -5.8783    4.6188 C   0  0  0  0  0  0  0  0  0  0  0  0
    5.7470   -6.5709    4.4247 C   0  0  0  0  0  0  0  0  0  0  0  0
    6.3562   -6.5542    2.9747 C   0  0  2  0  0  0  0  0  0  0  0  0
    7.5575   -7.3802    2.5505 C   0  0  0  0  0  0  0  0  0  0  0  0
    8.1114   -8.2277    3.2523 O   0  0  0  0  0  0  0  0  0  0  0  0
    7.8541   -6.9869    1.1663 C   0  0  0  0  0  0  0  0  0  0  0  0
    7.2262   -5.8310    0.8975 C   0  0  0  0  0  0  0  0  0  0  0  0
    6.5899   -5.2393    2.1264 C   0  0  1  0  0  0  0  0  0  0  0  0
    5.3697   -4.2653    2.1435 C   0  0  1  0  0  0  0  0  0  0  0  0
    5.3931   -3.9330    3.7016 C   0  0  0  0  0  0  0  0  0  0  0  0
    5.2489   -2.7775    1.6056 C   0  0  2  0  0  0  0  0  0  0  0  0
    6.1963   -1.8544    2.1304 O   0  0  0  0  0  0  0  0  0  0  0  0
    5.3744   -2.5262    0.0496 C   0  0  0  0  0  0  0  0  0  0  0  0
    4.7746   -1.1413   -0.3363 C   0  0  0  0  0  0  0  0  0  0  0  0
    6.8549   -2.4309   -0.4149 C   0  0  0  0  0  0  0  0  0  0  0  0
    4.7216   -3.7019   -0.7110 C   0  0  2  0  0  0  0  0  0  0  0  0
    3.9283   -3.3207   -1.9439 C   0  0  0  0  0  0  0  0  0  0  0  0
    4.6181   -2.9348   -3.2351 C   0  0  0  0  0  0  0  0  0  0  0  0
    2.6099   -3.4450   -1.7564 C   0  0  0  0  0  0  0  0  0  0  0  0
    2.2738   -3.9763   -0.3932 C   0  0  0  0  0  0  0  0  0  0  0  0
    3.6583   -4.4475    0.1054 C   0  0  2  0  0  0  0  0  0  0  0  0
    3.9367   -4.8153    1.6308 C   0  0  2  0  0  0  0  0  0  0  0  0
    3.5115   -6.3343    1.6612 C   0  0  0  0  0  0  0  0  0  0  0  0
    4.1612   -7.1373    0.9492 O   0  0  0  0  0  0  0  0  0  0  0  0
    2.4353   -6.6552    2.2090 O   0  0  0  0  0  0  0  0  0  0  0  0
    2.6531    0.3469    4.7990 H   0  0  0  0  0  0  0  0  0  0  0  0
    3.1528    1.7162    3.7843 H   0  0  0  0  0  0  0  0  0  0  0  0
    4.3875    0.7293    4.5842 H   0  0  0  0  0  0  0  0  0  0  0  0
    3.0996   -2.2324    1.3983 H   0  0  0  0  0  0  0  0  0  0  0  0
    1.5100   -4.8706    3.6337 H   0  0  0  0  0  0  0  0  0  0  0  0
    1.2619   -4.1332    2.0811 H   0  0  0  0  0  0  0  0  0  0  0  0
    1.4303   -3.1253    3.5221 H   0  0  0  0  0  0  0  0  0  0  0  0
    3.6828   -3.7990    4.9329 H   0  0  0  0  0  0  0  0  0  0  0  0
    4.1902   -5.8307    5.6998 H   0  0  0  0  0  0  0  0  0  0  0  0
    3.5110   -6.5488    4.3416 H   0  0  0  0  0  0  0  0  0  0  0  0
    6.4635   -6.1962    5.1554 H   0  0  0  0  0  0  0  0  0  0  0  0
    5.6282   -7.6172    4.6946 H   0  0  0  0  0  0  0  0  0  0  0  0
    7.4392   -4.6546    2.4792 H   0  0  0  0  0  0  0  0  0  0  0  0
    8.4362   -7.5869    0.4787 H   0  0  0  0  0  0  0  0  0  0  0  0
    5.6508   -7.1946    2.4884 H   0  0  0  0  0  0  0  0  0  0  0  0
    7.2504   -5.3109   -0.0399 H   0  0  0  0  0  0  0  0  0  0  0  0
    5.4351   -2.8969    4.0208 H   0  0  0  0  0  0  0  0  0  0  0  0
    6.2196   -4.2715    4.3065 H   0  0  0  0  0  0  0  0  0  0  0  0
    5.9384   -0.9864    1.8634 H   0  0  0  0  0  0  0  0  0  0  0  0
    5.0328   -0.8174   -1.3433 H   0  0  0  0  0  0  0  0  0  0  0  0
    5.1624   -0.3538    0.3081 H   0  0  0  0  0  0  0  0  0  0  0  0
    3.6850   -1.1246   -0.2850 H   0  0  0  0  0  0  0  0  0  0  0  0
    6.9345   -2.5113   -1.5014 H   0  0  0  0  0  0  0  0  0  0  0  0
    7.4785   -3.2029    0.0265 H   0  0  0  0  0  0  0  0  0  0  0  0
    7.3040   -1.4757   -0.1351 H   0  0  0  0  0  0  0  0  0  0  0  0
    5.4788   -4.4204   -1.0152 H   0  0  0  0  0  0  0  0  0  0  0  0
    5.3026   -3.7340   -3.5186 H   0  0  0  0  0  0  0  0  0  0  0  0
    5.2012   -2.0199   -3.1281 H   0  0  0  0  0  0  0  0  0  0  0  0
    3.9005   -2.7961   -4.0449 H   0  0  0  0  0  0  0  0  0  0  0  0
    1.8501   -3.2478   -2.4971 H   0  0  0  0  0  0  0  0  0  0  0  0
    1.8190   -3.1694    0.1722 H   0  0  0  0  0  0  0  0  0  0  0  0
    1.5671   -4.8055   -0.4609 H   0  0  0  0  0  0  0  0  0  0  0  0
    3.7117   -5.3791   -0.4594 H   0  0  0  0  0  0  0  0  0  0  0  0
  1  2  1  0
  1 34  1  0
  1 35  1  0
  1 36  1  0
  2  3  2  0
  2  4  1  0
  4  5  1  0
  5 19  1  0
  5  6  1  0
  5 37  1  6
  6 30  1  0
  6  7  1  1
  6  8  1  0
  7 38  1  0
  7 39  1  0
  7 40  1  0
  8 18  1  0
  8  9  1  0
  8 41  1  1
  9 10  1  0
  9 42  1  0
  9 43  1  0
 10 44  1  0
 10 45  1  0
 10 11  1  0
 11 16  1  0
 11 48  1  6
 11 12  1  0
 12 13  2  0
 12 14  1  0
 14 15  2  0
 14 47  1  0
 15 49  1  0
 15 16  1  0
 16 17  1  0
 16 46  1  1
 17 30  1  0
 17 18  1  1
 17 19  1  0
 18 50  1  0
 18 51  1  0
 19 20  1  1
 19 21  1  0
 20 52  1  0
 21 22  1  0
 21 23  1  0
 21 24  1  0
 22 53  1  0
 22 54  1  0
 22 55  1  0
 23 56  1  0
 23 57  1  0
 23 58  1  0
 24 29  1  0
 24 25  1  0
 24 59  1  6
 25 26  1  0
 25 27  2  0
 26 60  1  0
 26 61  1  0
 26 62  1  0
 27 28  1  0
 27 63  1  0
 28 29  1  0
 28 64  1  0
 28 65  1  0
 29 30  1  0
 29 66  1  6
 30 31  1  1
 31 32  2  0
 31 33  1  0
M  CHG  1  33  -1
M  END
>  <i_m_ct_stereo_status>  (307) 
1

>  <s_m_source_file>  (307) 
/var/tmp/pbs.5076255.sched01/tmpebi1rvwe/120qlbjc4nh.sdf

>  <i_m_source_file_index>  (307) 
20

>  <i_lp_mmshare_version>  (307) 
48012

>  <i_f3d_flags>  (307) 
0

>  <s_epik_input>  (307) 
W0NIM11DKD1PKU9bQ0BIXTFbQ0BdMihbT0hdKUMoW0NIM10pKFtDSDNdKVtDQEhdKEMoW0NIM10pPVtDSF1bQ0gyXTMpW0NASF0zW0NAXTQoQyg9TylbT0hdKVtDQEBdMShbQ0gzXSlbQ0BIXShbQ0gyXTUpW0NIMl1bQ0gyXVtDQEBIXShDNltDQEBdMjQ1KUMoPU8pW0NIMl1bQ0hdPTY=

>  <s_epik_cmdline>  (307) 
J2VwaWtfcHl0aG9uJywgJy1waHQnLCAnMi4wJywgJy1waCcsICc3LjAnLCAnLXRuJywgJzgnLCAnLW1hJywgJzIwMCcsICctaW1hZScsICc8aW5maWxlLm1hZT4nLCAnLW9tYWUnLCAnPG91dGZpbGUubWFlPic=

>  <r_lp_tautomer_probability>  (307) 
0.499977

>  <r_epik_Ionization_Penalty>  (307) 
0.00291168

>  <r_epik_Ionization_Penalty_Charging>  (307) 
0.00291165

>  <r_epik_Ionization_Penalty_Neutral>  (307) 
3.3714e-08

>  <r_epik_State_Penalty>  (307) 
0.461454

>  <r_epik_Charging_Adjusted_Penalty>  (307) 
0.464366

>  <i_epik_Tot_Q>  (307) 
-1

>  <i_epik_Tot_abs_Q>  (307) 
1

>  <s_epik_Chemistry_Notes>  (307) 
This compound has an ester and may undergo hydrolysis at high or low pH.

>  <s_lp_Force_Field>  (307) 
OPLS3e

>  <r_lp_Energy>  (307) 
153.302

>  <b_lp_Chiralities_Consistent>  (307) 
1

>  <s_lp_Variant>  (307) 
105:0-2

>  <s_i_glide_gridfile>  (307) 
pfpi4k_grid

>  <i_i_glide_lignum>  (307) 
20

>  <i_i_glide_rotatable_bonds>  (307) 
4

>  <r_i_docking_score>  (307) 
-2.06365

>  <r_i_glide_ligand_efficiency>  (307) 
-0.0625347

>  <r_i_glide_ligand_efficiency_sa>  (307) 
-0.200582

>  <r_i_glide_ligand_efficiency_ln>  (307) 
-0.458944

>  <r_i_glide_gscore>  (307) 
-2.06365

>  <r_i_glide_lipo>  (307) 
-0.537029

>  <r_i_glide_hbond>  (307) 
0

>  <r_i_glide_metal>  (307) 
-0

>  <r_i_glide_rewards>  (307) 
-0.384456

>  <r_i_glide_evdw>  (307) 
-27.0116

>  <r_i_glide_ecoul>  (307) 
0.844724

>  <r_i_glide_erotb>  (307) 
0.0975863

>  <r_i_glide_esite>  (307) 
-0.0158746

>  <r_i_glide_emodel>  (307) 
-28.5591

>  <r_i_glide_energy>  (307) 
-26.1669

>  <r_i_glide_einternal>  (307) 
0.334525

>  <r_i_glide_intrahb_reward>  (307) 
-0

>  <i_i_glide_confnum>  (307) 
1

>  <i_i_glide_posenum>  (307) 
9

>  <r_i_glide_eff_state_penalty>  (307) 
0

>  <ligand_id>  (307) 
105

>  <original_smiles>  (307) 
CC(=O)OC1C2(C)C3CCC4C(=O)CC=C4C4(C3)C1(O)C(C)(C)C1C(C)=CCC1C24C(=O)O

>  <smiles>  (307) 
[H]OC12C([H])(OC(=O)C([H])([H])[H])C3(C([H])([H])[H])C4([H])C([H])([H])C([H])([H])C5([H])C(=O)C([H])=C([H])C5([H])C1(C4([H])[H])C3(C(=O)[O-])C1([H])C([H])([H])C([H])=C(C([H])([H])[H])C1([H])C2(C([H])([H])[H])C([H])([H])[H]

$$$$
105:2:0
     RDKit          3D

 66 71  0  0  1  0  0  0  0  0999 V2000
    2.1284   -2.4656    8.4434 C   0  0  0  0  0  0  0  0  0  0  0  0
    0.6377   -2.1695    8.2368 C   0  0  0  0  0  0  0  0  0  0  0  0
   -0.2037   -2.6399    8.9886 O   0  0  0  0  0  0  0  0  0  0  0  0
    0.3303   -1.3694    7.1849 O   0  0  0  0  0  0  0  0  0  0  0  0
    1.2973   -0.7372    6.3378 C   0  0  2  0  0  0  0  0  0  0  0  0
    1.6472    0.7545    6.7938 C   0  0  2  0  0  0  0  0  0  0  0  0
    2.5069    0.7916    8.0812 C   0  0  0  0  0  0  0  0  0  0  0  0
    0.3184    1.5989    7.0007 C   0  0  1  0  0  0  0  0  0  0  0  0
    0.2187    3.1645    6.9672 C   0  0  0  0  0  0  0  0  0  0  0  0
    0.1629    3.9916    5.6026 C   0  0  0  0  0  0  0  0  0  0  0  0
    0.0057    3.4103    4.1109 C   0  0  2  0  0  0  0  0  0  0  0  0
   -1.4006    3.5578    3.5291 C   0  0  0  0  0  0  0  0  0  0  0  0
   -2.1175    4.5450    3.6850 O   0  0  0  0  0  0  0  0  0  0  0  0
   -1.7521    2.3840    2.7522 C   0  0  0  0  0  0  0  0  0  0  0  0
   -0.7439    1.5081    2.8012 C   0  0  0  0  0  0  0  0  0  0  0  0
    0.4370    1.9514    3.6402 C   0  0  2  0  0  0  0  0  0  0  0  0
    0.7804    0.9818    4.8049 C   0  0  1  0  0  0  0  0  0  0  0  0
   -0.4343    1.2013    5.8047 C   0  0  0  0  0  0  0  0  0  0  0  0
    0.8574   -0.6037    4.8059 C   0  0  2  0  0  0  0  0  0  0  0  0
   -0.3925   -1.2199    4.5041 O   0  0  0  0  0  0  0  0  0  0  0  0
    1.8879   -1.3178    3.8397 C   0  0  0  0  0  0  0  0  0  0  0  0
    1.6698   -2.8548    3.7697 C   0  0  0  0  0  0  0  0  0  0  0  0
    1.7152   -0.8616    2.3710 C   0  0  0  0  0  0  0  0  0  0  0  0
    3.3512   -0.9560    4.2431 C   0  0  2  0  0  0  0  0  0  0  0  0
    4.2088   -1.7660    5.2273 C   0  0  0  0  0  0  0  0  0  0  0  0
    4.2900   -3.2808    5.3006 C   0  0  0  0  0  0  0  0  0  0  0  0
    5.0007   -0.9507    5.9274 C   0  0  0  0  0  0  0  0  0  0  0  0
    4.7898    0.4931    5.5869 C   0  0  0  0  0  0  0  0  0  0  0  0
    3.4799    0.5013    4.7531 C   0  0  2  0  0  0  0  0  0  0  0  0
    2.2339    1.2644    5.4490 C   0  0  2  0  0  0  0  0  0  0  0  0
    2.8354    2.7119    5.4776 C   0  0  0  0  0  0  0  0  0  0  0  0
    2.9945    3.2994    4.3912 O   0  0  0  0  0  0  0  0  0  0  0  0
    3.2143    3.1894    6.5692 O   0  0  0  0  0  0  0  0  0  0  0  0
    2.7074   -1.5384    8.5709 H   0  0  0  0  0  0  0  0  0  0  0  0
    2.5168   -3.0344    7.5969 H   0  0  0  0  0  0  0  0  0  0  0  0
    2.2821   -3.0838    9.3416 H   0  0  0  0  0  0  0  0  0  0  0  0
    2.1779   -1.3600    6.3914 H   0  0  0  0  0  0  0  0  0  0  0  0
    2.7666    1.8004    8.4106 H   0  0  0  0  0  0  0  0  0  0  0  0
    3.4264    0.2237    7.9754 H   0  0  0  0  0  0  0  0  0  0  0  0
    1.9669    0.3492    8.9087 H   0  0  0  0  0  0  0  0  0  0  0  0
   -0.1860    1.2481    7.9027 H   0  0  0  0  0  0  0  0  0  0  0  0
   -0.7108    3.4004    7.4910 H   0  0  0  0  0  0  0  0  0  0  0  0
    0.9779    3.5798    7.6244 H   0  0  0  0  0  0  0  0  0  0  0  0
   -0.6205    4.7409    5.7528 H   0  0  0  0  0  0  0  0  0  0  0  0
    1.0370    4.6334    5.5894 H   0  0  0  0  0  0  0  0  0  0  0  0
    1.2925    2.0487    2.9756 H   0  0  0  0  0  0  0  0  0  0  0  0
   -2.6568    2.2854    2.1764 H   0  0  0  0  0  0  0  0  0  0  0  0
    0.5868    4.0946    3.4947 H   0  0  0  0  0  0  0  0  0  0  0  0
   -0.7449    0.5797    2.2603 H   0  0  0  0  0  0  0  0  0  0  0  0
   -1.0362    0.3352    6.0705 H   0  0  0  0  0  0  0  0  0  0  0  0
   -1.2437    1.8727    5.5367 H   0  0  0  0  0  0  0  0  0  0  0  0
   -0.5410   -1.1121    3.5700 H   0  0  0  0  0  0  0  0  0  0  0  0
    2.4733   -3.3413    3.2181 H   0  0  0  0  0  0  0  0  0  0  0  0
    0.7573   -3.1119    3.2285 H   0  0  0  0  0  0  0  0  0  0  0  0
    1.5802   -3.3189    4.7515 H   0  0  0  0  0  0  0  0  0  0  0  0
    2.3736   -1.4202    1.7038 H   0  0  0  0  0  0  0  0  0  0  0  0
    1.9697    0.1857    2.2239 H   0  0  0  0  0  0  0  0  0  0  0  0
    0.7020   -1.0275    2.0028 H   0  0  0  0  0  0  0  0  0  0  0  0
    3.9559   -1.0523    3.3434 H   0  0  0  0  0  0  0  0  0  0  0  0
    4.3936   -3.7221    4.3122 H   0  0  0  0  0  0  0  0  0  0  0  0
    3.4147   -3.7065    5.7906 H   0  0  0  0  0  0  0  0  0  0  0  0
    5.1538   -3.5913    5.8936 H   0  0  0  0  0  0  0  0  0  0  0  0
    5.7571   -1.2724    6.6313 H   0  0  0  0  0  0  0  0  0  0  0  0
    4.7717    1.1066    6.4873 H   0  0  0  0  0  0  0  0  0  0  0  0
    5.6300    0.8376    4.9878 H   0  0  0  0  0  0  0  0  0  0  0  0
    3.6907    1.0471    3.8318 H   0  0  0  0  0  0  0  0  0  0  0  0
  1  2  1  0
  1 34  1  0
  1 35  1  0
  1 36  1  0
  2  3  2  0
  2  4  1  0
  4  5  1  0
  5 19  1  0
  5  6  1  0
  5 37  1  6
  6 30  1  0
  6  7  1  1
  6  8  1  0
  7 38  1  0
  7 39  1  0
  7 40  1  0
  8 18  1  0
  8  9  1  0
  8 41  1  1
  9 10  1  0
  9 42  1  0
  9 43  1  0
 10 44  1  0
 10 45  1  0
 10 11  1  0
 11 16  1  0
 11 48  1  6
 11 12  1  0
 12 13  2  0
 12 14  1  0
 14 15  2  0
 14 47  1  0
 15 49  1  0
 15 16  1  0
 16 17  1  0
 16 46  1  6
 17 30  1  0
 17 18  1  1
 17 19  1  0
 18 50  1  0
 18 51  1  0
 19 20  1  1
 19 21  1  0
 20 52  1  0
 21 22  1  0
 21 23  1  0
 21 24  1  0
 22 53  1  0
 22 54  1  0
 22 55  1  0
 23 56  1  0
 23 57  1  0
 23 58  1  0
 24 29  1  0
 24 25  1  0
 24 59  1  6
 25 26  1  0
 25 27  2  0
 26 60  1  0
 26 61  1  0
 26 62  1  0
 27 28  1  0
 27 63  1  0
 28 29  1  0
 28 64  1  0
 28 65  1  0
 29 30  1  0
 29 66  1  6
 30 31  1  1
 31 32  2  0
 31 33  1  0
M  CHG  1  33  -1
M  END
>  <i_m_ct_stereo_status>  (308) 
1

>  <s_m_source_file>  (308) 
/var/tmp/pbs.5076255.sched01/tmpebi1rvwe/120qlbjc4nh.sdf

>  <i_m_source_file_index>  (308) 
21

>  <i_lp_mmshare_version>  (308) 
48012

>  <i_f3d_flags>  (308) 
0

>  <s_epik_input>  (308) 
W0NIM11DKD1PKU9bQ0BIXTFbQ0BdMihbT0hdKUMoW0NIM10pKFtDSDNdKVtDQEhdKEMoW0NIM10pPVtDSF1bQ0gyXTMpW0NASF0zW0NAXTQoQyg9TylbT0hdKVtDQEBdMShbQ0gzXSlbQ0BIXShbQ0gyXTUpW0NIMl1bQ0gyXVtDQEBIXShDNltDQEBdMjQ1KUMoPU8pW0NIMl1bQ0hdPTY=

>  <s_epik_cmdline>  (308) 
J2VwaWtfcHl0aG9uJywgJy1waHQnLCAnMi4wJywgJy1waCcsICc3LjAnLCAnLXRuJywgJzgnLCAnLW1hJywgJzIwMCcsICctaW1hZScsICc8aW5maWxlLm1hZT4nLCAnLW9tYWUnLCAnPG91dGZpbGUubWFlPic=

>  <r_lp_tautomer_probability>  (308) 
0.499977

>  <r_epik_Ionization_Penalty>  (308) 
0.00291168

>  <r_epik_Ionization_Penalty_Charging>  (308) 
0.00291165

>  <r_epik_Ionization_Penalty_Neutral>  (308) 
3.3714e-08

>  <r_epik_State_Penalty>  (308) 
0.461454

>  <r_epik_Charging_Adjusted_Penalty>  (308) 
0.464366

>  <i_epik_Tot_Q>  (308) 
-1

>  <i_epik_Tot_abs_Q>  (308) 
1

>  <s_epik_Chemistry_Notes>  (308) 
This compound has an ester and may undergo hydrolysis at high or low pH.

>  <s_lp_Force_Field>  (308) 
OPLS3e

>  <r_lp_Energy>  (308) 
134.278

>  <b_lp_Chiralities_Consistent>  (308) 
1

>  <s_lp_Variant>  (308) 
105:0-3

>  <s_i_glide_gridfile>  (308) 
pfpi4k_grid

>  <i_i_glide_lignum>  (308) 
21

>  <i_i_glide_rotatable_bonds>  (308) 
4

>  <r_i_docking_score>  (308) 
-2.97278

>  <r_i_glide_ligand_efficiency>  (308) 
-0.0900843

>  <r_i_glide_ligand_efficiency_sa>  (308) 
-0.288948

>  <r_i_glide_ligand_efficiency_ln>  (308) 
-0.661131

>  <r_i_glide_gscore>  (308) 
-2.97278

>  <r_i_glide_lipo>  (308) 
-0.0681195

>  <r_i_glide_hbond>  (308) 
-0.32

>  <r_i_glide_metal>  (308) 
-0

>  <r_i_glide_rewards>  (308) 
-0.316723

>  <r_i_glide_evdw>  (308) 
-21.9289

>  <r_i_glide_ecoul>  (308) 
-7.68822

>  <r_i_glide_erotb>  (308) 
0.0975863

>  <r_i_glide_esite>  (308) 
-0.11585

>  <r_i_glide_emodel>  (308) 
-32.352

>  <r_i_glide_energy>  (308) 
-29.6171

>  <r_i_glide_einternal>  (308) 
5.57267

>  <r_i_glide_intrahb_reward>  (308) 
-0

>  <i_i_glide_confnum>  (308) 
4

>  <i_i_glide_posenum>  (308) 
13

>  <r_i_glide_eff_state_penalty>  (308) 
0

>  <ligand_id>  (308) 
105

>  <original_smiles>  (308) 
CC(=O)OC1C2(C)C3CCC4C(=O)CC=C4C4(C3)C1(O)C(C)(C)C1C(C)=CCC1C24C(=O)O

>  <smiles>  (308) 
[H]OC12C([H])(OC(=O)C([H])([H])[H])C3(C([H])([H])[H])C4([H])C([H])([H])C([H])([H])C5([H])C(=O)C([H])=C([H])C5([H])C1(C4([H])[H])C3(C(=O)[O-])C1([H])C([H])([H])C([H])=C(C([H])([H])[H])C1([H])C2(C([H])([H])[H])C([H])([H])[H]

$$$$
105:2:1
     RDKit          3D

 66 71  0  0  1  0  0  0  0  0999 V2000
    1.8938    6.7494    4.3918 C   0  0  0  0  0  0  0  0  0  0  0  0
    1.0723    5.5466    4.8281 C   0  0  0  0  0  0  0  0  0  0  0  0
   -0.1529    5.6158    4.9332 O   0  0  0  0  0  0  0  0  0  0  0  0
    1.8398    4.4711    5.0843 O   0  0  0  0  0  0  0  0  0  0  0  0
    1.2852    3.2019    5.4494 C   0  0  2  0  0  0  0  0  0  0  0  0
    2.3062    2.3740    6.3578 C   0  0  2  0  0  0  0  0  0  0  0  0
    2.3606    2.9528    7.7895 C   0  0  0  0  0  0  0  0  0  0  0  0
    3.7584    2.3653    5.7000 C   0  0  1  0  0  0  0  0  0  0  0  0
    4.8943    1.3159    5.9764 C   0  0  0  0  0  0  0  0  0  0  0  0
    4.9331   -0.1231    5.2791 C   0  0  0  0  0  0  0  0  0  0  0  0
    3.9814   -0.6640    4.1017 C   0  0  2  0  0  0  0  0  0  0  0  0
    4.6404   -0.6874    2.7207 C   0  0  0  0  0  0  0  0  0  0  0  0
    5.8173   -0.9899    2.5340 O   0  0  0  0  0  0  0  0  0  0  0  0
    3.6765   -0.3180    1.6959 C   0  0  0  0  0  0  0  0  0  0  0  0
    2.5186   -0.0041    2.2787 C   0  0  0  0  0  0  0  0  0  0  0  0
    2.5069   -0.1321    3.7925 C   0  0  2  0  0  0  0  0  0  0  0  0
    2.1217    1.1783    4.5406 C   0  0  1  0  0  0  0  0  0  0  0  0
    3.3985    2.0820    4.3092 C   0  0  0  0  0  0  0  0  0  0  0  0
    0.9721    2.2242    4.2213 C   0  0  2  0  0  0  0  0  0  0  0  0
    1.1525    2.8052    2.9303 O   0  0  0  0  0  0  0  0  0  0  0  0
   -0.5247    1.7260    4.2342 C   0  0  0  0  0  0  0  0  0  0  0  0
   -1.5147    2.7640    3.6427 C   0  0  0  0  0  0  0  0  0  0  0  0
   -0.7180    0.5087    3.3019 C   0  0  0  0  0  0  0  0  0  0  0  0
   -0.9336    1.2627    5.6590 C   0  0  2  0  0  0  0  0  0  0  0  0
   -1.5594    2.1681    6.7238 C   0  0  0  0  0  0  0  0  0  0  0  0
   -2.6119    3.2273    6.4725 C   0  0  0  0  0  0  0  0  0  0  0  0
   -1.1487    1.8193    7.9419 C   0  0  0  0  0  0  0  0  0  0  0  0
   -0.1525    0.6997    7.9186 C   0  0  0  0  0  0  0  0  0  0  0  0
    0.2290    0.5724    6.4134 C   0  0  2  0  0  0  0  0  0  0  0  0
    1.7595    0.9410    6.0931 C   0  0  2  0  0  0  0  0  0  0  0  0
    2.4580   -0.2136    6.8912 C   0  0  0  0  0  0  0  0  0  0  0  0
    3.0349    0.0553    7.9667 O   0  0  0  0  0  0  0  0  0  0  0  0
    2.3076   -1.3873    6.4786 O   0  0  0  0  0  0  0  0  0  0  0  0
    2.5328    6.4791    3.5505 H   0  0  0  0  0  0  0  0  0  0  0  0
    2.5207    7.0921    5.2161 H   0  0  0  0  0  0  0  0  0  0  0  0
    1.2429    7.5659    4.0798 H   0  0  0  0  0  0  0  0  0  0  0  0
    0.3936    3.4096    6.0314 H   0  0  0  0  0  0  0  0  0  0  0  0
    3.0535    2.4172    8.4392 H   0  0  0  0  0  0  0  0  0  0  0  0
    1.3855    2.9690    8.2732 H   0  0  0  0  0  0  0  0  0  0  0  0
    2.7116    3.9842    7.7646 H   0  0  0  0  0  0  0  0  0  0  0  0
    4.1955    3.3599    5.7862 H   0  0  0  0  0  0  0  0  0  0  0  0
    5.8200    1.8028    5.6637 H   0  0  0  0  0  0  0  0  0  0  0  0
    5.0409    1.2101    7.0507 H   0  0  0  0  0  0  0  0  0  0  0  0
    5.9662   -0.2664    4.9627 H   0  0  0  0  0  0  0  0  0  0  0  0
    4.8784   -0.8570    6.0792 H   0  0  0  0  0  0  0  0  0  0  0  0
    1.8063   -0.9256    4.0438 H   0  0  0  0  0  0  0  0  0  0  0  0
    3.8896   -0.3178    0.6353 H   0  0  0  0  0  0  0  0  0  0  0  0
    3.8686   -1.7251    4.3253 H   0  0  0  0  0  0  0  0  0  0  0  0
    1.6425    0.2930    1.7228 H   0  0  0  0  0  0  0  0  0  0  0  0
    3.2640    3.0331    3.8050 H   0  0  0  0  0  0  0  0  0  0  0  0
    4.2141    1.7159    3.6976 H   0  0  0  0  0  0  0  0  0  0  0  0
    0.4186    3.3723    2.7220 H   0  0  0  0  0  0  0  0  0  0  0  0
   -2.5491    2.4477    3.7897 H   0  0  0  0  0  0  0  0  0  0  0  0
   -1.3932    2.8815    2.5640 H   0  0  0  0  0  0  0  0  0  0  0  0
   -1.3960    3.7504    4.0723 H   0  0  0  0  0  0  0  0  0  0  0  0
   -1.7729    0.2279    3.2569 H   0  0  0  0  0  0  0  0  0  0  0  0
   -0.1931   -0.3779    3.6487 H   0  0  0  0  0  0  0  0  0  0  0  0
   -0.4110    0.7219    2.2777 H   0  0  0  0  0  0  0  0  0  0  0  0
   -1.7332    0.5306    5.5333 H   0  0  0  0  0  0  0  0  0  0  0  0
   -3.4032    2.8540    5.8252 H   0  0  0  0  0  0  0  0  0  0  0  0
   -2.1740    4.1210    6.0327 H   0  0  0  0  0  0  0  0  0  0  0  0
   -3.0760    3.5306    7.4138 H   0  0  0  0  0  0  0  0  0  0  0  0
   -1.5006    2.2562    8.8670 H   0  0  0  0  0  0  0  0  0  0  0  0
    0.6760    0.9085    8.5928 H   0  0  0  0  0  0  0  0  0  0  0  0
   -0.6111   -0.2203    8.2680 H   0  0  0  0  0  0  0  0  0  0  0  0
    0.0966   -0.4727    6.1310 H   0  0  0  0  0  0  0  0  0  0  0  0
  1  2  1  0
  1 34  1  0
  1 35  1  0
  1 36  1  0
  2  3  2  0
  2  4  1  0
  4  5  1  0
  5 19  1  0
  5  6  1  0
  5 37  1  1
  6 30  1  0
  6  7  1  1
  6  8  1  0
  7 38  1  0
  7 39  1  0
  7 40  1  0
  8 18  1  0
  8  9  1  0
  8 41  1  6
  9 10  1  0
  9 42  1  0
  9 43  1  0
 10 44  1  0
 10 45  1  0
 10 11  1  0
 11 16  1  0
 11 48  1  1
 11 12  1  0
 12 13  2  0
 12 14  1  0
 14 15  2  0
 14 47  1  0
 15 49  1  0
 15 16  1  0
 16 17  1  0
 16 46  1  6
 17 30  1  0
 17 18  1  1
 17 19  1  0
 18 50  1  0
 18 51  1  0
 19 20  1  6
 19 21  1  0
 20 52  1  0
 21 22  1  0
 21 23  1  0
 21 24  1  0
 22 53  1  0
 22 54  1  0
 22 55  1  0
 23 56  1  0
 23 57  1  0
 23 58  1  0
 24 29  1  0
 24 25  1  0
 24 59  1  6
 25 26  1  0
 25 27  2  0
 26 60  1  0
 26 61  1  0
 26 62  1  0
 27 28  1  0
 27 63  1  0
 28 29  1  0
 28 64  1  0
 28 65  1  0
 29 30  1  0
 29 66  1  6
 30 31  1  1
 31 32  2  0
 31 33  1  0
M  CHG  1  33  -1
M  END
>  <i_m_ct_stereo_status>  (309) 
1

>  <s_m_source_file>  (309) 
/var/tmp/pbs.5076255.sched01/tmpebi1rvwe/120qlbjc4nh.sdf

>  <i_m_source_file_index>  (309) 
21

>  <i_lp_mmshare_version>  (309) 
48012

>  <i_f3d_flags>  (309) 
0

>  <s_epik_input>  (309) 
W0NIM11DKD1PKU9bQ0BIXTFbQ0BdMihbT0hdKUMoW0NIM10pKFtDSDNdKVtDQEhdKEMoW0NIM10pPVtDSF1bQ0gyXTMpW0NASF0zW0NAXTQoQyg9TylbT0hdKVtDQEBdMShbQ0gzXSlbQ0BIXShbQ0gyXTUpW0NIMl1bQ0gyXVtDQEBIXShDNltDQEBdMjQ1KUMoPU8pW0NIMl1bQ0hdPTY=

>  <s_epik_cmdline>  (309) 
J2VwaWtfcHl0aG9uJywgJy1waHQnLCAnMi4wJywgJy1waCcsICc3LjAnLCAnLXRuJywgJzgnLCAnLW1hJywgJzIwMCcsICctaW1hZScsICc8aW5maWxlLm1hZT4nLCAnLW9tYWUnLCAnPG91dGZpbGUubWFlPic=

>  <r_lp_tautomer_probability>  (309) 
0.499977

>  <r_epik_Ionization_Penalty>  (309) 
0.00291168

>  <r_epik_Ionization_Penalty_Charging>  (309) 
0.00291165

>  <r_epik_Ionization_Penalty_Neutral>  (309) 
3.3714e-08

>  <r_epik_State_Penalty>  (309) 
0.461454

>  <r_epik_Charging_Adjusted_Penalty>  (309) 
0.464366

>  <i_epik_Tot_Q>  (309) 
-1

>  <i_epik_Tot_abs_Q>  (309) 
1

>  <s_epik_Chemistry_Notes>  (309) 
This compound has an ester and may undergo hydrolysis at high or low pH.

>  <s_lp_Force_Field>  (309) 
OPLS3e

>  <r_lp_Energy>  (309) 
134.278

>  <b_lp_Chiralities_Consistent>  (309) 
1

>  <s_lp_Variant>  (309) 
105:0-3

>  <s_i_glide_gridfile>  (309) 
pfpi4k_grid

>  <i_i_glide_lignum>  (309) 
21

>  <i_i_glide_rotatable_bonds>  (309) 
4

>  <r_i_docking_score>  (309) 
-2.229

>  <r_i_glide_ligand_efficiency>  (309) 
-0.0675454

>  <r_i_glide_ligand_efficiency_sa>  (309) 
-0.216654

>  <r_i_glide_ligand_efficiency_ln>  (309) 
-0.495718

>  <r_i_glide_gscore>  (309) 
-2.229

>  <r_i_glide_lipo>  (309) 
-0.191442

>  <r_i_glide_hbond>  (309) 
0

>  <r_i_glide_metal>  (309) 
-0

>  <r_i_glide_rewards>  (309) 
-0.432714

>  <r_i_glide_evdw>  (309) 
-27.2103

>  <r_i_glide_ecoul>  (309) 
-2.13428

>  <r_i_glide_erotb>  (309) 
0.0975863

>  <r_i_glide_esite>  (309) 
-0.0217717

>  <r_i_glide_emodel>  (309) 
-33.5547

>  <r_i_glide_energy>  (309) 
-29.3446

>  <r_i_glide_einternal>  (309) 
0.250998

>  <r_i_glide_intrahb_reward>  (309) 
-0

>  <i_i_glide_confnum>  (309) 
3

>  <i_i_glide_posenum>  (309) 
9

>  <r_i_glide_eff_state_penalty>  (309) 
0

>  <ligand_id>  (309) 
105

>  <original_smiles>  (309) 
CC(=O)OC1C2(C)C3CCC4C(=O)CC=C4C4(C3)C1(O)C(C)(C)C1C(C)=CCC1C24C(=O)O

>  <smiles>  (309) 
[H]OC12C([H])(OC(=O)C([H])([H])[H])C3(C([H])([H])[H])C4([H])C([H])([H])C([H])([H])C5([H])C(=O)C([H])=C([H])C5([H])C1(C4([H])[H])C3(C(=O)[O-])C1([H])C([H])([H])C([H])=C(C([H])([H])[H])C1([H])C2(C([H])([H])[H])C([H])([H])[H]

$$$$
105:2:2
     RDKit          3D

 66 71  0  0  1  0  0  0  0  0999 V2000
   -1.4508   -4.1459    7.3082 C   0  0  0  0  0  0  0  0  0  0  0  0
   -0.2151   -3.5834    6.6253 C   0  0  0  0  0  0  0  0  0  0  0  0
    0.5211   -4.3159    5.9766 O   0  0  0  0  0  0  0  0  0  0  0  0
   -0.0636   -2.2574    6.8339 O   0  0  0  0  0  0  0  0  0  0  0  0
    1.0491   -1.5168    6.2996 C   0  0  2  0  0  0  0  0  0  0  0  0
    1.2326   -0.1426    7.0962 C   0  0  2  0  0  0  0  0  0  0  0  0
    1.8215   -0.3990    8.5024 C   0  0  0  0  0  0  0  0  0  0  0  0
   -0.1592    0.6316    7.2014 C   0  0  1  0  0  0  0  0  0  0  0  0
   -0.3563    2.1665    7.4559 C   0  0  0  0  0  0  0  0  0  0  0  0
   -0.2172    3.2612    6.3007 C   0  0  0  0  0  0  0  0  0  0  0  0
   -0.0489    3.0007    4.7233 C   0  0  2  0  0  0  0  0  0  0  0  0
   -1.3285    3.2370    3.9145 C   0  0  0  0  0  0  0  0  0  0  0  0
   -2.1247    4.1421    4.1409 O   0  0  0  0  0  0  0  0  0  0  0  0
   -1.4306    2.2384    2.8589 C   0  0  0  0  0  0  0  0  0  0  0  0
   -0.4022    1.3935    2.9414 C   0  0  0  0  0  0  0  0  0  0  0  0
    0.5654    1.6797    4.0721 C   0  0  2  0  0  0  0  0  0  0  0  0
    0.7481    0.4908    5.0631 C   0  0  1  0  0  0  0  0  0  0  0  0
   -0.6413    0.4726    5.8250 C   0  0  0  0  0  0  0  0  0  0  0  0
    0.9365   -1.0587    4.7710 C   0  0  2  0  0  0  0  0  0  0  0  0
   -0.1836   -1.6221    4.0957 O   0  0  0  0  0  0  0  0  0  0  0  0
    2.1802   -1.5155    3.9044 C   0  0  0  0  0  0  0  0  0  0  0  0
    2.1078   -2.9941    3.4441 C   0  0  0  0  0  0  0  0  0  0  0  0
    2.2473   -0.7556    2.5532 C   0  0  0  0  0  0  0  0  0  0  0  0
    3.4994   -1.2069    4.6583 C   0  0  2  0  0  0  0  0  0  0  0  0
    4.1984   -2.1751    5.6217 C   0  0  0  0  0  0  0  0  0  0  0  0
    4.3615   -3.6675    5.4163 C   0  0  0  0  0  0  0  0  0  0  0  0
    4.7852   -1.5049    6.6118 C   0  0  0  0  0  0  0  0  0  0  0  0
    4.5508   -0.0293    6.5316 C   0  0  0  0  0  0  0  0  0  0  0  0
    3.4292    0.1150    5.4586 C   0  0  2  0  0  0  0  0  0  0  0  0
    2.0279    0.6648    6.0295 C   0  0  2  0  0  0  0  0  0  0  0  0
    2.4937    2.0949    6.4683 C   0  0  0  0  0  0  0  0  0  0  0  0
    2.6405    2.3388    7.6860 O   0  0  0  0  0  0  0  0  0  0  0  0
    2.8149    2.9098    5.5749 O   0  0  0  0  0  0  0  0  0  0  0  0
   -2.3375   -3.5779    7.0238 H   0  0  0  0  0  0  0  0  0  0  0  0
   -1.3133   -4.1118    8.3895 H   0  0  0  0  0  0  0  0  0  0  0  0
   -1.5925   -5.1834    7.0076 H   0  0  0  0  0  0  0  0  0  0  0  0
    1.9229   -2.1354    6.4528 H   0  0  0  0  0  0  0  0  0  0  0  0
    1.9504    0.5140    9.0833 H   0  0  0  0  0  0  0  0  0  0  0  0
    2.7767   -0.9174    8.4669 H   0  0  0  0  0  0  0  0  0  0  0  0
    1.1479   -1.0280    9.0840 H   0  0  0  0  0  0  0  0  0  0  0  0
   -0.8013    0.1033    7.9015 H   0  0  0  0  0  0  0  0  0  0  0  0
   -1.3803    2.2686    7.8153 H   0  0  0  0  0  0  0  0  0  0  0  0
    0.2320    2.4659    8.3208 H   0  0  0  0  0  0  0  0  0  0  0  0
   -1.0597    3.9388    6.4379 H   0  0  0  0  0  0  0  0  0  0  0  0
    0.6014    3.9176    6.5924 H   0  0  0  0  0  0  0  0  0  0  0  0
    1.5214    1.9402    3.6210 H   0  0  0  0  0  0  0  0  0  0  0  0
   -2.2087    2.2317    2.1055 H   0  0  0  0  0  0  0  0  0  0  0  0
    0.5969    3.8148    4.3874 H   0  0  0  0  0  0  0  0  0  0  0  0
   -0.2424    0.5974    2.2355 H   0  0  0  0  0  0  0  0  0  0  0  0
   -1.2310   -0.4375    5.7860 H   0  0  0  0  0  0  0  0  0  0  0  0
   -1.4255    1.1661    5.5415 H   0  0  0  0  0  0  0  0  0  0  0  0
   -0.1651   -1.3113    3.2013 H   0  0  0  0  0  0  0  0  0  0  0  0
    3.0313   -3.3000    2.9510 H   0  0  0  0  0  0  0  0  0  0  0  0
    1.3105   -3.1590    2.7200 H   0  0  0  0  0  0  0  0  0  0  0  0
    1.9306   -3.6756    4.2625 H   0  0  0  0  0  0  0  0  0  0  0  0
    3.0580   -1.1490    1.9331 H   0  0  0  0  0  0  0  0  0  0  0  0
    2.4566    0.3056    2.6678 H   0  0  0  0  0  0  0  0  0  0  0  0
    1.3380   -0.8760    1.9636 H   0  0  0  0  0  0  0  0  0  0  0  0
    4.2758   -1.0961    3.8998 H   0  0  0  0  0  0  0  0  0  0  0  0
    4.6788   -3.8954    4.3990 H   0  0  0  0  0  0  0  0  0  0  0  0
    3.4392   -4.1996    5.6469 H   0  0  0  0  0  0  0  0  0  0  0  0
    5.1224   -4.0672    6.0925 H   0  0  0  0  0  0  0  0  0  0  0  0
    5.4146   -1.9453    7.3745 H   0  0  0  0  0  0  0  0  0  0  0  0
    4.3105    0.3737    7.5137 H   0  0  0  0  0  0  0  0  0  0  0  0
    5.4657    0.4558    6.1953 H   0  0  0  0  0  0  0  0  0  0  0  0
    3.7773    0.8485    4.7278 H   0  0  0  0  0  0  0  0  0  0  0  0
  1  2  1  0
  1 34  1  0
  1 35  1  0
  1 36  1  0
  2  3  2  0
  2  4  1  0
  4  5  1  0
  5 19  1  0
  5  6  1  0
  5 37  1  6
  6 30  1  0
  6  7  1  1
  6  8  1  0
  7 38  1  0
  7 39  1  0
  7 40  1  0
  8 18  1  0
  8  9  1  0
  8 41  1  1
  9 10  1  0
  9 42  1  0
  9 43  1  0
 10 44  1  0
 10 45  1  0
 10 11  1  0
 11 16  1  0
 11 48  1  6
 11 12  1  0
 12 13  2  0
 12 14  1  0
 14 15  2  0
 14 47  1  0
 15 49  1  0
 15 16  1  0
 16 17  1  0
 16 46  1  6
 17 30  1  0
 17 18  1  1
 17 19  1  0
 18 50  1  0
 18 51  1  0
 19 20  1  6
 19 21  1  0
 20 52  1  0
 21 22  1  0
 21 23  1  0
 21 24  1  0
 22 53  1  0
 22 54  1  0
 22 55  1  0
 23 56  1  0
 23 57  1  0
 23 58  1  0
 24 29  1  0
 24 25  1  0
 24 59  1  6
 25 26  1  0
 25 27  2  0
 26 60  1  0
 26 61  1  0
 26 62  1  0
 27 28  1  0
 27 63  1  0
 28 29  1  0
 28 64  1  0
 28 65  1  0
 29 30  1  0
 29 66  1  6
 30 31  1  1
 31 32  2  0
 31 33  1  0
M  CHG  1  33  -1
M  END
>  <i_m_ct_stereo_status>  (310) 
1

>  <s_m_source_file>  (310) 
/var/tmp/pbs.5076255.sched01/tmpebi1rvwe/120qlbjc4nh.sdf

>  <i_m_source_file_index>  (310) 
21

>  <i_lp_mmshare_version>  (310) 
48012

>  <i_f3d_flags>  (310) 
0

>  <s_epik_input>  (310) 
W0NIM11DKD1PKU9bQ0BIXTFbQ0BdMihbT0hdKUMoW0NIM10pKFtDSDNdKVtDQEhdKEMoW0NIM10pPVtDSF1bQ0gyXTMpW0NASF0zW0NAXTQoQyg9TylbT0hdKVtDQEBdMShbQ0gzXSlbQ0BIXShbQ0gyXTUpW0NIMl1bQ0gyXVtDQEBIXShDNltDQEBdMjQ1KUMoPU8pW0NIMl1bQ0hdPTY=

>  <s_epik_cmdline>  (310) 
J2VwaWtfcHl0aG9uJywgJy1waHQnLCAnMi4wJywgJy1waCcsICc3LjAnLCAnLXRuJywgJzgnLCAnLW1hJywgJzIwMCcsICctaW1hZScsICc8aW5maWxlLm1hZT4nLCAnLW9tYWUnLCAnPG91dGZpbGUubWFlPic=

>  <r_lp_tautomer_probability>  (310) 
0.499977

>  <r_epik_Ionization_Penalty>  (310) 
0.00291168

>  <r_epik_Ionization_Penalty_Charging>  (310) 
0.00291165

>  <r_epik_Ionization_Penalty_Neutral>  (310) 
3.3714e-08

>  <r_epik_State_Penalty>  (310) 
0.461454

>  <r_epik_Charging_Adjusted_Penalty>  (310) 
0.464366

>  <i_epik_Tot_Q>  (310) 
-1

>  <i_epik_Tot_abs_Q>  (310) 
1

>  <s_epik_Chemistry_Notes>  (310) 
This compound has an ester and may undergo hydrolysis at high or low pH.

>  <s_lp_Force_Field>  (310) 
OPLS3e

>  <r_lp_Energy>  (310) 
134.278

>  <b_lp_Chiralities_Consistent>  (310) 
1

>  <s_lp_Variant>  (310) 
105:0-3

>  <s_i_glide_gridfile>  (310) 
pfpi4k_grid

>  <i_i_glide_lignum>  (310) 
21

>  <i_i_glide_rotatable_bonds>  (310) 
4

>  <r_i_docking_score>  (310) 
-1.98504

>  <r_i_glide_ligand_efficiency>  (310) 
-0.0601527

>  <r_i_glide_ligand_efficiency_sa>  (310) 
-0.192942

>  <r_i_glide_ligand_efficiency_ln>  (310) 
-0.441463

>  <r_i_glide_gscore>  (310) 
-1.98504

>  <r_i_glide_lipo>  (310) 
-0.00735226

>  <r_i_glide_hbond>  (310) 
-0.0682282

>  <r_i_glide_metal>  (310) 
-0

>  <r_i_glide_rewards>  (310) 
-0.316723

>  <r_i_glide_evdw>  (310) 
-23.9354

>  <r_i_glide_ecoul>  (310) 
-2.81095

>  <r_i_glide_erotb>  (310) 
0.0975863

>  <r_i_glide_esite>  (310) 
-0.0719104

>  <r_i_glide_emodel>  (310) 
-30.3078

>  <r_i_glide_energy>  (310) 
-26.7464

>  <r_i_glide_einternal>  (310) 
0.145064

>  <r_i_glide_intrahb_reward>  (310) 
-0

>  <i_i_glide_confnum>  (310) 
1

>  <i_i_glide_posenum>  (310) 
31

>  <r_i_glide_eff_state_penalty>  (310) 
0

>  <ligand_id>  (310) 
105

>  <original_smiles>  (310) 
CC(=O)OC1C2(C)C3CCC4C(=O)CC=C4C4(C3)C1(O)C(C)(C)C1C(C)=CCC1C24C(=O)O

>  <smiles>  (310) 
[H]OC12C([H])(OC(=O)C([H])([H])[H])C3(C([H])([H])[H])C4([H])C([H])([H])C([H])([H])C5([H])C(=O)C([H])=C([H])C5([H])C1(C4([H])[H])C3(C(=O)[O-])C1([H])C([H])([H])C([H])=C(C([H])([H])[H])C1([H])C2(C([H])([H])[H])C([H])([H])[H]

$$$$
106:0:0
     RDKit          3D

 33 35  0  0  1  0  0  0  0  0999 V2000
    6.2420   -1.4813   -0.5964 O   0  0  0  0  0  0  0  0  0  0  0  0
    5.3217   -2.2719   -0.6933 C   0  0  0  0  0  0  0  0  0  0  0  0
    4.3737   -2.2915   -1.8216 C   0  0  0  0  0  0  0  0  0  0  0  0
    4.3354   -1.2215   -2.7950 C   0  0  0  0  0  0  0  0  0  0  0  0
    3.4265   -1.4276   -3.7885 C   0  0  0  0  0  0  0  0  0  0  0  0
    2.6055   -2.9530   -3.5790 S   0  0  0  0  0  0  0  0  0  0  0  0
    3.4587   -3.2503   -2.0931 C   0  0  0  0  0  0  0  0  0  0  0  0
    5.1017   -3.2494    0.4795 C   0  0  0  0  0  0  0  0  0  0  0  0
    5.3300   -4.7425    0.0727 C   0  0  0  0  0  0  0  0  0  0  0  0
    4.9087   -5.7184    1.1992 C   0  0  0  0  0  0  0  0  0  0  0  0
    3.5730   -5.3881    1.6869 N   0  0  0  0  0  0  0  0  0  0  0  0
    2.5265   -6.3237    1.7775 C   0  0  0  0  0  0  0  0  0  0  0  0
    2.8622   -7.6167    1.6956 N   0  0  0  0  0  0  0  0  0  0  0  0
    1.8416   -8.5149    1.8273 C   0  0  0  0  0  0  0  0  0  0  0  0
    0.5312   -8.0521    2.0301 C   0  0  0  0  0  0  0  0  0  0  0  0
    0.2518   -6.7427    2.0675 N   0  0  0  0  0  0  0  0  0  0  0  0
    1.2792   -5.8483    1.9470 N   0  0  0  0  0  0  0  0  0  0  0  0
    3.4178   -4.0355    2.2272 C   0  0  0  0  0  0  0  0  0  0  0  0
    3.7303   -2.9965    1.1508 C   0  0  0  0  0  0  0  0  0  0  0  0
    4.9484   -0.3469   -2.6897 H   0  0  0  0  0  0  0  0  0  0  0  0
    3.1332   -0.7903   -4.6180 H   0  0  0  0  0  0  0  0  0  0  0  0
    3.1891   -4.1548   -1.5387 H   0  0  0  0  0  0  0  0  0  0  0  0
    5.8398   -3.0021    1.2462 H   0  0  0  0  0  0  0  0  0  0  0  0
    4.7970   -5.0553   -0.8063 H   0  0  0  0  0  0  0  0  0  0  0  0
    6.4102   -4.8865   -0.1492 H   0  0  0  0  0  0  0  0  0  0  0  0
    4.9446   -6.6958    0.7355 H   0  0  0  0  0  0  0  0  0  0  0  0
    5.6031   -5.7250    2.0310 H   0  0  0  0  0  0  0  0  0  0  0  0
    2.0848   -9.5592    1.7311 H   0  0  0  0  0  0  0  0  0  0  0  0
   -0.3044   -8.7453    2.1044 H   0  0  0  0  0  0  0  0  0  0  0  0
    2.4180   -3.8170    2.6109 H   0  0  0  0  0  0  0  0  0  0  0  0
    4.0914   -3.9071    3.0779 H   0  0  0  0  0  0  0  0  0  0  0  0
    3.6903   -1.9940    1.5789 H   0  0  0  0  0  0  0  0  0  0  0  0
    2.9093   -3.0246    0.4334 H   0  0  0  0  0  0  0  0  0  0  0  0
  1  2  2  0
  2  3  1  0
  2  8  1  0
  3  7  2  0
  3  4  1  0
  4  5  2  0
  4 20  1  0
  5  6  1  0
  5 21  1  0
  6  7  1  0
  7 22  1  0
  8 19  1  0
  8  9  1  0
  8 23  1  0
  9 10  1  0
  9 24  1  0
  9 25  1  0
 10 11  1  0
 10 26  1  0
 10 27  1  0
 11 12  1  0
 11 18  1  0
 12 17  1  0
 12 13  2  0
 13 14  1  0
 14 15  2  0
 14 28  1  0
 15 16  1  0
 15 29  1  0
 16 17  2  0
 18 19  1  0
 18 30  1  0
 18 31  1  0
 19 32  1  0
 19 33  1  0
M  END
>  <i_m_ct_stereo_status>  (311) 
1

>  <s_m_source_file>  (311) 
/var/tmp/pbs.5076255.sched01/tmpebi1rvwe/120qlbjc4nh.sdf

>  <i_m_source_file_index>  (311) 
22

>  <i_lp_mmshare_version>  (311) 
48012

>  <i_f3d_flags>  (311) 
0

>  <s_epik_input>  (311) 
W2NIXTFzW2NIXVtjSF1jMUMoPU8pW0NIXTJbQ0gyXVtDSDJdTihbQ0gyXVtDSDJdMiljM25bY0hdW2NIXW5uMw==

>  <s_epik_cmdline>  (311) 
J2VwaWtfcHl0aG9uJywgJy1waHQnLCAnMi4wJywgJy1waCcsICc3LjAnLCAnLXRuJywgJzgnLCAnLW1hJywgJzIwMCcsICctaW1hZScsICc8aW5maWxlLm1hZT4nLCAnLW9tYWUnLCAnPG91dGZpbGUubWFlPic=

>  <r_lp_tautomer_probability>  (311) 
0.9999

>  <r_epik_Ionization_Penalty>  (311) 
0.00116633

>  <r_epik_Ionization_Penalty_Charging>  (311) 
0

>  <r_epik_Ionization_Penalty_Neutral>  (311) 
0.00116633

>  <r_epik_State_Penalty>  (311) 
0.000766492

>  <r_epik_Charging_Adjusted_Penalty>  (311) 
0.000766492

>  <i_epik_Tot_Q>  (311) 
0

>  <i_epik_Tot_abs_Q>  (311) 
0

>  <s_lp_Force_Field>  (311) 
OPLS3e

>  <r_lp_Energy>  (311) 
29.8925

>  <b_lp_Chiralities_Consistent>  (311) 
1

>  <s_lp_Variant>  (311) 
106:0-1

>  <s_i_glide_gridfile>  (311) 
pfpi4k_grid

>  <i_i_glide_lignum>  (311) 
22

>  <i_i_glide_rotatable_bonds>  (311) 
3

>  <r_i_docking_score>  (311) 
-3.95627

>  <r_i_glide_ligand_efficiency>  (311) 
-0.208225

>  <r_i_glide_ligand_efficiency_sa>  (311) 
-0.555627

>  <r_i_glide_ligand_efficiency_ln>  (311) 
-1.003

>  <r_i_glide_gscore>  (311) 
-3.95627

>  <r_i_glide_lipo>  (311) 
-0.56078

>  <r_i_glide_hbond>  (311) 
-0.107862

>  <r_i_glide_metal>  (311) 
-0

>  <r_i_glide_rewards>  (311) 
-1.55242

>  <r_i_glide_evdw>  (311) 
-27.8769

>  <r_i_glide_ecoul>  (311) 
-5.73708

>  <r_i_glide_erotb>  (311) 
0.71569

>  <r_i_glide_esite>  (311) 
-0.196489

>  <r_i_glide_emodel>  (311) 
-40.3155

>  <r_i_glide_energy>  (311) 
-33.614

>  <r_i_glide_einternal>  (311) 
3.87493

>  <r_i_glide_intrahb_reward>  (311) 
-0

>  <i_i_glide_confnum>  (311) 
3

>  <i_i_glide_posenum>  (311) 
6

>  <r_i_glide_eff_state_penalty>  (311) 
0

>  <ligand_id>  (311) 
106

>  <original_smiles>  (311) 
O=C(c1ccsc1)C1CCN(c2nccnn2)CC1

>  <smiles>  (311) 
[H]c1nnc(N2C([H])([H])C([H])([H])C([H])(C(=O)c3c([H])sc([H])c3[H])C([H])([H])C2([H])[H])nc1[H]

$$$$
106:0:1
     RDKit          3D

 33 35  0  0  1  0  0  0  0  0999 V2000
    6.2381   -1.4662   -0.5596 O   0  0  0  0  0  0  0  0  0  0  0  0
    5.2796   -2.2465   -0.6133 C   0  0  0  0  0  0  0  0  0  0  0  0
    4.3028   -2.2403   -1.7184 C   0  0  0  0  0  0  0  0  0  0  0  0
    3.2829   -3.2214   -1.9450 C   0  0  0  0  0  0  0  0  0  0  0  0
    2.5925   -3.0180   -3.1043 C   0  0  0  0  0  0  0  0  0  0  0  0
    3.0887   -1.5415   -3.9115 S   0  0  0  0  0  0  0  0  0  0  0  0
    4.2981   -1.2529   -2.6812 C   0  0  0  0  0  0  0  0  0  0  0  0
    5.0750   -3.2480    0.5294 C   0  0  0  0  0  0  0  0  0  0  0  0
    5.2700   -4.7259    0.0686 C   0  0  0  0  0  0  0  0  0  0  0  0
    4.8775   -5.7161    1.1869 C   0  0  0  0  0  0  0  0  0  0  0  0
    3.5537   -5.3955    1.7422 N   0  0  0  0  0  0  0  0  0  0  0  0
    2.5103   -6.3329    1.8435 C   0  0  0  0  0  0  0  0  0  0  0  0
    2.8383   -7.6274    1.7760 N   0  0  0  0  0  0  0  0  0  0  0  0
    1.8170   -8.5189    1.8960 C   0  0  0  0  0  0  0  0  0  0  0  0
    0.5048   -8.0530    2.0790 C   0  0  0  0  0  0  0  0  0  0  0  0
    0.2335   -6.7357    2.1203 N   0  0  0  0  0  0  0  0  0  0  0  0
    1.2560   -5.8522    2.0126 N   0  0  0  0  0  0  0  0  0  0  0  0
    3.4268   -4.0477    2.3096 C   0  0  0  0  0  0  0  0  0  0  0  0
    3.7205   -2.9874    1.2505 C   0  0  0  0  0  0  0  0  0  0  0  0
    3.0920   -4.0736   -1.2930 H   0  0  0  0  0  0  0  0  0  0  0  0
    1.8021   -3.6425   -3.5026 H   0  0  0  0  0  0  0  0  0  0  0  0
    4.9185   -0.3588   -2.7202 H   0  0  0  0  0  0  0  0  0  0  0  0
    5.8398   -3.0220    1.2818 H   0  0  0  0  0  0  0  0  0  0  0  0
    4.6779   -4.9839   -0.8050 H   0  0  0  0  0  0  0  0  0  0  0  0
    6.3404   -4.8797   -0.1749 H   0  0  0  0  0  0  0  0  0  0  0  0
    4.8868   -6.7025    0.7279 H   0  0  0  0  0  0  0  0  0  0  0  0
    5.6013   -5.7427    2.0153 H   0  0  0  0  0  0  0  0  0  0  0  0
    2.0574   -9.5668    1.8357 H   0  0  0  0  0  0  0  0  0  0  0  0
   -0.3304   -8.7387    2.1777 H   0  0  0  0  0  0  0  0  0  0  0  0
    2.4326   -3.8401    2.7123 H   0  0  0  0  0  0  0  0  0  0  0  0
    4.1149   -3.9436    3.1495 H   0  0  0  0  0  0  0  0  0  0  0  0
    3.7023   -1.9895    1.6986 H   0  0  0  0  0  0  0  0  0  0  0  0
    2.8706   -2.9902    0.5704 H   0  0  0  0  0  0  0  0  0  0  0  0
  1  2  2  0
  2  3  1  0
  2  8  1  0
  3  7  2  0
  3  4  1  0
  4  5  2  0
  4 20  1  0
  5  6  1  0
  5 21  1  0
  6  7  1  0
  7 22  1  0
  8 19  1  0
  8  9  1  0
  8 23  1  0
  9 10  1  0
  9 24  1  0
  9 25  1  0
 10 11  1  0
 10 26  1  0
 10 27  1  0
 11 12  1  0
 11 18  1  0
 12 17  1  0
 12 13  2  0
 13 14  1  0
 14 15  2  0
 14 28  1  0
 15 16  1  0
 15 29  1  0
 16 17  2  0
 18 19  1  0
 18 30  1  0
 18 31  1  0
 19 32  1  0
 19 33  1  0
M  END
>  <i_m_ct_stereo_status>  (312) 
1

>  <s_m_source_file>  (312) 
/var/tmp/pbs.5076255.sched01/tmpebi1rvwe/120qlbjc4nh.sdf

>  <i_m_source_file_index>  (312) 
22

>  <i_lp_mmshare_version>  (312) 
48012

>  <i_f3d_flags>  (312) 
0

>  <s_epik_input>  (312) 
W2NIXTFzW2NIXVtjSF1jMUMoPU8pW0NIXTJbQ0gyXVtDSDJdTihbQ0gyXVtDSDJdMiljM25bY0hdW2NIXW5uMw==

>  <s_epik_cmdline>  (312) 
J2VwaWtfcHl0aG9uJywgJy1waHQnLCAnMi4wJywgJy1waCcsICc3LjAnLCAnLXRuJywgJzgnLCAnLW1hJywgJzIwMCcsICctaW1hZScsICc8aW5maWxlLm1hZT4nLCAnLW9tYWUnLCAnPG91dGZpbGUubWFlPic=

>  <r_lp_tautomer_probability>  (312) 
0.9999

>  <r_epik_Ionization_Penalty>  (312) 
0.00116633

>  <r_epik_Ionization_Penalty_Charging>  (312) 
0

>  <r_epik_Ionization_Penalty_Neutral>  (312) 
0.00116633

>  <r_epik_State_Penalty>  (312) 
0.000766492

>  <r_epik_Charging_Adjusted_Penalty>  (312) 
0.000766492

>  <i_epik_Tot_Q>  (312) 
0

>  <i_epik_Tot_abs_Q>  (312) 
0

>  <s_lp_Force_Field>  (312) 
OPLS3e

>  <r_lp_Energy>  (312) 
29.8925

>  <b_lp_Chiralities_Consistent>  (312) 
1

>  <s_lp_Variant>  (312) 
106:0-1

>  <s_i_glide_gridfile>  (312) 
pfpi4k_grid

>  <i_i_glide_lignum>  (312) 
22

>  <i_i_glide_rotatable_bonds>  (312) 
3

>  <r_i_docking_score>  (312) 
-3.81469

>  <r_i_glide_ligand_efficiency>  (312) 
-0.200773

>  <r_i_glide_ligand_efficiency_sa>  (312) 
-0.535743

>  <r_i_glide_ligand_efficiency_ln>  (312) 
-0.967105

>  <r_i_glide_gscore>  (312) 
-3.81469

>  <r_i_glide_lipo>  (312) 
-0.386431

>  <r_i_glide_hbond>  (312) 
-0.101456

>  <r_i_glide_metal>  (312) 
-0

>  <r_i_glide_rewards>  (312) 
-1.55124

>  <r_i_glide_evdw>  (312) 
-27.4228

>  <r_i_glide_ecoul>  (312) 
-6.18145

>  <r_i_glide_erotb>  (312) 
0.71569

>  <r_i_glide_esite>  (312) 
-0.19289

>  <r_i_glide_emodel>  (312) 
-39.9994

>  <r_i_glide_energy>  (312) 
-33.6042

>  <r_i_glide_einternal>  (312) 
3.91631

>  <r_i_glide_intrahb_reward>  (312) 
-0

>  <i_i_glide_confnum>  (312) 
4

>  <i_i_glide_posenum>  (312) 
39

>  <r_i_glide_eff_state_penalty>  (312) 
0

>  <ligand_id>  (312) 
106

>  <original_smiles>  (312) 
O=C(c1ccsc1)C1CCN(c2nccnn2)CC1

>  <smiles>  (312) 
[H]c1nnc(N2C([H])([H])C([H])([H])C([H])(C(=O)c3c([H])sc([H])c3[H])C([H])([H])C2([H])[H])nc1[H]

$$$$
106:0:2
     RDKit          3D

 33 35  0  0  1  0  0  0  0  0999 V2000
    3.6367   -3.6140   -0.7378 O   0  0  0  0  0  0  0  0  0  0  0  0
    4.4647   -4.0215    0.0754 C   0  0  0  0  0  0  0  0  0  0  0  0
    5.9053   -3.7997   -0.0635 C   0  0  0  0  0  0  0  0  0  0  0  0
    6.9143   -4.1410    0.8893 C   0  0  0  0  0  0  0  0  0  0  0  0
    8.1741   -3.8013    0.4893 C   0  0  0  0  0  0  0  0  0  0  0  0
    8.1702   -3.0582   -1.0835 S   0  0  0  0  0  0  0  0  0  0  0  0
    6.4349   -3.1968   -1.1800 C   0  0  0  0  0  0  0  0  0  0  0  0
    3.9854   -4.8362    1.3000 C   0  0  0  0  0  0  0  0  0  0  0  0
    3.9220   -6.3410    0.9605 C   0  0  0  0  0  0  0  0  0  0  0  0
    3.3365   -7.1814    2.1116 C   0  0  0  0  0  0  0  0  0  0  0  0
    2.0502   -6.6365    2.5536 N   0  0  0  0  0  0  0  0  0  0  0  0
    0.8947   -7.4120    2.6580 C   0  0  0  0  0  0  0  0  0  0  0  0
    1.0352   -8.7378    2.7727 N   0  0  0  0  0  0  0  0  0  0  0  0
   -0.1042   -9.4551    2.8823 C   0  0  0  0  0  0  0  0  0  0  0  0
   -1.3523   -8.8038    2.8792 C   0  0  0  0  0  0  0  0  0  0  0  0
   -1.4189   -7.4571    2.7643 N   0  0  0  0  0  0  0  0  0  0  0  0
   -0.2831   -6.7526    2.6454 N   0  0  0  0  0  0  0  0  0  0  0  0
    2.0897   -5.2279    2.9544 C   0  0  0  0  0  0  0  0  0  0  0  0
    2.6128   -4.3534    1.8076 C   0  0  0  0  0  0  0  0  0  0  0  0
    6.7088   -4.6123    1.8364 H   0  0  0  0  0  0  0  0  0  0  0  0
    9.0930   -3.9377    1.0376 H   0  0  0  0  0  0  0  0  0  0  0  0
    5.9072   -2.8502   -2.0608 H   0  0  0  0  0  0  0  0  0  0  0  0
    4.6771   -4.6979    2.1282 H   0  0  0  0  0  0  0  0  0  0  0  0
    3.3026   -6.4809    0.0749 H   0  0  0  0  0  0  0  0  0  0  0  0
    4.9142   -6.7187    0.7028 H   0  0  0  0  0  0  0  0  0  0  0  0
    3.2467   -8.2125    1.7671 H   0  0  0  0  0  0  0  0  0  0  0  0
    4.0220   -7.1997    2.9586 H   0  0  0  0  0  0  0  0  0  0  0  0
   -0.0247  -10.5309    2.9705 H   0  0  0  0  0  0  0  0  0  0  0  0
   -2.2801   -9.3499    2.9724 H   0  0  0  0  0  0  0  0  0  0  0  0
    1.1136   -4.8491    3.2523 H   0  0  0  0  0  0  0  0  0  0  0  0
    2.7245   -5.1235    3.8347 H   0  0  0  0  0  0  0  0  0  0  0  0
    2.6888   -3.3161    2.1419 H   0  0  0  0  0  0  0  0  0  0  0  0
    1.8877   -4.3728    0.9948 H   0  0  0  0  0  0  0  0  0  0  0  0
  1  2  2  0
  2  3  1  0
  2  8  1  0
  3  7  2  0
  3  4  1  0
  4  5  2  0
  4 20  1  0
  5  6  1  0
  5 21  1  0
  6  7  1  0
  7 22  1  0
  8 19  1  0
  8  9  1  0
  8 23  1  0
  9 10  1  0
  9 24  1  0
  9 25  1  0
 10 11  1  0
 10 26  1  0
 10 27  1  0
 11 12  1  0
 11 18  1  0
 12 17  1  0
 12 13  2  0
 13 14  1  0
 14 15  2  0
 14 28  1  0
 15 16  1  0
 15 29  1  0
 16 17  2  0
 18 19  1  0
 18 30  1  0
 18 31  1  0
 19 32  1  0
 19 33  1  0
M  END
>  <i_m_ct_stereo_status>  (313) 
1

>  <s_m_source_file>  (313) 
/var/tmp/pbs.5076255.sched01/tmpebi1rvwe/120qlbjc4nh.sdf

>  <i_m_source_file_index>  (313) 
22

>  <i_lp_mmshare_version>  (313) 
48012

>  <i_f3d_flags>  (313) 
0

>  <s_epik_input>  (313) 
W2NIXTFzW2NIXVtjSF1jMUMoPU8pW0NIXTJbQ0gyXVtDSDJdTihbQ0gyXVtDSDJdMiljM25bY0hdW2NIXW5uMw==

>  <s_epik_cmdline>  (313) 
J2VwaWtfcHl0aG9uJywgJy1waHQnLCAnMi4wJywgJy1waCcsICc3LjAnLCAnLXRuJywgJzgnLCAnLW1hJywgJzIwMCcsICctaW1hZScsICc8aW5maWxlLm1hZT4nLCAnLW9tYWUnLCAnPG91dGZpbGUubWFlPic=

>  <r_lp_tautomer_probability>  (313) 
0.9999

>  <r_epik_Ionization_Penalty>  (313) 
0.00116633

>  <r_epik_Ionization_Penalty_Charging>  (313) 
0

>  <r_epik_Ionization_Penalty_Neutral>  (313) 
0.00116633

>  <r_epik_State_Penalty>  (313) 
0.000766492

>  <r_epik_Charging_Adjusted_Penalty>  (313) 
0.000766492

>  <i_epik_Tot_Q>  (313) 
0

>  <i_epik_Tot_abs_Q>  (313) 
0

>  <s_lp_Force_Field>  (313) 
OPLS3e

>  <r_lp_Energy>  (313) 
29.8925

>  <b_lp_Chiralities_Consistent>  (313) 
1

>  <s_lp_Variant>  (313) 
106:0-1

>  <s_i_glide_gridfile>  (313) 
pfpi4k_grid

>  <i_i_glide_lignum>  (313) 
22

>  <i_i_glide_rotatable_bonds>  (313) 
3

>  <r_i_docking_score>  (313) 
-3.46915

>  <r_i_glide_ligand_efficiency>  (313) 
-0.182587

>  <r_i_glide_ligand_efficiency_sa>  (313) 
-0.487215

>  <r_i_glide_ligand_efficiency_ln>  (313) 
-0.879503

>  <r_i_glide_gscore>  (313) 
-3.46915

>  <r_i_glide_lipo>  (313) 
-0.58852

>  <r_i_glide_hbond>  (313) 
0

>  <r_i_glide_metal>  (313) 
-0

>  <r_i_glide_rewards>  (313) 
-1.56517

>  <r_i_glide_evdw>  (313) 
-27.4175

>  <r_i_glide_ecoul>  (313) 
-2.9187

>  <r_i_glide_erotb>  (313) 
0.71569

>  <r_i_glide_esite>  (313) 
-0.22247

>  <r_i_glide_emodel>  (313) 
-38.0198

>  <r_i_glide_energy>  (313) 
-30.3362

>  <r_i_glide_einternal>  (313) 
0.526723

>  <r_i_glide_intrahb_reward>  (313) 
-0

>  <i_i_glide_confnum>  (313) 
2

>  <i_i_glide_posenum>  (313) 
2

>  <r_i_glide_eff_state_penalty>  (313) 
0

>  <ligand_id>  (313) 
106

>  <original_smiles>  (313) 
O=C(c1ccsc1)C1CCN(c2nccnn2)CC1

>  <smiles>  (313) 
[H]c1nnc(N2C([H])([H])C([H])([H])C([H])(C(=O)c3c([H])sc([H])c3[H])C([H])([H])C2([H])[H])nc1[H]

$$$$
108:0:0
     RDKit          3D

 37 39  0  0  1  0  0  0  0  0999 V2000
    1.9039   -3.4583   -2.6099 C   0  0  0  0  0  0  0  0  0  0  0  0
    2.9940   -2.4398   -2.4949 C   0  0  0  0  0  0  0  0  0  0  0  0
    3.3011   -1.6656   -3.6278 N   0  0  0  0  0  0  0  0  0  0  0  0
    4.1917   -0.7558   -3.4300 N   0  0  0  0  0  0  0  0  0  0  0  0
    4.7915   -0.8156   -1.8703 S   0  0  0  0  0  0  0  0  0  0  0  0
    3.7517   -2.0953   -1.4017 C   0  0  0  0  0  0  0  0  0  0  0  0
    3.8186   -2.5404   -0.0188 C   0  0  0  0  0  0  0  0  0  0  0  0
    4.5241   -1.9887    0.8327 O   0  0  0  0  0  0  0  0  0  0  0  0
    3.0588   -3.6097    0.2141 O   0  0  0  0  0  0  0  0  0  0  0  0
    2.8868   -4.1690    1.5005 C   0  0  0  0  0  0  0  0  0  0  0  0
    2.2785   -5.5594    1.2827 C   0  0  0  0  0  0  0  0  0  0  0  0
    1.3547   -5.6884    0.4774 O   0  0  0  0  0  0  0  0  0  0  0  0
    2.8064   -6.6114    1.9452 N   0  0  0  0  0  0  0  0  0  0  0  0
    2.0490   -7.7504    2.3068 C   0  0  0  0  0  0  0  0  0  0  0  0
    0.6518   -7.8761    2.4325 C   0  0  0  0  0  0  0  0  0  0  0  0
    0.1015   -9.1489    2.6823 C   0  0  0  0  0  0  0  0  0  0  0  0
    0.9506  -10.2724    2.8382 C   0  0  0  0  0  0  0  0  0  0  0  0
    2.3563  -10.1224    2.7596 C   0  0  0  0  0  0  0  0  0  0  0  0
    2.8839   -8.8425    2.5084 C   0  0  0  0  0  0  0  0  0  0  0  0
    4.3239   -8.4389    2.3451 C   0  0  0  0  0  0  0  0  0  0  0  0
    4.2505   -6.9360    1.9350 C   0  0  1  0  0  0  0  0  0  0  0  0
    4.8606   -6.7269    0.5253 C   0  0  0  0  0  0  0  0  0  0  0  0
    1.6183   -3.9051   -1.6592 H   0  0  0  0  0  0  0  0  0  0  0  0
    2.2142   -4.2596   -3.2839 H   0  0  0  0  0  0  0  0  0  0  0  0
    1.0111   -3.0095   -3.0121 H   0  0  0  0  0  0  0  0  0  0  0  0
    3.7985   -4.2054    2.1002 H   0  0  0  0  0  0  0  0  0  0  0  0
    2.1681   -3.5444    2.0361 H   0  0  0  0  0  0  0  0  0  0  0  0
   -0.0045   -7.0314    2.2849 H   0  0  0  0  0  0  0  0  0  0  0  0
   -0.9739   -9.2697    2.6844 H   0  0  0  0  0  0  0  0  0  0  0  0
    0.5116  -11.2477    2.9773 H   0  0  0  0  0  0  0  0  0  0  0  0
    3.0021  -10.9881    2.8391 H   0  0  0  0  0  0  0  0  0  0  0  0
    4.8589   -8.5913    3.2819 H   0  0  0  0  0  0  0  0  0  0  0  0
    4.8043   -9.0576    1.5905 H   0  0  0  0  0  0  0  0  0  0  0  0
    4.7818   -6.3355    2.6780 H   0  0  0  0  0  0  0  0  0  0  0  0
    5.9136   -6.9986    0.4842 H   0  0  0  0  0  0  0  0  0  0  0  0
    4.8010   -5.7022    0.1588 H   0  0  0  0  0  0  0  0  0  0  0  0
    4.2995   -7.3330   -0.1859 H   0  0  0  0  0  0  0  0  0  0  0  0
  1  2  1  0
  1 23  1  0
  1 24  1  0
  1 25  1  0
  2  6  2  0
  2  3  1  0
  3  4  2  0
  4  5  1  0
  5  6  1  0
  6  7  1  0
  7  8  2  0
  7  9  1  0
  9 10  1  0
 10 11  1  0
 10 26  1  0
 10 27  1  0
 11 12  2  0
 11 13  1  0
 13 21  1  0
 13 14  1  0
 14 19  1  0
 14 15  2  0
 15 16  1  0
 15 28  1  0
 16 17  2  0
 16 29  1  0
 17 18  1  0
 17 30  1  0
 18 19  2  0
 18 31  1  0
 19 20  1  0
 20 21  1  0
 20 32  1  0
 20 33  1  0
 21 22  1  0
 21 34  1  1
 22 35  1  0
 22 36  1  0
 22 37  1  0
M  END
>  <i_m_ct_stereo_status>  (314) 
1

>  <s_m_source_file>  (314) 
/var/tmp/pbs.5076255.sched01/tmpebi1rvwe/120qlbjc4nh.sdf

>  <i_m_source_file_index>  (314) 
24

>  <i_lp_mmshare_version>  (314) 
48012

>  <i_f3d_flags>  (314) 
0

>  <s_epik_input>  (314) 
W0NIM11jMW5uc2MxQyg9TylPW0NIMl1DKD1PKU4yW0NASF0oW0NIM10pW0NIMl1jKGMyMylbY0hdW2NIXVtjSF1bY0hdMw==

>  <s_epik_cmdline>  (314) 
J2VwaWtfcHl0aG9uJywgJy1waHQnLCAnMi4wJywgJy1waCcsICc3LjAnLCAnLXRuJywgJzgnLCAnLW1hJywgJzIwMCcsICctaW1hZScsICc8aW5maWxlLm1hZT4nLCAnLW9tYWUnLCAnPG91dGZpbGUubWFlPic=

>  <r_lp_tautomer_probability>  (314) 
1

>  <r_epik_Ionization_Penalty>  (314) 
1.63271e-08

>  <r_epik_Ionization_Penalty_Charging>  (314) 
0

>  <r_epik_Ionization_Penalty_Neutral>  (314) 
1.63271e-08

>  <r_epik_State_Penalty>  (314) 
-0

>  <r_epik_Charging_Adjusted_Penalty>  (314) 
0

>  <i_epik_Tot_Q>  (314) 
0

>  <i_epik_Tot_abs_Q>  (314) 
0

>  <s_epik_Chemistry_Notes>  (314) 
This compound has an ester and may undergo hydrolysis at high or low pH.

>  <s_lp_Force_Field>  (314) 
OPLS3e

>  <r_lp_Energy>  (314) 
22.6764

>  <b_lp_Chiralities_Consistent>  (314) 
1

>  <s_lp_Variant>  (314) 
108:0-1

>  <s_i_glide_gridfile>  (314) 
pfpi4k_grid

>  <i_i_glide_lignum>  (314) 
24

>  <i_i_glide_rotatable_bonds>  (314) 
5

>  <r_i_docking_score>  (314) 
-3.20846

>  <r_i_glide_ligand_efficiency>  (314) 
-0.145839

>  <r_i_glide_ligand_efficiency_sa>  (314) 
-0.408647

>  <r_i_glide_ligand_efficiency_ln>  (314) 
-0.784265

>  <r_i_glide_gscore>  (314) 
-3.20846

>  <r_i_glide_lipo>  (314) 
-0.518519

>  <r_i_glide_hbond>  (314) 
-0.146535

>  <r_i_glide_metal>  (314) 
-0

>  <r_i_glide_rewards>  (314) 
-1.24636

>  <r_i_glide_evdw>  (314) 
-27.4347

>  <r_i_glide_ecoul>  (314) 
-5.2981

>  <r_i_glide_erotb>  (314) 
0.924834

>  <r_i_glide_esite>  (314) 
-0.0554296

>  <r_i_glide_emodel>  (314) 
-37.089

>  <r_i_glide_energy>  (314) 
-32.7328

>  <r_i_glide_einternal>  (314) 
1.13689

>  <r_i_glide_intrahb_reward>  (314) 
-0

>  <i_i_glide_confnum>  (314) 
1

>  <i_i_glide_posenum>  (314) 
3

>  <r_i_glide_eff_state_penalty>  (314) 
0

>  <ligand_id>  (314) 
108

>  <original_smiles>  (314) 
Cc1nnsc1C(=O)OCC(=O)N1c2ccccc2CC1C

>  <smiles>  (314) 
[H]c1c([H])c([H])c2c(c1[H])N(C(=O)C([H])([H])OC(=O)c1snnc1C([H])([H])[H])C([H])(C([H])([H])[H])C2([H])[H]

$$$$
108:0:1
     RDKit          3D

 37 39  0  0  1  0  0  0  0  0999 V2000
    1.9501   -5.2280    4.7424 C   0  0  0  0  0  0  0  0  0  0  0  0
    0.9328   -6.0961    4.0738 C   0  0  0  0  0  0  0  0  0  0  0  0
   -0.1355   -6.6142    4.8096 N   0  0  0  0  0  0  0  0  0  0  0  0
   -0.9796   -7.3591    4.1450 N   0  0  0  0  0  0  0  0  0  0  0  0
   -0.5270   -7.4894    2.5408 S   0  0  0  0  0  0  0  0  0  0  0  0
    0.8626   -6.4929    2.7485 C   0  0  0  0  0  0  0  0  0  0  0  0
    1.6784   -6.2570    1.5872 C   0  0  0  0  0  0  0  0  0  0  0  0
    1.2581   -6.5911    0.4693 O   0  0  0  0  0  0  0  0  0  0  0  0
    2.8569   -5.6262    1.8341 O   0  0  0  0  0  0  0  0  0  0  0  0
    3.8427   -5.2878    0.8610 C   0  0  0  0  0  0  0  0  0  0  0  0
    3.3382   -4.1897   -0.0964 C   0  0  0  0  0  0  0  0  0  0  0  0
    2.1654   -4.1715   -0.4200 O   0  0  0  0  0  0  0  0  0  0  0  0
    4.1970   -3.2131   -0.5218 N   0  0  0  0  0  0  0  0  0  0  0  0
    4.0024   -2.5655   -1.7536 C   0  0  0  0  0  0  0  0  0  0  0  0
    3.2893   -3.0159   -2.8746 C   0  0  0  0  0  0  0  0  0  0  0  0
    3.0237   -2.1393   -3.9334 C   0  0  0  0  0  0  0  0  0  0  0  0
    3.5121   -0.8103   -3.9104 C   0  0  0  0  0  0  0  0  0  0  0  0
    4.2431   -0.3698   -2.7832 C   0  0  0  0  0  0  0  0  0  0  0  0
    4.4906   -1.2615   -1.7232 C   0  0  0  0  0  0  0  0  0  0  0  0
    5.1551   -1.0044   -0.3904 C   0  0  0  0  0  0  0  0  0  0  0  0
    4.9060   -2.3191    0.4201 C   0  0  1  0  0  0  0  0  0  0  0  0
    4.0672   -2.0142    1.6991 C   0  0  0  0  0  0  0  0  0  0  0  0
    2.6248   -4.6949    4.0548 H   0  0  0  0  0  0  0  0  0  0  0  0
    2.5922   -5.8299    5.3982 H   0  0  0  0  0  0  0  0  0  0  0  0
    1.4678   -4.4451    5.3408 H   0  0  0  0  0  0  0  0  0  0  0  0
    4.6961   -4.9158    1.4063 H   0  0  0  0  0  0  0  0  0  0  0  0
    4.2091   -6.1642    0.3310 H   0  0  0  0  0  0  0  0  0  0  0  0
    2.8157   -3.9832   -2.9291 H   0  0  0  0  0  0  0  0  0  0  0  0
    2.3877   -2.5132   -4.7208 H   0  0  0  0  0  0  0  0  0  0  0  0
    3.2797   -0.1451   -4.7228 H   0  0  0  0  0  0  0  0  0  0  0  0
    4.5969    0.6513   -2.7357 H   0  0  0  0  0  0  0  0  0  0  0  0
    6.2208   -0.8269   -0.5456 H   0  0  0  0  0  0  0  0  0  0  0  0
    4.7214   -0.1283    0.0990 H   0  0  0  0  0  0  0  0  0  0  0  0
    5.8677   -2.7673    0.6995 H   0  0  0  0  0  0  0  0  0  0  0  0
    4.5615   -1.3229    2.3888 H   0  0  0  0  0  0  0  0  0  0  0  0
    3.8071   -2.8857    2.2997 H   0  0  0  0  0  0  0  0  0  0  0  0
    3.1204   -1.5665    1.4037 H   0  0  0  0  0  0  0  0  0  0  0  0
  1  2  1  0
  1 23  1  0
  1 24  1  0
  1 25  1  0
  2  6  2  0
  2  3  1  0
  3  4  2  0
  4  5  1  0
  5  6  1  0
  6  7  1  0
  7  8  2  0
  7  9  1  0
  9 10  1  0
 10 11  1  0
 10 26  1  0
 10 27  1  0
 11 12  2  0
 11 13  1  0
 13 21  1  0
 13 14  1  0
 14 19  1  0
 14 15  2  0
 15 16  1  0
 15 28  1  0
 16 17  2  0
 16 29  1  0
 17 18  1  0
 17 30  1  0
 18 19  2  0
 18 31  1  0
 19 20  1  0
 20 21  1  0
 20 32  1  0
 20 33  1  0
 21 22  1  0
 21 34  1  1
 22 35  1  0
 22 36  1  0
 22 37  1  0
M  END
>  <i_m_ct_stereo_status>  (315) 
1

>  <s_m_source_file>  (315) 
/var/tmp/pbs.5076255.sched01/tmpebi1rvwe/120qlbjc4nh.sdf

>  <i_m_source_file_index>  (315) 
24

>  <i_lp_mmshare_version>  (315) 
48012

>  <i_f3d_flags>  (315) 
0

>  <s_epik_input>  (315) 
W0NIM11jMW5uc2MxQyg9TylPW0NIMl1DKD1PKU4yW0NASF0oW0NIM10pW0NIMl1jKGMyMylbY0hdW2NIXVtjSF1bY0hdMw==

>  <s_epik_cmdline>  (315) 
J2VwaWtfcHl0aG9uJywgJy1waHQnLCAnMi4wJywgJy1waCcsICc3LjAnLCAnLXRuJywgJzgnLCAnLW1hJywgJzIwMCcsICctaW1hZScsICc8aW5maWxlLm1hZT4nLCAnLW9tYWUnLCAnPG91dGZpbGUubWFlPic=

>  <r_lp_tautomer_probability>  (315) 
1

>  <r_epik_Ionization_Penalty>  (315) 
1.63271e-08

>  <r_epik_Ionization_Penalty_Charging>  (315) 
0

>  <r_epik_Ionization_Penalty_Neutral>  (315) 
1.63271e-08

>  <r_epik_State_Penalty>  (315) 
-0

>  <r_epik_Charging_Adjusted_Penalty>  (315) 
0

>  <i_epik_Tot_Q>  (315) 
0

>  <i_epik_Tot_abs_Q>  (315) 
0

>  <s_epik_Chemistry_Notes>  (315) 
This compound has an ester and may undergo hydrolysis at high or low pH.

>  <s_lp_Force_Field>  (315) 
OPLS3e

>  <r_lp_Energy>  (315) 
22.6764

>  <b_lp_Chiralities_Consistent>  (315) 
1

>  <s_lp_Variant>  (315) 
108:0-1

>  <s_i_glide_gridfile>  (315) 
pfpi4k_grid

>  <i_i_glide_lignum>  (315) 
24

>  <i_i_glide_rotatable_bonds>  (315) 
5

>  <r_i_docking_score>  (315) 
-2.9425

>  <r_i_glide_ligand_efficiency>  (315) 
-0.13375

>  <r_i_glide_ligand_efficiency_sa>  (315) 
-0.374773

>  <r_i_glide_ligand_efficiency_ln>  (315) 
-0.719255

>  <r_i_glide_gscore>  (315) 
-2.9425

>  <r_i_glide_lipo>  (315) 
-0.516707

>  <r_i_glide_hbond>  (315) 
-0.0552076

>  <r_i_glide_metal>  (315) 
-0

>  <r_i_glide_rewards>  (315) 
-1.28834

>  <r_i_glide_evdw>  (315) 
-28.7588

>  <r_i_glide_ecoul>  (315) 
-2.80714

>  <r_i_glide_erotb>  (315) 
0.924834

>  <r_i_glide_esite>  (315) 
-0.148072

>  <r_i_glide_emodel>  (315) 
-34.5329

>  <r_i_glide_energy>  (315) 
-31.5659

>  <r_i_glide_einternal>  (315) 
0.995186

>  <r_i_glide_intrahb_reward>  (315) 
-0

>  <i_i_glide_confnum>  (315) 
4

>  <i_i_glide_posenum>  (315) 
5

>  <r_i_glide_eff_state_penalty>  (315) 
0

>  <ligand_id>  (315) 
108

>  <original_smiles>  (315) 
Cc1nnsc1C(=O)OCC(=O)N1c2ccccc2CC1C

>  <smiles>  (315) 
[H]c1c([H])c([H])c2c(c1[H])N(C(=O)C([H])([H])OC(=O)c1snnc1C([H])([H])[H])C([H])(C([H])([H])[H])C2([H])[H]

$$$$
108:0:2
     RDKit          3D

 37 39  0  0  1  0  0  0  0  0999 V2000
    3.8189   -1.6883   -1.8791 C   0  0  0  0  0  0  0  0  0  0  0  0
    5.1171   -1.9155   -1.1426 C   0  0  0  0  0  0  0  0  0  0  0  0
    6.1198   -2.6390   -1.7800 N   0  0  0  0  0  0  0  0  0  0  0  0
    7.2211   -2.7984   -1.0906 N   0  0  0  0  0  0  0  0  0  0  0  0
    7.1237   -2.0891    0.4198 S   0  0  0  0  0  0  0  0  0  0  0  0
    5.5355   -1.4937    0.0929 C   0  0  0  0  0  0  0  0  0  0  0  0
    4.9350   -0.6584    1.1017 C   0  0  0  0  0  0  0  0  0  0  0  0
    5.5285   -0.3500    2.1398 O   0  0  0  0  0  0  0  0  0  0  0  0
    3.6970   -0.2533    0.7663 O   0  0  0  0  0  0  0  0  0  0  0  0
    2.9253    0.6540    1.5356 C   0  0  0  0  0  0  0  0  0  0  0  0
    2.2885   -0.0182    2.7623 C   0  0  0  0  0  0  0  0  0  0  0  0
    3.0060   -0.7176    3.4939 O   0  0  0  0  0  0  0  0  0  0  0  0
    0.9662    0.1489    2.9787 N   0  0  0  0  0  0  0  0  0  0  0  0
    0.2249   -0.7099    3.8236 C   0  0  0  0  0  0  0  0  0  0  0  0
    0.5444   -2.0323    4.2302 C   0  0  0  0  0  0  0  0  0  0  0  0
   -0.2598   -2.6441    5.2117 C   0  0  0  0  0  0  0  0  0  0  0  0
   -1.3944   -1.9831    5.7250 C   0  0  0  0  0  0  0  0  0  0  0  0
   -1.7456   -0.6948    5.2497 C   0  0  0  0  0  0  0  0  0  0  0  0
   -0.9164   -0.0885    4.2813 C   0  0  0  0  0  0  0  0  0  0  0  0
   -1.0613    1.2796    3.6529 C   0  0  0  0  0  0  0  0  0  0  0  0
    0.2358    1.4389    2.8031 C   0  0  1  0  0  0  0  0  0  0  0  0
    1.0576    2.6647    3.3114 C   0  0  0  0  0  0  0  0  0  0  0  0
    3.1339   -0.9734   -1.4055 H   0  0  0  0  0  0  0  0  0  0  0  0
    3.2504   -2.6246   -1.9529 H   0  0  0  0  0  0  0  0  0  0  0  0
    4.0067   -1.2860   -2.8833 H   0  0  0  0  0  0  0  0  0  0  0  0
    3.5258    1.4629    1.9083 H   0  0  0  0  0  0  0  0  0  0  0  0
    2.1698    1.0528    0.8652 H   0  0  0  0  0  0  0  0  0  0  0  0
    1.3870   -2.5839    3.8358 H   0  0  0  0  0  0  0  0  0  0  0  0
    0.0331   -3.6185    5.5913 H   0  0  0  0  0  0  0  0  0  0  0  0
   -1.9745   -2.4779    6.4807 H   0  0  0  0  0  0  0  0  0  0  0  0
   -2.5970   -0.1643    5.6427 H   0  0  0  0  0  0  0  0  0  0  0  0
   -1.9709    1.3399    3.0518 H   0  0  0  0  0  0  0  0  0  0  0  0
   -1.1352    2.0305    4.4314 H   0  0  0  0  0  0  0  0  0  0  0  0
   -0.0484    1.5665    1.7527 H   0  0  0  0  0  0  0  0  0  0  0  0
    0.4945    3.6088    3.2960 H   0  0  0  0  0  0  0  0  0  0  0  0
    1.9870    2.8649    2.7738 H   0  0  0  0  0  0  0  0  0  0  0  0
    1.3340    2.4592    4.3425 H   0  0  0  0  0  0  0  0  0  0  0  0
  1  2  1  0
  1 23  1  0
  1 24  1  0
  1 25  1  0
  2  6  2  0
  2  3  1  0
  3  4  2  0
  4  5  1  0
  5  6  1  0
  6  7  1  0
  7  8  2  0
  7  9  1  0
  9 10  1  0
 10 11  1  0
 10 26  1  0
 10 27  1  0
 11 12  2  0
 11 13  1  0
 13 21  1  0
 13 14  1  0
 14 19  1  0
 14 15  2  0
 15 16  1  0
 15 28  1  0
 16 17  2  0
 16 29  1  0
 17 18  1  0
 17 30  1  0
 18 19  2  0
 18 31  1  0
 19 20  1  0
 20 21  1  0
 20 32  1  0
 20 33  1  0
 21 22  1  0
 21 34  1  6
 22 35  1  0
 22 36  1  0
 22 37  1  0
M  END
>  <i_m_ct_stereo_status>  (316) 
1

>  <s_m_source_file>  (316) 
/var/tmp/pbs.5076255.sched01/tmpebi1rvwe/120qlbjc4nh.sdf

>  <i_m_source_file_index>  (316) 
24

>  <i_lp_mmshare_version>  (316) 
48012

>  <i_f3d_flags>  (316) 
0

>  <s_epik_input>  (316) 
W0NIM11jMW5uc2MxQyg9TylPW0NIMl1DKD1PKU4yW0NASF0oW0NIM10pW0NIMl1jKGMyMylbY0hdW2NIXVtjSF1bY0hdMw==

>  <s_epik_cmdline>  (316) 
J2VwaWtfcHl0aG9uJywgJy1waHQnLCAnMi4wJywgJy1waCcsICc3LjAnLCAnLXRuJywgJzgnLCAnLW1hJywgJzIwMCcsICctaW1hZScsICc8aW5maWxlLm1hZT4nLCAnLW9tYWUnLCAnPG91dGZpbGUubWFlPic=

>  <r_lp_tautomer_probability>  (316) 
1

>  <r_epik_Ionization_Penalty>  (316) 
1.63271e-08

>  <r_epik_Ionization_Penalty_Charging>  (316) 
0

>  <r_epik_Ionization_Penalty_Neutral>  (316) 
1.63271e-08

>  <r_epik_State_Penalty>  (316) 
-0

>  <r_epik_Charging_Adjusted_Penalty>  (316) 
0

>  <i_epik_Tot_Q>  (316) 
0

>  <i_epik_Tot_abs_Q>  (316) 
0

>  <s_epik_Chemistry_Notes>  (316) 
This compound has an ester and may undergo hydrolysis at high or low pH.

>  <s_lp_Force_Field>  (316) 
OPLS3e

>  <r_lp_Energy>  (316) 
22.6764

>  <b_lp_Chiralities_Consistent>  (316) 
1

>  <s_lp_Variant>  (316) 
108:0-1

>  <s_i_glide_gridfile>  (316) 
pfpi4k_grid

>  <i_i_glide_lignum>  (316) 
24

>  <i_i_glide_rotatable_bonds>  (316) 
5

>  <r_i_docking_score>  (316) 
-2.67226

>  <r_i_glide_ligand_efficiency>  (316) 
-0.121466

>  <r_i_glide_ligand_efficiency_sa>  (316) 
-0.340353

>  <r_i_glide_ligand_efficiency_ln>  (316) 
-0.653197

>  <r_i_glide_gscore>  (316) 
-2.67226

>  <r_i_glide_lipo>  (316) 
-0.213415

>  <r_i_glide_hbond>  (316) 
-0.171076

>  <r_i_glide_metal>  (316) 
-0

>  <r_i_glide_rewards>  (316) 
-1.4356

>  <r_i_glide_evdw>  (316) 
-28.8397

>  <r_i_glide_ecoul>  (316) 
-1.75476

>  <r_i_glide_erotb>  (316) 
0.924834

>  <r_i_glide_esite>  (316) 
-0.0718016

>  <r_i_glide_emodel>  (316) 
-34.6616

>  <r_i_glide_energy>  (316) 
-30.5944

>  <r_i_glide_einternal>  (316) 
0.775528

>  <r_i_glide_intrahb_reward>  (316) 
-0

>  <i_i_glide_confnum>  (316) 
3

>  <i_i_glide_posenum>  (316) 
2

>  <r_i_glide_eff_state_penalty>  (316) 
0

>  <ligand_id>  (316) 
108

>  <original_smiles>  (316) 
Cc1nnsc1C(=O)OCC(=O)N1c2ccccc2CC1C

>  <smiles>  (316) 
[H]c1c([H])c([H])c2c(c1[H])N(C(=O)C([H])([H])OC(=O)c1snnc1C([H])([H])[H])C([H])(C([H])([H])[H])C2([H])[H]

$$$$
109:0:0
     RDKit          3D

 41 44  0  0  1  0  0  0  0  0999 V2000
    5.5753   -1.4064    6.0568 N   0  0  0  0  0  0  0  0  0  0  0  0
    4.7083   -2.1380    5.8005 C   0  0  0  0  0  0  0  0  0  0  0  0
    3.5972   -2.9712    5.5731 C   0  0  0  0  0  0  0  0  0  0  0  0
    2.5424   -2.8980    6.5239 C   0  0  0  0  0  0  0  0  0  0  0  0
    1.7213   -2.7382    7.3241 N   0  0  0  0  0  0  0  0  0  0  0  0
    3.5627   -3.7651    4.4662 C   0  0  0  0  0  0  0  0  0  0  0  0
    2.5758   -4.7189    4.0129 C   0  0  0  0  0  0  0  0  0  0  0  0
    1.7244   -5.5336    4.7018 C   0  0  0  0  0  0  0  0  0  0  0  0
    1.5821   -5.7537    6.0962 N   0  0  0  0  0  0  0  0  0  0  0  0
    0.4834   -5.4209    6.8771 C   0  0  0  0  0  0  0  0  0  0  0  0
    0.3986   -5.8634    8.2227 C   0  0  0  0  0  0  0  0  0  0  0  0
   -0.5858   -5.4703    9.0439 N   0  0  0  0  0  0  0  0  0  0  0  0
   -1.5149   -4.6707    8.5388 C   0  0  0  0  0  0  0  0  0  0  0  0
   -1.5665   -4.1970    7.2834 N   0  0  0  0  0  0  0  0  0  0  0  0
   -0.5697   -4.5663    6.4667 C   0  0  0  0  0  0  0  0  0  0  0  0
    0.9492   -6.2734    3.7663 C   0  0  0  0  0  0  0  0  0  0  0  0
   -0.0443   -7.2714    3.8261 C   0  0  0  0  0  0  0  0  0  0  0  0
   -0.5960   -7.7598    2.6326 C   0  0  0  0  0  0  0  0  0  0  0  0
   -0.1359   -7.2383    1.4066 C   0  0  0  0  0  0  0  0  0  0  0  0
    0.7993   -6.2768    1.2900 N   0  0  0  0  0  0  0  0  0  0  0  0
    1.3392   -5.8383    2.4772 C   0  0  0  0  0  0  0  0  0  0  0  0
    2.3252   -4.8721    2.6329 N   0  0  0  0  0  0  0  0  0  0  0  0
    2.9490   -4.1686    1.5769 C   0  0  0  0  0  0  0  0  0  0  0  0
    3.6550   -4.8807    0.5816 C   0  0  0  0  0  0  0  0  0  0  0  0
    4.2599   -4.1895   -0.4858 C   0  0  0  0  0  0  0  0  0  0  0  0
    4.1569   -2.7928   -0.5687 C   0  0  0  0  0  0  0  0  0  0  0  0
    4.9780   -1.8634   -2.0062 Br  0  0  0  0  0  0  0  0  0  0  0  0
    3.4437   -2.0772    0.4128 C   0  0  0  0  0  0  0  0  0  0  0  0
    2.8400   -2.7675    1.4811 C   0  0  0  0  0  0  0  0  0  0  0  0
    4.4304   -3.6925    3.8247 H   0  0  0  0  0  0  0  0  0  0  0  0
    2.3009   -6.2992    6.5359 H   0  0  0  0  0  0  0  0  0  0  0  0
    1.1751   -6.4827    8.6358 H   0  0  0  0  0  0  0  0  0  0  0  0
   -2.3166   -4.3654    9.2035 H   0  0  0  0  0  0  0  0  0  0  0  0
   -0.5838   -4.1361    5.4743 H   0  0  0  0  0  0  0  0  0  0  0  0
   -0.3483   -7.6553    4.7924 H   0  0  0  0  0  0  0  0  0  0  0  0
   -1.3382   -8.5421    2.6673 H   0  0  0  0  0  0  0  0  0  0  0  0
   -0.5572   -7.6107    0.4884 H   0  0  0  0  0  0  0  0  0  0  0  0
    3.7278   -5.9515    0.6327 H   0  0  0  0  0  0  0  0  0  0  0  0
    4.7923   -4.7419   -1.2432 H   0  0  0  0  0  0  0  0  0  0  0  0
    3.3514   -1.0072    0.3396 H   0  0  0  0  0  0  0  0  0  0  0  0
    2.2891   -2.2107    2.2221 H   0  0  0  0  0  0  0  0  0  0  0  0
  1  2  3  0
  2  3  1  0
  3  4  1  0
  3  6  2  3
  4  5  3  0
  6  7  1  0
  6 30  1  0
  7 22  1  0
  7  8  2  0
  8  9  1  0
  8 16  1  0
  9 10  1  0
  9 31  1  0
 10 15  1  0
 10 11  2  0
 11 12  1  0
 11 32  1  0
 12 13  2  0
 13 14  1  0
 13 33  1  0
 14 15  2  0
 15 34  1  0
 16 21  2  0
 16 17  1  0
 17 18  2  0
 17 35  1  0
 18 19  1  0
 18 36  1  0
 19 20  2  0
 19 37  1  0
 20 21  1  0
 21 22  1  0
 22 23  1  0
 23 29  1  0
 23 24  2  0
 24 25  1  0
 24 38  1  0
 25 26  2  0
 25 39  1  0
 26 27  1  0
 26 28  1  0
 28 29  2  0
 28 40  1  0
 29 41  1  0
M  END
>  <i_m_ct_stereo_status>  (317) 
1

>  <s_m_source_file>  (317) 
/var/tmp/pbs.5076255.sched01/tmpebi1rvwe/120qlbjc4nh.sdf

>  <i_m_source_file_index>  (317) 
25

>  <i_lp_mmshare_version>  (317) 
48012

>  <i_f3d_flags>  (317) 
0

>  <s_epik_input>  (317) 
W2NIXTFbY0hdYyhCcilbY0hdW2NIXWMxLW4oYyhjMjMpbltjSF1bY0hdW2NIXTMpYyhbQ0hdPUMoQyNOKUMjTiljMltOSF1jNFtjSF1uW2NIXW5bY0hdNA==

>  <s_epik_cmdline>  (317) 
J2VwaWtfcHl0aG9uJywgJy1waHQnLCAnMi4wJywgJy1waCcsICc3LjAnLCAnLXRuJywgJzgnLCAnLW1hJywgJzIwMCcsICctaW1hZScsICc8aW5maWxlLm1hZT4nLCAnLW9tYWUnLCAnPG91dGZpbGUubWFlPic=

>  <r_lp_tautomer_probability>  (317) 
1

>  <r_epik_Ionization_Penalty>  (317) 
0.000668836

>  <r_epik_Ionization_Penalty_Charging>  (317) 
0

>  <r_epik_Ionization_Penalty_Neutral>  (317) 
0.000668836

>  <r_epik_State_Penalty>  (317) 
0.000419684

>  <r_epik_Charging_Adjusted_Penalty>  (317) 
0.000419684

>  <i_epik_Tot_Q>  (317) 
0

>  <i_epik_Tot_abs_Q>  (317) 
0

>  <s_lp_Force_Field>  (317) 
OPLS3e

>  <r_lp_Energy>  (317) 
45.312

>  <b_lp_Chiralities_Consistent>  (317) 
1

>  <s_lp_Variant>  (317) 
109:0-1

>  <s_i_glide_gridfile>  (317) 
pfpi4k_grid

>  <i_i_glide_lignum>  (317) 
25

>  <i_i_glide_rotatable_bonds>  (317) 
6

>  <r_i_docking_score>  (317) 
-2.73931

>  <r_i_glide_ligand_efficiency>  (317) 
-0.0944589

>  <r_i_glide_ligand_efficiency_sa>  (317) 
-0.290208

>  <r_i_glide_ligand_efficiency_ln>  (317) 
-0.627232

>  <r_i_glide_gscore>  (317) 
-2.73931

>  <r_i_glide_lipo>  (317) 
0

>  <r_i_glide_hbond>  (317) 
-0.282929

>  <r_i_glide_metal>  (317) 
-0

>  <r_i_glide_rewards>  (317) 
-0.408431

>  <r_i_glide_evdw>  (317) 
-26.5536

>  <r_i_glide_ecoul>  (317) 
-8.35222

>  <r_i_glide_erotb>  (317) 
0.612933

>  <r_i_glide_esite>  (317) 
-0.0803671

>  <r_i_glide_emodel>  (317) 
-37.8346

>  <r_i_glide_energy>  (317) 
-34.9058

>  <r_i_glide_einternal>  (317) 
5.68401

>  <r_i_glide_intrahb_reward>  (317) 
-0

>  <i_i_glide_confnum>  (317) 
4

>  <i_i_glide_posenum>  (317) 
1

>  <r_i_glide_eff_state_penalty>  (317) 
0

>  <ligand_id>  (317) 
109

>  <original_smiles>  (317) 
N#CC(C#N)=Cc1c(Nc2cncnc2)c2cccnc2n1-c1ccc(Br)cc1

>  <smiles>  (317) 
[H]C(=C(C#N)C#N)c1c(N([H])c2c([H])nc([H])nc2[H])c2c([H])c([H])c([H])nc2n1-c1c([H])c([H])c(Br)c([H])c1[H]

$$$$
109:0:1
     RDKit          3D

 41 44  0  0  1  0  0  0  0  0999 V2000
    5.9237   -2.3307    6.4394 N   0  0  0  0  0  0  0  0  0  0  0  0
    5.1735   -3.1587    6.1184 C   0  0  0  0  0  0  0  0  0  0  0  0
    4.2685   -4.2118    5.8072 C   0  0  0  0  0  0  0  0  0  0  0  0
    4.2244   -5.3528    6.6449 C   0  0  0  0  0  0  0  0  0  0  0  0
    4.2628   -6.2692    7.3522 N   0  0  0  0  0  0  0  0  0  0  0  0
    3.5016   -4.0955    4.6990 C   0  0  0  0  0  0  0  0  0  0  0  0
    2.4676   -4.9265    4.1215 C   0  0  0  0  0  0  0  0  0  0  0  0
    1.6571   -5.8589    4.7220 C   0  0  0  0  0  0  0  0  0  0  0  0
    1.4964   -6.2428    6.0669 N   0  0  0  0  0  0  0  0  0  0  0  0
    0.6513   -5.6671    7.0169 C   0  0  0  0  0  0  0  0  0  0  0  0
    0.6161   -6.1951    8.3264 C   0  0  0  0  0  0  0  0  0  0  0  0
   -0.1902   -5.6874    9.2697 N   0  0  0  0  0  0  0  0  0  0  0  0
   -0.9416   -4.6492    8.9265 C   0  0  0  0  0  0  0  0  0  0  0  0
   -0.9775   -4.0501    7.7352 N   0  0  0  0  0  0  0  0  0  0  0  0
   -0.1929   -4.5622    6.7733 C   0  0  0  0  0  0  0  0  0  0  0  0
    0.9028   -6.5110    3.7090 C   0  0  0  0  0  0  0  0  0  0  0  0
   -0.0508   -7.5490    3.6787 C   0  0  0  0  0  0  0  0  0  0  0  0
   -0.6111   -7.9194    2.4461 C   0  0  0  0  0  0  0  0  0  0  0  0
   -0.1840   -7.2636    1.2748 C   0  0  0  0  0  0  0  0  0  0  0  0
    0.7098   -6.2547    1.2435 N   0  0  0  0  0  0  0  0  0  0  0  0
    1.2590   -5.9363    2.4624 C   0  0  0  0  0  0  0  0  0  0  0  0
    2.2144   -4.9547    2.7299 N   0  0  0  0  0  0  0  0  0  0  0  0
    2.8179   -4.1466    1.7318 C   0  0  0  0  0  0  0  0  0  0  0  0
    3.4498   -4.7405    0.6095 C   0  0  0  0  0  0  0  0  0  0  0  0
    4.0284   -3.9301   -0.3936 C   0  0  0  0  0  0  0  0  0  0  0  0
    3.9955   -2.5247   -0.2821 C   0  0  0  0  0  0  0  0  0  0  0  0
    4.7888   -1.4382   -1.6285 Br  0  0  0  0  0  0  0  0  0  0  0  0
    3.3667   -1.9298    0.8303 C   0  0  0  0  0  0  0  0  0  0  0  0
    2.7611   -2.7365    1.8182 C   0  0  0  0  0  0  0  0  0  0  0  0
    3.7106   -3.1780    4.1842 H   0  0  0  0  0  0  0  0  0  0  0  0
    2.0905   -7.0083    6.3663 H   0  0  0  0  0  0  0  0  0  0  0  0
    1.2346   -7.0412    8.6050 H   0  0  0  0  0  0  0  0  0  0  0  0
   -1.5917   -4.2583    9.6827 H   0  0  0  0  0  0  0  0  0  0  0  0
   -0.2305   -4.0804    5.8041 H   0  0  0  0  0  0  0  0  0  0  0  0
   -0.3361   -8.0344    4.6027 H   0  0  0  0  0  0  0  0  0  0  0  0
   -1.3330   -8.7307    2.4013 H   0  0  0  0  0  0  0  0  0  0  0  0
   -0.5991   -7.5480    0.3217 H   0  0  0  0  0  0  0  0  0  0  0  0
    3.4808   -5.8182    0.5103 H   0  0  0  0  0  0  0  0  0  0  0  0
    4.4932   -4.3940   -1.2534 H   0  0  0  0  0  0  0  0  0  0  0  0
    3.3273   -0.8521    0.9257 H   0  0  0  0  0  0  0  0  0  0  0  0
    2.2524   -2.2632    2.6512 H   0  0  0  0  0  0  0  0  0  0  0  0
  1  2  3  0
  2  3  1  0
  3  4  1  0
  3  6  2  3
  4  5  3  0
  6  7  1  0
  6 30  1  0
  7 22  1  0
  7  8  2  0
  8  9  1  0
  8 16  1  0
  9 10  1  0
  9 31  1  0
 10 15  1  0
 10 11  2  0
 11 12  1  0
 11 32  1  0
 12 13  2  0
 13 14  1  0
 13 33  1  0
 14 15  2  0
 15 34  1  0
 16 21  2  0
 16 17  1  0
 17 18  2  0
 17 35  1  0
 18 19  1  0
 18 36  1  0
 19 20  2  0
 19 37  1  0
 20 21  1  0
 21 22  1  0
 22 23  1  0
 23 29  1  0
 23 24  2  0
 24 25  1  0
 24 38  1  0
 25 26  2  0
 25 39  1  0
 26 27  1  0
 26 28  1  0
 28 29  2  0
 28 40  1  0
 29 41  1  0
M  END
>  <i_m_ct_stereo_status>  (318) 
1

>  <s_m_source_file>  (318) 
/var/tmp/pbs.5076255.sched01/tmpebi1rvwe/120qlbjc4nh.sdf

>  <i_m_source_file_index>  (318) 
25

>  <i_lp_mmshare_version>  (318) 
48012

>  <i_f3d_flags>  (318) 
0

>  <s_epik_input>  (318) 
W2NIXTFbY0hdYyhCcilbY0hdW2NIXWMxLW4oYyhjMjMpbltjSF1bY0hdW2NIXTMpYyhbQ0hdPUMoQyNOKUMjTiljMltOSF1jNFtjSF1uW2NIXW5bY0hdNA==

>  <s_epik_cmdline>  (318) 
J2VwaWtfcHl0aG9uJywgJy1waHQnLCAnMi4wJywgJy1waCcsICc3LjAnLCAnLXRuJywgJzgnLCAnLW1hJywgJzIwMCcsICctaW1hZScsICc8aW5maWxlLm1hZT4nLCAnLW9tYWUnLCAnPG91dGZpbGUubWFlPic=

>  <r_lp_tautomer_probability>  (318) 
1

>  <r_epik_Ionization_Penalty>  (318) 
0.000668836

>  <r_epik_Ionization_Penalty_Charging>  (318) 
0

>  <r_epik_Ionization_Penalty_Neutral>  (318) 
0.000668836

>  <r_epik_State_Penalty>  (318) 
0.000419684

>  <r_epik_Charging_Adjusted_Penalty>  (318) 
0.000419684

>  <i_epik_Tot_Q>  (318) 
0

>  <i_epik_Tot_abs_Q>  (318) 
0

>  <s_lp_Force_Field>  (318) 
OPLS3e

>  <r_lp_Energy>  (318) 
45.312

>  <b_lp_Chiralities_Consistent>  (318) 
1

>  <s_lp_Variant>  (318) 
109:0-1

>  <s_i_glide_gridfile>  (318) 
pfpi4k_grid

>  <i_i_glide_lignum>  (318) 
25

>  <i_i_glide_rotatable_bonds>  (318) 
6

>  <r_i_docking_score>  (318) 
-2.73698

>  <r_i_glide_ligand_efficiency>  (318) 
-0.0943785

>  <r_i_glide_ligand_efficiency_sa>  (318) 
-0.289961

>  <r_i_glide_ligand_efficiency_ln>  (318) 
-0.626698

>  <r_i_glide_gscore>  (318) 
-2.73698

>  <r_i_glide_lipo>  (318) 
-0.000190345

>  <r_i_glide_hbond>  (318) 
-0.314629

>  <r_i_glide_metal>  (318) 
-0

>  <r_i_glide_rewards>  (318) 
-0.401959

>  <r_i_glide_evdw>  (318) 
-26.0649

>  <r_i_glide_ecoul>  (318) 
-8.37957

>  <r_i_glide_erotb>  (318) 
0.612933

>  <r_i_glide_esite>  (318) 
-0.0729519

>  <r_i_glide_emodel>  (318) 
-37.5658

>  <r_i_glide_energy>  (318) 
-34.4445

>  <r_i_glide_einternal>  (318) 
5.57813

>  <r_i_glide_intrahb_reward>  (318) 
-0

>  <i_i_glide_confnum>  (318) 
4

>  <i_i_glide_posenum>  (318) 
9

>  <r_i_glide_eff_state_penalty>  (318) 
0

>  <ligand_id>  (318) 
109

>  <original_smiles>  (318) 
N#CC(C#N)=Cc1c(Nc2cncnc2)c2cccnc2n1-c1ccc(Br)cc1

>  <smiles>  (318) 
[H]C(=C(C#N)C#N)c1c(N([H])c2c([H])nc([H])nc2[H])c2c([H])c([H])c([H])nc2n1-c1c([H])c([H])c(Br)c([H])c1[H]

$$$$
109:0:2
     RDKit          3D

 41 44  0  0  1  0  0  0  0  0999 V2000
    5.7749   -0.9950    5.7617 N   0  0  0  0  0  0  0  0  0  0  0  0
    5.1000   -1.9249    5.6372 C   0  0  0  0  0  0  0  0  0  0  0  0
    4.2637   -3.0787    5.5494 C   0  0  0  0  0  0  0  0  0  0  0  0
    4.2359   -3.9517    6.6760 C   0  0  0  0  0  0  0  0  0  0  0  0
    4.2466   -4.6506    7.5962 N   0  0  0  0  0  0  0  0  0  0  0  0
    3.5681   -3.3006    4.4096 C   0  0  0  0  0  0  0  0  0  0  0  0
    2.6018   -4.3101    3.9916 C   0  0  0  0  0  0  0  0  0  0  0  0
    1.8094   -5.1413    4.7674 C   0  0  0  0  0  0  0  0  0  0  0  0
    1.7003   -5.2438    6.1578 N   0  0  0  0  0  0  0  0  0  0  0  0
    0.5578   -5.0498    6.9237 C   0  0  0  0  0  0  0  0  0  0  0  0
    0.4827   -5.5641    8.2334 C   0  0  0  0  0  0  0  0  0  0  0  0
   -0.5842   -5.3523    9.0291 N   0  0  0  0  0  0  0  0  0  0  0  0
   -1.5846   -4.6319    8.5055 C   0  0  0  0  0  0  0  0  0  0  0  0
   -1.6275   -4.0778    7.2974 N   0  0  0  0  0  0  0  0  0  0  0  0
   -0.5610   -4.2984    6.4918 C   0  0  0  0  0  0  0  0  0  0  0  0
    1.0969   -6.0043    3.8975 C   0  0  0  0  0  0  0  0  0  0  0  0
    0.2126   -7.0905    4.0745 C   0  0  0  0  0  0  0  0  0  0  0  0
   -0.2989   -7.7404    2.9461 C   0  0  0  0  0  0  0  0  0  0  0  0
    0.0874   -7.2969    1.6685 C   0  0  0  0  0  0  0  0  0  0  0  0
    0.9322   -6.2596    1.4472 N   0  0  0  0  0  0  0  0  0  0  0  0
    1.4228   -5.6551    2.5680 C   0  0  0  0  0  0  0  0  0  0  0  0
    2.3494   -4.6055    2.6348 N   0  0  0  0  0  0  0  0  0  0  0  0
    2.9354   -3.9720    1.5022 C   0  0  0  0  0  0  0  0  0  0  0  0
    2.8296   -2.5736    1.3404 C   0  0  0  0  0  0  0  0  0  0  0  0
    3.4191   -1.9418    0.2308 C   0  0  0  0  0  0  0  0  0  0  0  0
    4.0937   -2.7015   -0.7370 C   0  0  0  0  0  0  0  0  0  0  0  0
    4.8716   -1.8487   -2.2472 Br  0  0  0  0  0  0  0  0  0  0  0  0
    4.1880   -4.0979   -0.5926 C   0  0  0  0  0  0  0  0  0  0  0  0
    3.6170   -4.7305    0.5304 C   0  0  0  0  0  0  0  0  0  0  0  0
    3.7881   -2.5447    3.6689 H   0  0  0  0  0  0  0  0  0  0  0  0
    2.5389   -5.4974    6.6731 H   0  0  0  0  0  0  0  0  0  0  0  0
    1.3017   -6.1309    8.6558 H   0  0  0  0  0  0  0  0  0  0  0  0
   -2.4527   -4.5072    9.1392 H   0  0  0  0  0  0  0  0  0  0  0  0
   -0.5894   -3.8202    5.5245 H   0  0  0  0  0  0  0  0  0  0  0  0
   -0.0262   -7.3906    5.0800 H   0  0  0  0  0  0  0  0  0  0  0  0
   -0.9632   -8.5770    3.0839 H   0  0  0  0  0  0  0  0  0  0  0  0
   -0.2983   -7.8093    0.7966 H   0  0  0  0  0  0  0  0  0  0  0  0
    2.2673   -1.9807    2.0456 H   0  0  0  0  0  0  0  0  0  0  0  0
    3.3355   -0.8702    0.1229 H   0  0  0  0  0  0  0  0  0  0  0  0
    4.6904   -4.6877   -1.3400 H   0  0  0  0  0  0  0  0  0  0  0  0
    3.6868   -5.8028    0.6334 H   0  0  0  0  0  0  0  0  0  0  0  0
  1  2  3  0
  2  3  1  0
  3  4  1  0
  3  6  2  3
  4  5  3  0
  6  7  1  0
  6 30  1  0
  7 22  1  0
  7  8  2  0
  8  9  1  0
  8 16  1  0
  9 10  1  0
  9 31  1  0
 10 15  1  0
 10 11  2  0
 11 12  1  0
 11 32  1  0
 12 13  2  0
 13 14  1  0
 13 33  1  0
 14 15  2  0
 15 34  1  0
 16 21  2  0
 16 17  1  0
 17 18  2  0
 17 35  1  0
 18 19  1  0
 18 36  1  0
 19 20  2  0
 19 37  1  0
 20 21  1  0
 21 22  1  0
 22 23  1  0
 23 29  1  0
 23 24  2  0
 24 25  1  0
 24 38  1  0
 25 26  2  0
 25 39  1  0
 26 27  1  0
 26 28  1  0
 28 29  2  0
 28 40  1  0
 29 41  1  0
M  END
>  <i_m_ct_stereo_status>  (319) 
1

>  <s_m_source_file>  (319) 
/var/tmp/pbs.5076255.sched01/tmpebi1rvwe/120qlbjc4nh.sdf

>  <i_m_source_file_index>  (319) 
25

>  <i_lp_mmshare_version>  (319) 
48012

>  <i_f3d_flags>  (319) 
0

>  <s_epik_input>  (319) 
W2NIXTFbY0hdYyhCcilbY0hdW2NIXWMxLW4oYyhjMjMpbltjSF1bY0hdW2NIXTMpYyhbQ0hdPUMoQyNOKUMjTiljMltOSF1jNFtjSF1uW2NIXW5bY0hdNA==

>  <s_epik_cmdline>  (319) 
J2VwaWtfcHl0aG9uJywgJy1waHQnLCAnMi4wJywgJy1waCcsICc3LjAnLCAnLXRuJywgJzgnLCAnLW1hJywgJzIwMCcsICctaW1hZScsICc8aW5maWxlLm1hZT4nLCAnLW9tYWUnLCAnPG91dGZpbGUubWFlPic=

>  <r_lp_tautomer_probability>  (319) 
1

>  <r_epik_Ionization_Penalty>  (319) 
0.000668836

>  <r_epik_Ionization_Penalty_Charging>  (319) 
0

>  <r_epik_Ionization_Penalty_Neutral>  (319) 
0.000668836

>  <r_epik_State_Penalty>  (319) 
0.000419684

>  <r_epik_Charging_Adjusted_Penalty>  (319) 
0.000419684

>  <i_epik_Tot_Q>  (319) 
0

>  <i_epik_Tot_abs_Q>  (319) 
0

>  <s_lp_Force_Field>  (319) 
OPLS3e

>  <r_lp_Energy>  (319) 
45.312

>  <b_lp_Chiralities_Consistent>  (319) 
1

>  <s_lp_Variant>  (319) 
109:0-1

>  <s_i_glide_gridfile>  (319) 
pfpi4k_grid

>  <i_i_glide_lignum>  (319) 
25

>  <i_i_glide_rotatable_bonds>  (319) 
6

>  <r_i_docking_score>  (319) 
-2.56943

>  <r_i_glide_ligand_efficiency>  (319) 
-0.0886011

>  <r_i_glide_ligand_efficiency_sa>  (319) 
-0.272211

>  <r_i_glide_ligand_efficiency_ln>  (319) 
-0.588335

>  <r_i_glide_gscore>  (319) 
-2.56943

>  <r_i_glide_lipo>  (319) 
-0.00246397

>  <r_i_glide_hbond>  (319) 
-0.236395

>  <r_i_glide_metal>  (319) 
-0

>  <r_i_glide_rewards>  (319) 
-0.425181

>  <r_i_glide_evdw>  (319) 
-25.8797

>  <r_i_glide_ecoul>  (319) 
-7.63167

>  <r_i_glide_erotb>  (319) 
0.612933

>  <r_i_glide_esite>  (319) 
-0.0795892

>  <r_i_glide_emodel>  (319) 
-35.9725

>  <r_i_glide_energy>  (319) 
-33.5114

>  <r_i_glide_einternal>  (319) 
5.80812

>  <r_i_glide_intrahb_reward>  (319) 
-0

>  <i_i_glide_confnum>  (319) 
3

>  <i_i_glide_posenum>  (319) 
32

>  <r_i_glide_eff_state_penalty>  (319) 
0

>  <ligand_id>  (319) 
109

>  <original_smiles>  (319) 
N#CC(C#N)=Cc1c(Nc2cncnc2)c2cccnc2n1-c1ccc(Br)cc1

>  <smiles>  (319) 
[H]C(=C(C#N)C#N)c1c(N([H])c2c([H])nc([H])nc2[H])c2c([H])c([H])c([H])nc2n1-c1c([H])c([H])c(Br)c([H])c1[H]

$$$$
110:0:0
     RDKit          3D

 52 55  0  0  1  0  0  0  0  0999 V2000
   -0.9832   -4.0874   10.5847 C   0  0  0  0  0  0  0  0  0  0  0  0
   -0.6347   -4.4616    9.3396 C   0  0  0  0  0  0  0  0  0  0  0  0
   -0.2415   -3.4656    8.3550 C   0  0  0  0  0  0  0  0  0  0  0  0
   -0.1846   -2.2594    8.5557 O   0  0  0  0  0  0  0  0  0  0  0  0
    0.0103   -4.0440    7.1601 N   0  0  0  0  0  0  0  0  0  0  0  0
    0.4851   -3.3906    5.9856 C   0  0  0  0  0  0  0  0  0  0  0  0
   -0.0369   -2.1519    5.5598 C   0  0  0  0  0  0  0  0  0  0  0  0
    0.4712   -1.5165    4.4101 C   0  0  0  0  0  0  0  0  0  0  0  0
    0.0836   -0.2309    3.9727 C   0  0  0  0  0  0  0  0  0  0  0  0
   -0.7924    0.6165    4.6727 N   0  0  0  0  0  0  0  0  0  0  0  0
   -0.7250    0.9853    6.0326 C   0  0  0  0  0  0  0  0  0  0  0  0
    0.3084    0.5538    6.9000 C   0  0  0  0  0  0  0  0  0  0  0  0
    0.2685    0.8350    8.2746 C   0  0  0  0  0  0  0  0  0  0  0  0
   -0.7490    1.6497    8.7978 C   0  0  0  0  0  0  0  0  0  0  0  0
   -0.7505    1.9996   10.4850 Cl  0  0  0  0  0  0  0  0  0  0  0  0
   -1.7459    2.1536    7.9393 C   0  0  0  0  0  0  0  0  0  0  0  0
   -3.0001    3.1731    8.5532 Cl  0  0  0  0  0  0  0  0  0  0  0  0
   -1.7373    1.8247    6.5674 C   0  0  0  0  0  0  0  0  0  0  0  0
    0.5441    0.2796    2.8125 N   0  0  0  0  0  0  0  0  0  0  0  0
    1.4108   -0.4455    2.1142 C   0  0  0  0  0  0  0  0  0  0  0  0
    1.8887   -1.6329    2.4674 N   0  0  0  0  0  0  0  0  0  0  0  0
    1.4528   -2.1795    3.6191 C   0  0  0  0  0  0  0  0  0  0  0  0
    1.9678   -3.4067    4.0437 C   0  0  0  0  0  0  0  0  0  0  0  0
    1.4735   -4.0482    5.2146 C   0  0  0  0  0  0  0  0  0  0  0  0
    1.8729   -5.3070    5.6202 O   0  0  0  0  0  0  0  0  0  0  0  0
    2.4746   -6.1867    4.6722 C   0  0  0  0  0  0  0  0  0  0  0  0
    1.6119   -6.4084    3.4042 C   0  0  2  0  0  0  0  0  0  0  0  0
    0.1148   -6.6173    3.7353 C   0  0  0  0  0  0  0  0  0  0  0  0
   -0.5885   -6.7029    2.5150 O   0  0  0  0  0  0  0  0  0  0  0  0
   -0.1459   -7.8189    1.7645 C   0  0  0  0  0  0  0  0  0  0  0  0
    1.3514   -7.6554    1.4465 C   0  0  0  0  0  0  0  0  0  0  0  0
    2.0511   -7.5618    2.6867 O   0  0  0  0  0  0  0  0  0  0  0  0
   -1.2299    1.2972    4.0644 H   0  0  0  0  0  0  0  0  0  0  0  0
   -0.9749   -3.0546   10.9017 H   0  0  0  0  0  0  0  0  0  0  0  0
   -1.2803   -4.8246   11.3155 H   0  0  0  0  0  0  0  0  0  0  0  0
   -0.6598   -5.5080    9.0912 H   0  0  0  0  0  0  0  0  0  0  0  0
    0.0164   -5.0533    7.1447 H   0  0  0  0  0  0  0  0  0  0  0  0
   -0.8203   -1.6823    6.1354 H   0  0  0  0  0  0  0  0  0  0  0  0
    1.1343   -0.0487    6.5524 H   0  0  0  0  0  0  0  0  0  0  0  0
    1.0151    0.4076    8.9225 H   0  0  0  0  0  0  0  0  0  0  0  0
   -2.5161    2.2035    5.9191 H   0  0  0  0  0  0  0  0  0  0  0  0
    1.7790   -0.0496    1.1799 H   0  0  0  0  0  0  0  0  0  0  0  0
    2.7357   -3.8739    3.4379 H   0  0  0  0  0  0  0  0  0  0  0  0
    3.4818   -5.8470    4.4424 H   0  0  0  0  0  0  0  0  0  0  0  0
    2.5999   -7.1330    5.1963 H   0  0  0  0  0  0  0  0  0  0  0  0
    1.7193   -5.5652    2.7288 H   0  0  0  0  0  0  0  0  0  0  0  0
   -0.0574   -7.4868    4.3787 H   0  0  0  0  0  0  0  0  0  0  0  0
   -0.2964   -5.7571    4.2518 H   0  0  0  0  0  0  0  0  0  0  0  0
   -0.3178   -8.7299    2.3384 H   0  0  0  0  0  0  0  0  0  0  0  0
   -0.7369   -7.8663    0.8516 H   0  0  0  0  0  0  0  0  0  0  0  0
    1.7269   -8.5049    0.8758 H   0  0  0  0  0  0  0  0  0  0  0  0
    1.5167   -6.7641    0.8348 H   0  0  0  0  0  0  0  0  0  0  0  0
  1  2  2  0
  1 34  1  0
  1 35  1  0
  2  3  1  0
  2 36  1  0
  3  4  2  0
  3  5  1  0
  5 37  1  0
  5  6  1  0
  6  7  2  0
  6 24  1  0
  7  8  1  0
  7 38  1  0
  8  9  2  0
  8 22  1  0
  9 10  1  0
  9 19  1  0
 10 11  1  0
 10 33  1  0
 11 18  1  0
 11 12  2  0
 12 13  1  0
 12 39  1  0
 13 14  2  0
 13 40  1  0
 14 15  1  0
 14 16  1  0
 16 17  1  0
 16 18  2  0
 18 41  1  0
 19 20  2  0
 20 21  1  0
 20 42  1  0
 21 22  2  0
 22 23  1  0
 23 24  2  0
 23 43  1  0
 24 25  1  0
 25 26  1  0
 26 27  1  0
 26 44  1  0
 26 45  1  0
 27 32  1  0
 27 28  1  0
 27 46  1  6
 28 29  1  0
 28 47  1  0
 28 48  1  0
 29 30  1  0
 30 31  1  0
 30 49  1  0
 30 50  1  0
 31 32  1  0
 31 51  1  0
 31 52  1  0
M  END
>  <i_m_ct_stereo_status>  (320) 
1

>  <s_m_source_file>  (320) 
/var/tmp/pbs.5076255.sched01/tmpebi1rvwe/120qlbjc4nh.sdf

>  <i_m_source_file_index>  (320) 
26

>  <i_lp_mmshare_version>  (320) 
48012

>  <i_f3d_flags>  (320) 
0

>  <s_epik_input>  (320) 
TzFbQ0gyXVtDSDJdT1tDSDJdW0NASF0xW0NIMl1PYyhjKFtjSF0yKVtOSF1DKD1PKVtDSF09W0NIMl0pW2NIXWMoYzIzKW5bY0hdW25IXWNcMz1OL2M0W2NIXVtjSF1jKENsKWMoQ2wpW2NIXTQ=

>  <s_epik_cmdline>  (320) 
J2VwaWtfcHl0aG9uJywgJy1waHQnLCAnMi4wJywgJy1waCcsICc3LjAnLCAnLXRuJywgJzgnLCAnLW1hJywgJzIwMCcsICctaW1hZScsICc8aW5maWxlLm1hZT4nLCAnLW9tYWUnLCAnPG91dGZpbGUubWFlPic=

>  <r_lp_tautomer_probability>  (320) 
1

>  <r_epik_Ionization_Penalty>  (320) 
0.00252713

>  <r_epik_Ionization_Penalty_Charging>  (320) 
0

>  <r_epik_Ionization_Penalty_Neutral>  (320) 
0.00252713

>  <r_epik_State_Penalty>  (320) 
-0

>  <r_epik_Charging_Adjusted_Penalty>  (320) 
0

>  <i_epik_Tot_Q>  (320) 
0

>  <i_epik_Tot_abs_Q>  (320) 
0

>  <s_lp_Force_Field>  (320) 
OPLS3e

>  <r_lp_Energy>  (320) 
53.0857

>  <b_lp_Chiralities_Consistent>  (320) 
1

>  <s_lp_Variant>  (320) 
110:0-1

>  <s_i_glide_gridfile>  (320) 
pfpi4k_grid

>  <i_i_glide_lignum>  (320) 
26

>  <i_i_glide_rotatable_bonds>  (320) 
8

>  <r_i_docking_score>  (320) 
-2.19244

>  <r_i_glide_ligand_efficiency>  (320) 
-0.0685137

>  <r_i_glide_ligand_efficiency_sa>  (320) 
-0.217517

>  <r_i_glide_ligand_efficiency_ln>  (320) 
-0.490947

>  <r_i_glide_gscore>  (320) 
-2.19244

>  <r_i_glide_lipo>  (320) 
-0.0965939

>  <r_i_glide_hbond>  (320) 
-0.32

>  <r_i_glide_metal>  (320) 
-0

>  <r_i_glide_rewards>  (320) 
-0.168245

>  <r_i_glide_evdw>  (320) 
-28.8118

>  <r_i_glide_ecoul>  (320) 
-4.87104

>  <r_i_glide_erotb>  (320) 
0.716727

>  <r_i_glide_esite>  (320) 
-0.153082

>  <r_i_glide_emodel>  (320) 
-34.7987

>  <r_i_glide_energy>  (320) 
-33.6828

>  <r_i_glide_einternal>  (320) 
5.95897

>  <r_i_glide_intrahb_reward>  (320) 
-0

>  <i_i_glide_confnum>  (320) 
19

>  <i_i_glide_posenum>  (320) 
38

>  <r_i_glide_eff_state_penalty>  (320) 
0

>  <ligand_id>  (320) 
110

>  <original_smiles>  (320) 
C=CC(=O)Nc1cc2c(=Nc3ccc(Cl)c(Cl)c3)[nH]cnc2cc1OCC1COCCO1

>  <smiles>  (320) 
[H]C([H])=C([H])C(=O)N([H])c1c(OC([H])([H])C2([H])OC([H])([H])C([H])([H])OC2([H])[H])c([H])c2nc([H])nc(N([H])c3c([H])c([H])c(Cl)c(Cl)c3[H])c2c1[H]

$$$$
110:0:1
     RDKit          3D

 52 55  0  0  1  0  0  0  0  0999 V2000
    3.8381   -9.0110    1.1771 C   0  0  0  0  0  0  0  0  0  0  0  0
    4.2140   -7.7597    0.8778 C   0  0  0  0  0  0  0  0  0  0  0  0
    3.5128   -6.6249    1.4447 C   0  0  0  0  0  0  0  0  0  0  0  0
    2.4162   -6.6678    2.0023 O   0  0  0  0  0  0  0  0  0  0  0  0
    4.1926   -5.4846    1.2339 N   0  0  0  0  0  0  0  0  0  0  0  0
    3.9390   -4.2088    1.8097 C   0  0  0  0  0  0  0  0  0  0  0  0
    3.3882   -4.0894    3.1073 C   0  0  0  0  0  0  0  0  0  0  0  0
    3.2194   -2.8131    3.6869 C   0  0  0  0  0  0  0  0  0  0  0  0
    2.7252   -2.6032    5.0044 C   0  0  0  0  0  0  0  0  0  0  0  0
    2.3161   -3.6495    5.8676 N   0  0  0  0  0  0  0  0  0  0  0  0
    1.5875   -3.5767    7.0873 C   0  0  0  0  0  0  0  0  0  0  0  0
    1.0786   -2.3567    7.6311 C   0  0  0  0  0  0  0  0  0  0  0  0
    0.3508   -2.3175    8.8211 C   0  0  0  0  0  0  0  0  0  0  0  0
    0.0670   -3.4975    9.5228 C   0  0  0  0  0  0  0  0  0  0  0  0
   -0.8967   -3.3933   10.9558 Cl  0  0  0  0  0  0  0  0  0  0  0  0
    0.5678   -4.7245    9.0269 C   0  0  0  0  0  0  0  0  0  0  0  0
    0.2329   -6.1931    9.8811 Cl  0  0  0  0  0  0  0  0  0  0  0  0
    1.3266   -4.7685    7.8286 C   0  0  0  0  0  0  0  0  0  0  0  0
    2.6003   -1.3461    5.4564 N   0  0  0  0  0  0  0  0  0  0  0  0
    2.8928   -0.3404    4.6556 C   0  0  0  0  0  0  0  0  0  0  0  0
    3.3558   -0.4243    3.4201 N   0  0  0  0  0  0  0  0  0  0  0  0
    3.5457   -1.6549    2.9290 C   0  0  0  0  0  0  0  0  0  0  0  0
    4.0821   -1.7812    1.6436 C   0  0  0  0  0  0  0  0  0  0  0  0
    4.3276   -3.0581    1.0736 C   0  0  0  0  0  0  0  0  0  0  0  0
    4.9584   -3.2359   -0.1462 O   0  0  0  0  0  0  0  0  0  0  0  0
    5.3870   -2.0899   -0.8896 C   0  0  0  0  0  0  0  0  0  0  0  0
    4.3146   -1.6990   -1.9254 C   0  0  2  0  0  0  0  0  0  0  0  0
    4.3226   -2.6755   -3.1195 C   0  0  0  0  0  0  0  0  0  0  0  0
    3.3759   -2.2613   -4.0959 O   0  0  0  0  0  0  0  0  0  0  0  0
    3.6569   -0.9501   -4.5645 C   0  0  0  0  0  0  0  0  0  0  0  0
    3.6500    0.0275   -3.3825 C   0  0  0  0  0  0  0  0  0  0  0  0
    4.6129   -0.4009   -2.4254 O   0  0  0  0  0  0  0  0  0  0  0  0
    2.5702   -4.5766    5.5535 H   0  0  0  0  0  0  0  0  0  0  0  0
    3.0129   -9.2183    1.8458 H   0  0  0  0  0  0  0  0  0  0  0  0
    4.3552   -9.8554    0.7506 H   0  0  0  0  0  0  0  0  0  0  0  0
    5.0376   -7.6128    0.2008 H   0  0  0  0  0  0  0  0  0  0  0  0
    4.9587   -5.5228    0.5784 H   0  0  0  0  0  0  0  0  0  0  0  0
    3.1482   -4.9640    3.6854 H   0  0  0  0  0  0  0  0  0  0  0  0
    1.1718   -1.3675    7.2088 H   0  0  0  0  0  0  0  0  0  0  0  0
    0.0077   -1.3628    9.1685 H   0  0  0  0  0  0  0  0  0  0  0  0
    1.6896   -5.7219    7.4700 H   0  0  0  0  0  0  0  0  0  0  0  0
    2.6788    0.6553    5.0269 H   0  0  0  0  0  0  0  0  0  0  0  0
    4.3016   -0.8431    1.1516 H   0  0  0  0  0  0  0  0  0  0  0  0
    5.6892   -1.2323   -0.2843 H   0  0  0  0  0  0  0  0  0  0  0  0
    6.3081   -2.3743   -1.3931 H   0  0  0  0  0  0  0  0  0  0  0  0
    3.3240   -1.6625   -1.4615 H   0  0  0  0  0  0  0  0  0  0  0  0
    5.3191   -2.7241   -3.5638 H   0  0  0  0  0  0  0  0  0  0  0  0
    4.0741   -3.6817   -2.7834 H   0  0  0  0  0  0  0  0  0  0  0  0
    4.6168   -0.9403   -5.0724 H   0  0  0  0  0  0  0  0  0  0  0  0
    2.9028   -0.6562   -5.2926 H   0  0  0  0  0  0  0  0  0  0  0  0
    3.9045    1.0303   -3.7272 H   0  0  0  0  0  0  0  0  0  0  0  0
    2.6544    0.0770   -2.9375 H   0  0  0  0  0  0  0  0  0  0  0  0
  1  2  2  0
  1 34  1  0
  1 35  1  0
  2  3  1  0
  2 36  1  0
  3  4  2  0
  3  5  1  0
  5 37  1  0
  5  6  1  0
  6  7  2  0
  6 24  1  0
  7  8  1  0
  7 38  1  0
  8  9  2  0
  8 22  1  0
  9 10  1  0
  9 19  1  0
 10 11  1  0
 10 33  1  0
 11 18  1  0
 11 12  2  0
 12 13  1  0
 12 39  1  0
 13 14  2  0
 13 40  1  0
 14 15  1  0
 14 16  1  0
 16 17  1  0
 16 18  2  0
 18 41  1  0
 19 20  2  0
 20 21  1  0
 20 42  1  0
 21 22  2  0
 22 23  1  0
 23 24  2  0
 23 43  1  0
 24 25  1  0
 25 26  1  0
 26 27  1  0
 26 44  1  0
 26 45  1  0
 27 32  1  0
 27 28  1  0
 27 46  1  1
 28 29  1  0
 28 47  1  0
 28 48  1  0
 29 30  1  0
 30 31  1  0
 30 49  1  0
 30 50  1  0
 31 32  1  0
 31 51  1  0
 31 52  1  0
M  END
>  <i_m_ct_stereo_status>  (321) 
1

>  <s_m_source_file>  (321) 
/var/tmp/pbs.5076255.sched01/tmpebi1rvwe/120qlbjc4nh.sdf

>  <i_m_source_file_index>  (321) 
26

>  <i_lp_mmshare_version>  (321) 
48012

>  <i_f3d_flags>  (321) 
0

>  <s_epik_input>  (321) 
TzFbQ0gyXVtDSDJdT1tDSDJdW0NASF0xW0NIMl1PYyhjKFtjSF0yKVtOSF1DKD1PKVtDSF09W0NIMl0pW2NIXWMoYzIzKW5bY0hdW25IXWNcMz1OL2M0W2NIXVtjSF1jKENsKWMoQ2wpW2NIXTQ=

>  <s_epik_cmdline>  (321) 
J2VwaWtfcHl0aG9uJywgJy1waHQnLCAnMi4wJywgJy1waCcsICc3LjAnLCAnLXRuJywgJzgnLCAnLW1hJywgJzIwMCcsICctaW1hZScsICc8aW5maWxlLm1hZT4nLCAnLW9tYWUnLCAnPG91dGZpbGUubWFlPic=

>  <r_lp_tautomer_probability>  (321) 
1

>  <r_epik_Ionization_Penalty>  (321) 
0.00252713

>  <r_epik_Ionization_Penalty_Charging>  (321) 
0

>  <r_epik_Ionization_Penalty_Neutral>  (321) 
0.00252713

>  <r_epik_State_Penalty>  (321) 
-0

>  <r_epik_Charging_Adjusted_Penalty>  (321) 
0

>  <i_epik_Tot_Q>  (321) 
0

>  <i_epik_Tot_abs_Q>  (321) 
0

>  <s_lp_Force_Field>  (321) 
OPLS3e

>  <r_lp_Energy>  (321) 
53.0857

>  <b_lp_Chiralities_Consistent>  (321) 
1

>  <s_lp_Variant>  (321) 
110:0-1

>  <s_i_glide_gridfile>  (321) 
pfpi4k_grid

>  <i_i_glide_lignum>  (321) 
26

>  <i_i_glide_rotatable_bonds>  (321) 
8

>  <r_i_docking_score>  (321) 
-1.60772

>  <r_i_glide_ligand_efficiency>  (321) 
-0.0502412

>  <r_i_glide_ligand_efficiency_sa>  (321) 
-0.159506

>  <r_i_glide_ligand_efficiency_ln>  (321) 
-0.360012

>  <r_i_glide_gscore>  (321) 
-1.60772

>  <r_i_glide_lipo>  (321) 
-0.270696

>  <r_i_glide_hbond>  (321) 
-0.181188

>  <r_i_glide_metal>  (321) 
-0

>  <r_i_glide_rewards>  (321) 
-0.249873

>  <r_i_glide_evdw>  (321) 
-29.8729

>  <r_i_glide_ecoul>  (321) 
-0.860286

>  <r_i_glide_erotb>  (321) 
0.716727

>  <r_i_glide_esite>  (321) 
0

>  <r_i_glide_emodel>  (321) 
-30.0807

>  <r_i_glide_energy>  (321) 
-30.7332

>  <r_i_glide_einternal>  (321) 
4.67109

>  <r_i_glide_intrahb_reward>  (321) 
-0

>  <i_i_glide_confnum>  (321) 
19

>  <i_i_glide_posenum>  (321) 
1

>  <r_i_glide_eff_state_penalty>  (321) 
0

>  <ligand_id>  (321) 
110

>  <original_smiles>  (321) 
C=CC(=O)Nc1cc2c(=Nc3ccc(Cl)c(Cl)c3)[nH]cnc2cc1OCC1COCCO1

>  <smiles>  (321) 
[H]C([H])=C([H])C(=O)N([H])c1c(OC([H])([H])C2([H])OC([H])([H])C([H])([H])OC2([H])[H])c([H])c2nc([H])nc(N([H])c3c([H])c([H])c(Cl)c(Cl)c3[H])c2c1[H]

$$$$
111:0:0
     RDKit          3D

 73 79  0  0  1  0  0  0  0  0999 V2000
   -1.7580   -9.2713    2.0731 C   0  0  0  0  0  0  0  0  0  0  0  0
   -0.7026   -8.5668    2.5192 C   0  0  0  0  0  0  0  0  0  0  0  0
   -0.8682   -7.1017    2.9048 C   0  0  0  0  0  0  0  0  0  0  0  0
    0.6859   -9.2037    2.6083 C   0  0  0  0  0  0  0  0  0  0  0  0
    1.0863   -9.7157    4.0131 C   0  0  2  0  0  0  0  0  0  0  0  0
    1.0527   -8.6450    5.1515 C   0  0  1  0  0  0  0  0  0  0  0  0
   -0.1526   -8.7788    5.9028 O   0  0  0  0  0  0  0  0  0  0  0  0
    2.2911   -8.8855    5.9985 C   0  0  1  0  0  0  0  0  0  0  0  0
    3.2507   -7.8051    5.7247 O   0  0  0  0  0  0  0  0  0  0  0  0
    3.1211   -7.3269    7.1041 C   0  0  1  0  0  0  0  0  0  0  0  0
    2.1596   -6.1257    7.0780 C   0  0  0  0  0  0  0  0  0  0  0  0
    2.5636   -8.7087    7.4687 C   0  0  2  0  0  0  0  0  0  0  0  0
    3.6051   -9.8325    7.8266 C   0  0  2  0  0  0  0  0  0  0  0  0
    3.0188  -10.6658    8.7920 O   0  0  0  0  0  0  0  0  0  0  0  0
    4.8258   -9.3207    8.3009 O   0  0  0  0  0  0  0  0  0  0  0  0
    4.7021   -8.0759    8.8905 C   0  0  1  0  0  0  0  0  0  0  0  0
    5.7945   -7.6780    9.6529 O   0  0  0  0  0  0  0  0  0  0  0  0
    5.7142   -6.2619    9.7842 C   0  0  1  0  0  0  0  0  0  0  0  0
    7.1704   -5.7187    9.7338 C   0  0  0  0  0  0  0  0  0  0  0  0
    7.2305   -4.2780    9.2671 C   0  0  0  0  0  0  0  0  0  0  0  0
    8.2813   -3.5429    8.9131 C   0  0  0  0  0  0  0  0  0  0  0  0
    9.7665   -3.8445    8.9486 C   0  0  0  0  0  0  0  0  0  0  0  0
    7.7752   -2.2797    8.3604 C   0  0  0  0  0  0  0  0  0  0  0  0
    8.4422   -1.3310    7.9587 O   0  0  0  0  0  0  0  0  0  0  0  0
    6.4198   -2.3512    8.3730 O   0  0  0  0  0  0  0  0  0  0  0  0
    5.9599   -3.5438    9.0008 C   0  0  1  0  0  0  0  0  0  0  0  0
    5.0912   -4.4174    8.0871 C   0  0  0  0  0  0  0  0  0  0  0  0
    4.7539   -4.0671    6.9672 O   0  0  0  0  0  0  0  0  0  0  0  0
    4.6903   -5.7783    8.7049 C   0  0  1  0  0  0  0  0  0  0  0  0
    4.5105   -7.0193    7.7853 C   0  0  2  0  0  0  0  0  0  0  0  0
    5.6818   -7.1453    6.7814 C   0  0  0  0  0  0  0  0  0  0  0  0
    3.9349  -10.5756    6.4680 C   0  0  1  0  0  0  0  0  0  0  0  0
    4.1927  -11.9695    6.5888 O   0  0  0  0  0  0  0  0  0  0  0  0
    2.6818  -10.2808    5.6382 C   0  0  2  0  0  0  0  0  0  0  0  0
    2.4753  -10.4397    4.1215 C   0  0  0  0  0  0  0  0  0  0  0  0
    2.3951  -11.9222    3.7375 C   0  0  0  0  0  0  0  0  0  0  0  0
    3.5812   -9.7716    3.2836 C   0  0  0  0  0  0  0  0  0  0  0  0
   -2.7271   -8.8124    1.9970 H   0  0  0  0  0  0  0  0  0  0  0  0
   -1.6647  -10.3029    1.7710 H   0  0  0  0  0  0  0  0  0  0  0  0
   -0.6194   -6.8897    3.9525 H   0  0  0  0  0  0  0  0  0  0  0  0
   -1.9078   -6.8029    2.7289 H   0  0  0  0  0  0  0  0  0  0  0  0
   -0.2234   -6.5092    2.2540 H   0  0  0  0  0  0  0  0  0  0  0  0
    0.7344  -10.0645    1.9406 H   0  0  0  0  0  0  0  0  0  0  0  0
    1.4084   -8.4965    2.2106 H   0  0  0  0  0  0  0  0  0  0  0  0
    0.3415  -10.4805    4.2512 H   0  0  0  0  0  0  0  0  0  0  0  0
    1.1677   -7.6508    4.7203 H   0  0  0  0  0  0  0  0  0  0  0  0
   -0.5752   -9.5921    5.6595 H   0  0  0  0  0  0  0  0  0  0  0  0
    1.9342   -5.7743    8.0835 H   0  0  0  0  0  0  0  0  0  0  0  0
    1.1962   -6.3570    6.6227 H   0  0  0  0  0  0  0  0  0  0  0  0
    2.5760   -5.2935    6.5178 H   0  0  0  0  0  0  0  0  0  0  0  0
    1.6593   -8.6703    8.0885 H   0  0  0  0  0  0  0  0  0  0  0  0
    2.3976  -11.2473    8.3660 H   0  0  0  0  0  0  0  0  0  0  0  0
    3.8551   -8.1009    9.5709 H   0  0  0  0  0  0  0  0  0  0  0  0
    5.2757   -6.0181   10.7526 H   0  0  0  0  0  0  0  0  0  0  0  0
    7.6490   -5.8141   10.7067 H   0  0  0  0  0  0  0  0  0  0  0  0
    7.7705   -6.3125    9.0458 H   0  0  0  0  0  0  0  0  0  0  0  0
   10.1872   -3.6305    7.9692 H   0  0  0  0  0  0  0  0  0  0  0  0
    9.9968   -4.8789    9.2110 H   0  0  0  0  0  0  0  0  0  0  0  0
   10.2561   -3.1843    9.6632 H   0  0  0  0  0  0  0  0  0  0  0  0
    5.4546   -3.3443    9.9425 H   0  0  0  0  0  0  0  0  0  0  0  0
    3.7515   -5.5951    9.2220 H   0  0  0  0  0  0  0  0  0  0  0  0
    6.6402   -7.0328    7.2839 H   0  0  0  0  0  0  0  0  0  0  0  0
    5.6227   -6.3978    5.9898 H   0  0  0  0  0  0  0  0  0  0  0  0
    5.7067   -8.1219    6.3020 H   0  0  0  0  0  0  0  0  0  0  0  0
    4.7807  -10.0701    6.0071 H   0  0  0  0  0  0  0  0  0  0  0  0
    3.3941  -12.3861    6.8847 H   0  0  0  0  0  0  0  0  0  0  0  0
    1.9317  -10.9429    6.0783 H   0  0  0  0  0  0  0  0  0  0  0  0
    3.3459  -12.4287    3.9008 H   0  0  0  0  0  0  0  0  0  0  0  0
    2.1463  -12.0581    2.6881 H   0  0  0  0  0  0  0  0  0  0  0  0
    1.6417  -12.4403    4.3291 H   0  0  0  0  0  0  0  0  0  0  0  0
    4.5543  -10.1745    3.5656 H   0  0  0  0  0  0  0  0  0  0  0  0
    3.6032   -8.6900    3.4251 H   0  0  0  0  0  0  0  0  0  0  0  0
    3.4464   -9.9809    2.2185 H   0  0  0  0  0  0  0  0  0  0  0  0
  1  2  2  0
  1 38  1  0
  1 39  1  0
  2  3  1  0
  2  4  1  0
  3 40  1  0
  3 41  1  0
  3 42  1  0
  4  5  1  0
  4 43  1  0
  4 44  1  0
  5 35  1  0
  5  6  1  0
  5 45  1  1
  6  7  1  0
  6  8  1  0
  6 46  1  6
  7 47  1  0
  8 12  1  0
  8 34  1  0
  8  9  1  6
  9 10  1  0
 10 30  1  0
 10 11  1  6
 10 12  1  0
 11 48  1  0
 11 49  1  0
 11 50  1  0
 12 13  1  0
 12 51  1  1
 13 14  1  1
 13 15  1  0
 13 32  1  0
 14 52  1  0
 15 16  1  0
 16 30  1  0
 16 17  1  0
 16 53  1  1
 17 18  1  0
 18 29  1  0
 18 19  1  0
 18 54  1  1
 19 20  1  0
 19 55  1  0
 19 56  1  0
 20 26  1  0
 20 21  2  0
 21 22  1  0
 21 23  1  0
 22 57  1  0
 22 58  1  0
 22 59  1  0
 23 24  2  0
 23 25  1  0
 25 26  1  0
 26 27  1  0
 26 60  1  1
 27 28  2  0
 27 29  1  0
 29 30  1  0
 29 61  1  1
 30 31  1  6
 31 62  1  0
 31 63  1  0
 31 64  1  0
 32 33  1  0
 32 34  1  0
 32 65  1  6
 33 66  1  0
 34 35  1  0
 34 67  1  1
 35 36  1  0
 35 37  1  0
 36 68  1  0
 36 69  1  0
 36 70  1  0
 37 71  1  0
 37 72  1  0
 37 73  1  0
M  END
>  <i_m_ct_stereo_status>  (322) 
1

>  <s_m_source_file>  (322) 
/var/tmp/pbs.5076255.sched01/tmpebi1rvwe/120qlbjc4nh.sdf

>  <i_m_source_file_index>  (322) 
27

>  <i_lp_mmshare_version>  (322) 
48012

>  <i_f3d_flags>  (322) 
0

>  <s_epik_input>  (322) 
W0NIMl09QyhbQ0gzXSlbQ0gyXVtDQEhdKFtDQEhdMVtPSF0pQyhbQ0gzXSkoW0NIM10pW0NASF0yW0NASF0oW09IXSlbQ0BAXTMoW09IXSlPW0NASF0oW0NAQF00KFtDSDNdKVtDQF0oTzUpKFtDSDNdKVtDQEhdM1tDQF0xMjUpT1tDQEBIXTZbQ0BIXTRDKD1PKVtDQEhdN0MoW0NIMl02KT1DKFtDSDNdKUMoPU8pTzc=

>  <s_epik_cmdline>  (322) 
J2VwaWtfcHl0aG9uJywgJy1waHQnLCAnMi4wJywgJy1waCcsICc3LjAnLCAnLXRuJywgJzgnLCAnLW1hJywgJzIwMCcsICctaW1hZScsICc8aW5maWxlLm1hZT4nLCAnLW9tYWUnLCAnPG91dGZpbGUubWFlPic=

>  <r_lp_tautomer_probability>  (322) 
1

>  <r_epik_Ionization_Penalty>  (322) 
1.05881e-06

>  <r_epik_Ionization_Penalty_Charging>  (322) 
0

>  <r_epik_Ionization_Penalty_Neutral>  (322) 
1.05881e-06

>  <r_epik_State_Penalty>  (322) 
-0

>  <r_epik_Charging_Adjusted_Penalty>  (322) 
0

>  <i_epik_Tot_Q>  (322) 
0

>  <i_epik_Tot_abs_Q>  (322) 
0

>  <s_epik_Chemistry_Notes>  (322) 
This compound has an ester and may undergo hydrolysis at high or low pH. This compound contains an acetal/aminal-like group ( X-CH(R)-Y where X, Y are N, S, or O) that may be acid/base labile, releasing an aldehyde.

>  <s_lp_Force_Field>  (322) 
OPLS3e

>  <r_lp_Energy>  (322) 
51.8008

>  <b_lp_Chiralities_Consistent>  (322) 
1

>  <s_lp_Variant>  (322) 
111:0-1

>  <s_i_glide_gridfile>  (322) 
pfpi4k_grid

>  <i_i_glide_lignum>  (322) 
27

>  <i_i_glide_rotatable_bonds>  (322) 
5

>  <r_i_docking_score>  (322) 
-2.62046

>  <r_i_glide_ligand_efficiency>  (322) 
-0.0708232

>  <r_i_glide_ligand_efficiency_sa>  (322) 
-0.235999

>  <r_i_glide_ligand_efficiency_ln>  (322) 
-0.568316

>  <r_i_glide_gscore>  (322) 
-2.62046

>  <r_i_glide_lipo>  (322) 
-0.236039

>  <r_i_glide_hbond>  (322) 
-0.0736475

>  <r_i_glide_metal>  (322) 
-0

>  <r_i_glide_rewards>  (322) 
-0.0508106

>  <r_i_glide_evdw>  (322) 
-17.4336

>  <r_i_glide_ecoul>  (322) 
-9.95252

>  <r_i_glide_erotb>  (322) 
0.15384

>  <r_i_glide_esite>  (322) 
-0.0492429

>  <r_i_glide_emodel>  (322) 
-30.1645

>  <r_i_glide_energy>  (322) 
-27.3861

>  <r_i_glide_einternal>  (322) 
4.10209

>  <r_i_glide_intrahb_reward>  (322) 
-0

>  <i_i_glide_confnum>  (322) 
3

>  <i_i_glide_posenum>  (322) 
1

>  <r_i_glide_eff_state_penalty>  (322) 
0

>  <ligand_id>  (322) 
111

>  <original_smiles>  (322) 
C=C(C)CC1C(O)C23OC4(C)C2C(O)(OC2OC5CC6=C(C)C(=O)OC6C(=O)C5C24C)C(O)C3C1(C)C

>  <smiles>  (322) 
[H]OC1([H])C2(O[H])OC3([H])OC4([H])C([H])([H])C5=C(C([H])([H])[H])C(=O)OC5([H])C(=O)C4([H])C3(C([H])([H])[H])C3(C([H])([H])[H])OC4(C([H])(O[H])C([H])(C([H])([H])C(=C([H])[H])C([H])([H])[H])C(C([H])([H])[H])(C([H])([H])[H])C14[H])C23[H]

$$$$
111:0:1
     RDKit          3D

 73 79  0  0  1  0  0  0  0  0999 V2000
   -1.6357   -8.3201    2.8612 C   0  0  0  0  0  0  0  0  0  0  0  0
   -0.4459   -8.2002    2.2467 C   0  0  0  0  0  0  0  0  0  0  0  0
   -0.1656   -7.0641    1.2850 C   0  0  0  0  0  0  0  0  0  0  0  0
    0.7111   -9.1742    2.4498 C   0  0  0  0  0  0  0  0  0  0  0  0
    0.9698   -9.5841    3.9206 C   0  0  2  0  0  0  0  0  0  0  0  0
    0.8814   -8.4234    4.9728 C   0  0  1  0  0  0  0  0  0  0  0  0
   -0.3296   -8.5117    5.6883 O   0  0  0  0  0  0  0  0  0  0  0  0
    2.0365   -8.6202    5.9367 C   0  0  1  0  0  0  0  0  0  0  0  0
    3.0284   -7.5846    5.6792 O   0  0  0  0  0  0  0  0  0  0  0  0
    2.8292   -7.0343    7.0157 C   0  0  1  0  0  0  0  0  0  0  0  0
    1.9201   -5.8115    6.8369 C   0  0  0  0  0  0  0  0  0  0  0  0
    2.2043   -8.3770    7.4116 C   0  0  2  0  0  0  0  0  0  0  0  0
    3.1352   -9.5040    7.9480 C   0  0  2  0  0  0  0  0  0  0  0  0
    2.3548  -10.2553    8.8742 O   0  0  0  0  0  0  0  0  0  0  0  0
    4.3233   -9.0117    8.5055 O   0  0  0  0  0  0  0  0  0  0  0  0
    4.2129   -7.7171    8.9870 C   0  0  1  0  0  0  0  0  0  0  0  0
    5.2449   -7.3048    9.8139 O   0  0  0  0  0  0  0  0  0  0  0  0
    5.2263   -5.8831    9.8412 C   0  0  1  0  0  0  0  0  0  0  0  0
    6.7037   -5.3888    9.8816 C   0  0  0  0  0  0  0  0  0  0  0  0
    6.8574   -3.9830    9.3269 C   0  0  0  0  0  0  0  0  0  0  0  0
    7.9585   -3.3048    9.0035 C   0  0  0  0  0  0  0  0  0  0  0  0
    9.4299   -3.6385    9.1930 C   0  0  0  0  0  0  0  0  0  0  0  0
    7.5359   -2.0651    8.3394 C   0  0  0  0  0  0  0  0  0  0  0  0
    8.2693   -1.1599    7.9342 O   0  0  0  0  0  0  0  0  0  0  0  0
    6.1837   -2.0985    8.2441 O   0  0  0  0  0  0  0  0  0  0  0  0
    5.6353   -3.2324    8.9099 C   0  0  1  0  0  0  0  0  0  0  0  0
    4.8331   -4.1512    7.9829 C   0  0  0  0  0  0  0  0  0  0  0  0
    4.5721   -3.8476    6.8265 O   0  0  0  0  0  0  0  0  0  0  0  0
    4.3129   -5.4396    8.6473 C   0  0  1  0  0  0  0  0  0  0  0  0
    4.1585   -6.7337    7.7976 C   0  0  2  0  0  0  0  0  0  0  0  0
    5.4156   -6.9647    6.9174 C   0  0  0  0  0  0  0  0  0  0  0  0
    3.5609  -10.3196    6.6748 C   0  0  1  0  0  0  0  0  0  0  0  0
    3.8268  -11.6837    6.9166 O   0  0  0  0  0  0  0  0  0  0  0  0
    2.4104  -10.0484    5.7045 C   0  0  2  0  0  0  0  0  0  0  0  0
    2.3195  -10.3391    4.2003 C   0  0  0  0  0  0  0  0  0  0  0  0
    2.2168  -11.8438    3.9097 C   0  0  0  0  0  0  0  0  0  0  0  0
    3.5250   -9.7647    3.4315 C   0  0  0  0  0  0  0  0  0  0  0  0
   -2.4282   -7.6027    2.7168 H   0  0  0  0  0  0  0  0  0  0  0  0
   -1.8292   -9.1429    3.5337 H   0  0  0  0  0  0  0  0  0  0  0  0
    0.7474   -6.5375    1.5673 H   0  0  0  0  0  0  0  0  0  0  0  0
   -0.9788   -6.3457    1.2780 H   0  0  0  0  0  0  0  0  0  0  0  0
   -0.0346   -7.4582    0.2797 H   0  0  0  0  0  0  0  0  0  0  0  0
    0.5367  -10.0742    1.8564 H   0  0  0  0  0  0  0  0  0  0  0  0
    1.5900   -8.7029    2.0150 H   0  0  0  0  0  0  0  0  0  0  0  0
    0.1760  -10.2984    4.1594 H   0  0  0  0  0  0  0  0  0  0  0  0
    0.9477   -7.4509    4.4810 H   0  0  0  0  0  0  0  0  0  0  0  0
   -0.6757   -9.3980    5.6269 H   0  0  0  0  0  0  0  0  0  0  0  0
    1.6229   -5.3985    7.7966 H   0  0  0  0  0  0  0  0  0  0  0  0
    0.9896   -6.0457    6.3200 H   0  0  0  0  0  0  0  0  0  0  0  0
    2.4025   -5.0199    6.2666 H   0  0  0  0  0  0  0  0  0  0  0  0
    1.2519   -8.2432    7.9155 H   0  0  0  0  0  0  0  0  0  0  0  0
    1.9632  -11.0028    8.4092 H   0  0  0  0  0  0  0  0  0  0  0  0
    3.3040   -7.6473    9.5908 H   0  0  0  0  0  0  0  0  0  0  0  0
    4.7263   -5.5528   10.7544 H   0  0  0  0  0  0  0  0  0  0  0  0
    7.0972   -5.4358   10.8971 H   0  0  0  0  0  0  0  0  0  0  0  0
    7.3351   -6.0531    9.2904 H   0  0  0  0  0  0  0  0  0  0  0  0
    9.9619   -3.4928    8.2522 H   0  0  0  0  0  0  0  0  0  0  0  0
    9.6026   -4.6575    9.5384 H   0  0  0  0  0  0  0  0  0  0  0  0
    9.8765   -2.9478    9.9097 H   0  0  0  0  0  0  0  0  0  0  0  0
    5.0612   -2.9532    9.7905 H   0  0  0  0  0  0  0  0  0  0  0  0
    3.3411   -5.1951    9.0765 H   0  0  0  0  0  0  0  0  0  0  0  0
    6.3365   -6.8451    7.4847 H   0  0  0  0  0  0  0  0  0  0  0  0
    5.4536   -6.2730    6.0755 H   0  0  0  0  0  0  0  0  0  0  0  0
    5.4494   -7.9688    6.5043 H   0  0  0  0  0  0  0  0  0  0  0  0
    4.4613   -9.8755    6.2503 H   0  0  0  0  0  0  0  0  0  0  0  0
    3.0329  -12.1235    7.2077 H   0  0  0  0  0  0  0  0  0  0  0  0
    1.5933  -10.6490    6.1056 H   0  0  0  0  0  0  0  0  0  0  0  0
    3.1355  -12.3609    4.1825 H   0  0  0  0  0  0  0  0  0  0  0  0
    2.0542  -12.0344    2.8534 H   0  0  0  0  0  0  0  0  0  0  0  0
    1.4021  -12.3154    4.4575 H   0  0  0  0  0  0  0  0  0  0  0  0
    4.4569  -10.1694    3.8250 H   0  0  0  0  0  0  0  0  0  0  0  0
    3.5731   -8.6783    3.4979 H   0  0  0  0  0  0  0  0  0  0  0  0
    3.4875  -10.0441    2.3777 H   0  0  0  0  0  0  0  0  0  0  0  0
  1  2  2  0
  1 38  1  0
  1 39  1  0
  2  3  1  0
  2  4  1  0
  3 40  1  0
  3 41  1  0
  3 42  1  0
  4  5  1  0
  4 43  1  0
  4 44  1  0
  5 35  1  0
  5  6  1  0
  5 45  1  1
  6  7  1  0
  6  8  1  0
  6 46  1  6
  7 47  1  0
  8 12  1  0
  8 34  1  0
  8  9  1  6
  9 10  1  0
 10 30  1  0
 10 11  1  6
 10 12  1  0
 11 48  1  0
 11 49  1  0
 11 50  1  0
 12 13  1  0
 12 51  1  1
 13 14  1  1
 13 15  1  0
 13 32  1  0
 14 52  1  0
 15 16  1  0
 16 30  1  0
 16 17  1  0
 16 53  1  1
 17 18  1  0
 18 29  1  0
 18 19  1  0
 18 54  1  1
 19 20  1  0
 19 55  1  0
 19 56  1  0
 20 26  1  0
 20 21  2  0
 21 22  1  0
 21 23  1  0
 22 57  1  0
 22 58  1  0
 22 59  1  0
 23 24  2  0
 23 25  1  0
 25 26  1  0
 26 27  1  0
 26 60  1  1
 27 28  2  0
 27 29  1  0
 29 30  1  0
 29 61  1  1
 30 31  1  6
 31 62  1  0
 31 63  1  0
 31 64  1  0
 32 33  1  0
 32 34  1  0
 32 65  1  6
 33 66  1  0
 34 35  1  0
 34 67  1  1
 35 36  1  0
 35 37  1  0
 36 68  1  0
 36 69  1  0
 36 70  1  0
 37 71  1  0
 37 72  1  0
 37 73  1  0
M  END
>  <i_m_ct_stereo_status>  (323) 
1

>  <s_m_source_file>  (323) 
/var/tmp/pbs.5076255.sched01/tmpebi1rvwe/120qlbjc4nh.sdf

>  <i_m_source_file_index>  (323) 
27

>  <i_lp_mmshare_version>  (323) 
48012

>  <i_f3d_flags>  (323) 
0

>  <s_epik_input>  (323) 
W0NIMl09QyhbQ0gzXSlbQ0gyXVtDQEhdKFtDQEhdMVtPSF0pQyhbQ0gzXSkoW0NIM10pW0NASF0yW0NASF0oW09IXSlbQ0BAXTMoW09IXSlPW0NASF0oW0NAQF00KFtDSDNdKVtDQF0oTzUpKFtDSDNdKVtDQEhdM1tDQF0xMjUpT1tDQEBIXTZbQ0BIXTRDKD1PKVtDQEhdN0MoW0NIMl02KT1DKFtDSDNdKUMoPU8pTzc=

>  <s_epik_cmdline>  (323) 
J2VwaWtfcHl0aG9uJywgJy1waHQnLCAnMi4wJywgJy1waCcsICc3LjAnLCAnLXRuJywgJzgnLCAnLW1hJywgJzIwMCcsICctaW1hZScsICc8aW5maWxlLm1hZT4nLCAnLW9tYWUnLCAnPG91dGZpbGUubWFlPic=

>  <r_lp_tautomer_probability>  (323) 
1

>  <r_epik_Ionization_Penalty>  (323) 
1.05881e-06

>  <r_epik_Ionization_Penalty_Charging>  (323) 
0

>  <r_epik_Ionization_Penalty_Neutral>  (323) 
1.05881e-06

>  <r_epik_State_Penalty>  (323) 
-0

>  <r_epik_Charging_Adjusted_Penalty>  (323) 
0

>  <i_epik_Tot_Q>  (323) 
0

>  <i_epik_Tot_abs_Q>  (323) 
0

>  <s_epik_Chemistry_Notes>  (323) 
This compound has an ester and may undergo hydrolysis at high or low pH. This compound contains an acetal/aminal-like group ( X-CH(R)-Y where X, Y are N, S, or O) that may be acid/base labile, releasing an aldehyde.

>  <s_lp_Force_Field>  (323) 
OPLS3e

>  <r_lp_Energy>  (323) 
51.8008

>  <b_lp_Chiralities_Consistent>  (323) 
1

>  <s_lp_Variant>  (323) 
111:0-1

>  <s_i_glide_gridfile>  (323) 
pfpi4k_grid

>  <i_i_glide_lignum>  (323) 
27

>  <i_i_glide_rotatable_bonds>  (323) 
5

>  <r_i_docking_score>  (323) 
-2.43318

>  <r_i_glide_ligand_efficiency>  (323) 
-0.0657617

>  <r_i_glide_ligand_efficiency_sa>  (323) 
-0.219133

>  <r_i_glide_ligand_efficiency_ln>  (323) 
-0.5277

>  <r_i_glide_gscore>  (323) 
-2.43318

>  <r_i_glide_lipo>  (323) 
-0.0235065

>  <r_i_glide_hbond>  (323) 
0

>  <r_i_glide_metal>  (323) 
-0

>  <r_i_glide_rewards>  (323) 
-0.0383032

>  <r_i_glide_evdw>  (323) 
-16.2713

>  <r_i_glide_ecoul>  (323) 
-11.1022

>  <r_i_glide_erotb>  (323) 
0.15384

>  <r_i_glide_esite>  (323) 
-0.0463209

>  <r_i_glide_emodel>  (323) 
-28.6957

>  <r_i_glide_energy>  (323) 
-27.3735

>  <r_i_glide_einternal>  (323) 
5.90393

>  <r_i_glide_intrahb_reward>  (323) 
-0

>  <i_i_glide_confnum>  (323) 
3

>  <i_i_glide_posenum>  (323) 
31

>  <r_i_glide_eff_state_penalty>  (323) 
0

>  <ligand_id>  (323) 
111

>  <original_smiles>  (323) 
C=C(C)CC1C(O)C23OC4(C)C2C(O)(OC2OC5CC6=C(C)C(=O)OC6C(=O)C5C24C)C(O)C3C1(C)C

>  <smiles>  (323) 
[H]OC1([H])C2(O[H])OC3([H])OC4([H])C([H])([H])C5=C(C([H])([H])[H])C(=O)OC5([H])C(=O)C4([H])C3(C([H])([H])[H])C3(C([H])([H])[H])OC4(C([H])(O[H])C([H])(C([H])([H])C(=C([H])[H])C([H])([H])[H])C(C([H])([H])[H])(C([H])([H])[H])C14[H])C23[H]

$$$$
111:0:2
     RDKit          3D

 73 79  0  0  1  0  0  0  0  0999 V2000
    3.4073    5.3251    2.8791 C   0  0  0  0  0  0  0  0  0  0  0  0
    2.2303    5.4378    3.5180 C   0  0  0  0  0  0  0  0  0  0  0  0
    1.9252    6.6346    4.4023 C   0  0  0  0  0  0  0  0  0  0  0  0
    1.1305    4.3951    3.3661 C   0  0  0  0  0  0  0  0  0  0  0  0
    0.8191    3.5946    4.6509 C   0  0  2  0  0  0  0  0  0  0  0  0
    1.8415    2.4489    4.9679 C   0  0  1  0  0  0  0  0  0  0  0  0
    2.7023    2.8587    6.0185 O   0  0  0  0  0  0  0  0  0  0  0  0
    1.0071    1.2511    5.4220 C   0  0  1  0  0  0  0  0  0  0  0  0
    1.0057    0.2316    4.3764 O   0  0  0  0  0  0  0  0  0  0  0  0
    1.6979   -0.7028    5.2625 C   0  0  1  0  0  0  0  0  0  0  0  0
    3.1815   -0.6715    4.8811 C   0  0  0  0  0  0  0  0  0  0  0  0
    1.2223    0.1570    6.4368 C   0  0  2  0  0  0  0  0  0  0  0  0
   -0.1779   -0.1598    7.0424 C   0  0  2  0  0  0  0  0  0  0  0  0
   -0.1351    0.1662    8.4219 O   0  0  0  0  0  0  0  0  0  0  0  0
   -0.5792   -1.4842    6.8412 O   0  0  0  0  0  0  0  0  0  0  0  0
    0.4605   -2.3686    6.6712 C   0  0  1  0  0  0  0  0  0  0  0  0
    0.1164   -3.7081    6.7615 O   0  0  0  0  0  0  0  0  0  0  0  0
    1.1525   -4.4533    6.1329 C   0  0  1  0  0  0  0  0  0  0  0  0
    0.4883   -5.6560    5.3929 C   0  0  0  0  0  0  0  0  0  0  0  0
    1.3314   -6.1545    4.2336 C   0  0  0  0  0  0  0  0  0  0  0  0
    1.0250   -7.0117    3.2559 C   0  0  0  0  0  0  0  0  0  0  0  0
   -0.2070   -7.8663    3.0196 C   0  0  0  0  0  0  0  0  0  0  0  0
    2.1425   -6.9997    2.2972 C   0  0  0  0  0  0  0  0  0  0  0  0
    2.2372   -7.6728    1.2808 O   0  0  0  0  0  0  0  0  0  0  0  0
    3.0353   -6.0788    2.7284 O   0  0  0  0  0  0  0  0  0  0  0  0
    2.6733   -5.5375    3.9908 C   0  0  1  0  0  0  0  0  0  0  0  0
    2.4809   -4.0165    3.9697 C   0  0  0  0  0  0  0  0  0  0  0  0
    2.7339   -3.3365    2.9776 O   0  0  0  0  0  0  0  0  0  0  0  0
    1.9796   -3.4142    5.2950 C   0  0  1  0  0  0  0  0  0  0  0  0
    1.0751   -2.1491    5.2737 C   0  0  2  0  0  0  0  0  0  0  0  0
   -0.0506   -2.2961    4.2207 C   0  0  0  0  0  0  0  0  0  0  0  0
   -1.1941    0.7432    6.2531 C   0  0  1  0  0  0  0  0  0  0  0  0
   -2.2850    1.1757    7.0427 O   0  0  0  0  0  0  0  0  0  0  0  0
   -0.3036    1.8891    5.7850 C   0  0  2  0  0  0  0  0  0  0  0  0
   -0.6147    2.9643    4.7369 C   0  0  0  0  0  0  0  0  0  0  0  0
   -1.6593    3.9825    5.2417 C   0  0  0  0  0  0  0  0  0  0  0  0
   -1.1054    2.3667    3.4006 C   0  0  0  0  0  0  0  0  0  0  0  0
    4.1742    6.0780    2.9831 H   0  0  0  0  0  0  0  0  0  0  0  0
    3.6196    4.4803    2.2393 H   0  0  0  0  0  0  0  0  0  0  0  0
    1.0049    7.1218    4.0762 H   0  0  0  0  0  0  0  0  0  0  0  0
    2.7229    7.3761    4.3478 H   0  0  0  0  0  0  0  0  0  0  0  0
    1.8102    6.3445    5.4445 H   0  0  0  0  0  0  0  0  0  0  0  0
    0.2453    4.9346    3.0267 H   0  0  0  0  0  0  0  0  0  0  0  0
    1.3907    3.7076    2.5616 H   0  0  0  0  0  0  0  0  0  0  0  0
    0.8547    4.2924    5.4838 H   0  0  0  0  0  0  0  0  0  0  0  0
    2.4428    2.2092    4.0917 H   0  0  0  0  0  0  0  0  0  0  0  0
    3.2547    3.5494    5.6911 H   0  0  0  0  0  0  0  0  0  0  0  0
    3.7838   -1.2595    5.5698 H   0  0  0  0  0  0  0  0  0  0  0  0
    3.5990    0.3352    4.9105 H   0  0  0  0  0  0  0  0  0  0  0  0
    3.3519   -1.0483    3.8755 H   0  0  0  0  0  0  0  0  0  0  0  0
    2.0190    0.3782    7.1564 H   0  0  0  0  0  0  0  0  0  0  0  0
    0.2108    1.0330    8.5037 H   0  0  0  0  0  0  0  0  0  0  0  0
    1.2033   -2.1931    7.4594 H   0  0  0  0  0  0  0  0  0  0  0  0
    1.8278   -4.8512    6.8961 H   0  0  0  0  0  0  0  0  0  0  0  0
    0.2949   -6.4719    6.0901 H   0  0  0  0  0  0  0  0  0  0  0  0
   -0.4858   -5.3644    5.0004 H   0  0  0  0  0  0  0  0  0  0  0  0
   -0.5694   -7.7286    1.9970 H   0  0  0  0  0  0  0  0  0  0  0  0
   -1.0180   -7.6521    3.7135 H   0  0  0  0  0  0  0  0  0  0  0  0
    0.0540   -8.9238    3.1156 H   0  0  0  0  0  0  0  0  0  0  0  0
    3.3666   -5.8380    4.7725 H   0  0  0  0  0  0  0  0  0  0  0  0
    2.8706   -3.1884    5.8784 H   0  0  0  0  0  0  0  0  0  0  0  0
   -0.5333   -3.2640    4.3042 H   0  0  0  0  0  0  0  0  0  0  0  0
    0.3336   -2.1959    3.2046 H   0  0  0  0  0  0  0  0  0  0  0  0
   -0.8386   -1.5563    4.3371 H   0  0  0  0  0  0  0  0  0  0  0  0
   -1.5574    0.2062    5.3745 H   0  0  0  0  0  0  0  0  0  0  0  0
   -2.7552    1.8180    6.5422 H   0  0  0  0  0  0  0  0  0  0  0  0
   -0.1339    2.4587    6.7016 H   0  0  0  0  0  0  0  0  0  0  0  0
   -2.6408    3.5248    5.3634 H   0  0  0  0  0  0  0  0  0  0  0  0
   -1.7710    4.7938    4.5281 H   0  0  0  0  0  0  0  0  0  0  0  0
   -1.3802    4.4254    6.1986 H   0  0  0  0  0  0  0  0  0  0  0  0
   -2.0000    1.7634    3.5559 H   0  0  0  0  0  0  0  0  0  0  0  0
   -0.3523    1.7399    2.9287 H   0  0  0  0  0  0  0  0  0  0  0  0
   -1.3697    3.1492    2.6882 H   0  0  0  0  0  0  0  0  0  0  0  0
  1  2  2  0
  1 38  1  0
  1 39  1  0
  2  3  1  0
  2  4  1  0
  3 40  1  0
  3 41  1  0
  3 42  1  0
  4  5  1  0
  4 43  1  0
  4 44  1  0
  5 35  1  0
  5  6  1  0
  5 45  1  1
  6  7  1  0
  6  8  1  0
  6 46  1  6
  7 47  1  0
  8 12  1  0
  8 34  1  0
  8  9  1  6
  9 10  1  0
 10 30  1  0
 10 11  1  6
 10 12  1  0
 11 48  1  0
 11 49  1  0
 11 50  1  0
 12 13  1  0
 12 51  1  1
 13 14  1  1
 13 15  1  0
 13 32  1  0
 14 52  1  0
 15 16  1  0
 16 30  1  0
 16 17  1  0
 16 53  1  1
 17 18  1  0
 18 29  1  0
 18 19  1  0
 18 54  1  1
 19 20  1  0
 19 55  1  0
 19 56  1  0
 20 26  1  0
 20 21  2  0
 21 22  1  0
 21 23  1  0
 22 57  1  0
 22 58  1  0
 22 59  1  0
 23 24  2  0
 23 25  1  0
 25 26  1  0
 26 27  1  0
 26 60  1  1
 27 28  2  0
 27 29  1  0
 29 30  1  0
 29 61  1  1
 30 31  1  6
 31 62  1  0
 31 63  1  0
 31 64  1  0
 32 33  1  0
 32 34  1  0
 32 65  1  6
 33 66  1  0
 34 35  1  0
 34 67  1  1
 35 36  1  0
 35 37  1  0
 36 68  1  0
 36 69  1  0
 36 70  1  0
 37 71  1  0
 37 72  1  0
 37 73  1  0
M  END
>  <i_m_ct_stereo_status>  (324) 
1

>  <s_m_source_file>  (324) 
/var/tmp/pbs.5076255.sched01/tmpebi1rvwe/120qlbjc4nh.sdf

>  <i_m_source_file_index>  (324) 
27

>  <i_lp_mmshare_version>  (324) 
48012

>  <i_f3d_flags>  (324) 
0

>  <s_epik_input>  (324) 
W0NIMl09QyhbQ0gzXSlbQ0gyXVtDQEhdKFtDQEhdMVtPSF0pQyhbQ0gzXSkoW0NIM10pW0NASF0yW0NASF0oW09IXSlbQ0BAXTMoW09IXSlPW0NASF0oW0NAQF00KFtDSDNdKVtDQF0oTzUpKFtDSDNdKVtDQEhdM1tDQF0xMjUpT1tDQEBIXTZbQ0BIXTRDKD1PKVtDQEhdN0MoW0NIMl02KT1DKFtDSDNdKUMoPU8pTzc=

>  <s_epik_cmdline>  (324) 
J2VwaWtfcHl0aG9uJywgJy1waHQnLCAnMi4wJywgJy1waCcsICc3LjAnLCAnLXRuJywgJzgnLCAnLW1hJywgJzIwMCcsICctaW1hZScsICc8aW5maWxlLm1hZT4nLCAnLW9tYWUnLCAnPG91dGZpbGUubWFlPic=

>  <r_lp_tautomer_probability>  (324) 
1

>  <r_epik_Ionization_Penalty>  (324) 
1.05881e-06

>  <r_epik_Ionization_Penalty_Charging>  (324) 
0

>  <r_epik_Ionization_Penalty_Neutral>  (324) 
1.05881e-06

>  <r_epik_State_Penalty>  (324) 
-0

>  <r_epik_Charging_Adjusted_Penalty>  (324) 
0

>  <i_epik_Tot_Q>  (324) 
0

>  <i_epik_Tot_abs_Q>  (324) 
0

>  <s_epik_Chemistry_Notes>  (324) 
This compound has an ester and may undergo hydrolysis at high or low pH. This compound contains an acetal/aminal-like group ( X-CH(R)-Y where X, Y are N, S, or O) that may be acid/base labile, releasing an aldehyde.

>  <s_lp_Force_Field>  (324) 
OPLS3e

>  <r_lp_Energy>  (324) 
51.8008

>  <b_lp_Chiralities_Consistent>  (324) 
1

>  <s_lp_Variant>  (324) 
111:0-1

>  <s_i_glide_gridfile>  (324) 
pfpi4k_grid

>  <i_i_glide_lignum>  (324) 
27

>  <i_i_glide_rotatable_bonds>  (324) 
5

>  <r_i_docking_score>  (324) 
-1.95528

>  <r_i_glide_ligand_efficiency>  (324) 
-0.0528455

>  <r_i_glide_ligand_efficiency_sa>  (324) 
-0.176093

>  <r_i_glide_ligand_efficiency_ln>  (324) 
-0.424055

>  <r_i_glide_gscore>  (324) 
-1.95528

>  <r_i_glide_lipo>  (324) 
-0.0975728

>  <r_i_glide_hbond>  (324) 
-0.000940839

>  <r_i_glide_metal>  (324) 
-0

>  <r_i_glide_rewards>  (324) 
-0.000504026

>  <r_i_glide_evdw>  (324) 
-21.9707

>  <r_i_glide_ecoul>  (324) 
-5.53553

>  <r_i_glide_erotb>  (324) 
0.15384

>  <r_i_glide_esite>  (324) 
-0.0812409

>  <r_i_glide_emodel>  (324) 
-29.6698

>  <r_i_glide_energy>  (324) 
-27.5062

>  <r_i_glide_einternal>  (324) 
3.52057

>  <r_i_glide_intrahb_reward>  (324) 
-0

>  <i_i_glide_confnum>  (324) 
3

>  <i_i_glide_posenum>  (324) 
15

>  <r_i_glide_eff_state_penalty>  (324) 
0

>  <ligand_id>  (324) 
111

>  <original_smiles>  (324) 
C=C(C)CC1C(O)C23OC4(C)C2C(O)(OC2OC5CC6=C(C)C(=O)OC6C(=O)C5C24C)C(O)C3C1(C)C

>  <smiles>  (324) 
[H]OC1([H])C2(O[H])OC3([H])OC4([H])C([H])([H])C5=C(C([H])([H])[H])C(=O)OC5([H])C(=O)C4([H])C3(C([H])([H])[H])C3(C([H])([H])[H])OC4(C([H])(O[H])C([H])(C([H])([H])C(=C([H])[H])C([H])([H])[H])C(C([H])([H])[H])(C([H])([H])[H])C14[H])C23[H]

$$$$
112:0:0
     RDKit          3D

 11 11  0  0  1  0  0  0  0  0999 V2000
    2.7331  -10.3536    2.7246 C   0  0  0  0  0  0  0  0  0  0  0  0
    1.4578   -9.7285    2.8813 O   0  0  0  0  0  0  0  0  0  0  0  0
    1.2901   -8.4867    2.3568 C   0  0  0  0  0  0  0  0  0  0  0  0
    0.0261   -7.8648    2.0810 C   0  0  0  0  0  0  0  0  0  0  0  0
    0.0863   -6.6560    1.5670 N   0  0  0  0  0  0  0  0  0  0  0  0
    1.7195   -6.3048    1.4492 S   0  0  0  0  0  0  0  0  0  0  0  0
    2.3325   -7.7319    2.0699 N   0  0  0  0  0  0  0  0  0  0  0  0
    2.7222  -11.3460    3.1773 H   0  0  0  0  0  0  0  0  0  0  0  0
    3.5238   -9.7780    3.2122 H   0  0  0  0  0  0  0  0  0  0  0  0
    2.9726  -10.4734    1.6677 H   0  0  0  0  0  0  0  0  0  0  0  0
   -0.9369   -8.3195    2.2509 H   0  0  0  0  0  0  0  0  0  0  0  0
  1  2  1  0
  1  8  1  0
  1  9  1  0
  1 10  1  0
  2  3  1  0
  3  7  2  0
  3  4  1  0
  4  5  2  0
  4 11  1  0
  5  6  1  0
  6  7  1  0
M  END
>  <i_m_ct_stereo_status>  (325) 
1

>  <s_m_source_file>  (325) 
/var/tmp/pbs.5076255.sched01/tmpebi1rvwe/120qlbjc4nh.sdf

>  <i_m_source_file_index>  (325) 
28

>  <i_lp_mmshare_version>  (325) 
48012

>  <i_f3d_flags>  (325) 
0

>  <s_epik_input>  (325) 
W0NIM11PYzFbY0hdbnNuMQ==

>  <s_epik_cmdline>  (325) 
J2VwaWtfcHl0aG9uJywgJy1waHQnLCAnMi4wJywgJy1waCcsICc3LjAnLCAnLXRuJywgJzgnLCAnLW1hJywgJzIwMCcsICctaW1hZScsICc8aW5maWxlLm1hZT4nLCAnLW9tYWUnLCAnPG91dGZpbGUubWFlPic=

>  <r_lp_tautomer_probability>  (325) 
1

>  <r_epik_Ionization_Penalty>  (325) 
3.67837e-13

>  <r_epik_Ionization_Penalty_Charging>  (325) 
0

>  <r_epik_Ionization_Penalty_Neutral>  (325) 
3.67837e-13

>  <r_epik_State_Penalty>  (325) 
-0

>  <r_epik_Charging_Adjusted_Penalty>  (325) 
0

>  <i_epik_Tot_Q>  (325) 
0

>  <i_epik_Tot_abs_Q>  (325) 
0

>  <s_lp_Force_Field>  (325) 
OPLS3e

>  <r_lp_Energy>  (325) 
1.68255

>  <b_lp_Chiralities_Consistent>  (325) 
1

>  <s_lp_Variant>  (325) 
112:0-1

>  <s_i_glide_gridfile>  (325) 
pfpi4k_grid

>  <i_i_glide_lignum>  (325) 
28

>  <i_i_glide_rotatable_bonds>  (325) 
1

>  <r_i_docking_score>  (325) 
-3.34018

>  <r_i_glide_ligand_efficiency>  (325) 
-0.477168

>  <r_i_glide_ligand_efficiency_sa>  (325) 
-0.91279

>  <r_i_glide_ligand_efficiency_ln>  (325) 
-1.13384

>  <r_i_glide_gscore>  (325) 
-3.34018

>  <r_i_glide_lipo>  (325) 
0

>  <r_i_glide_hbond>  (325) 
-0.162034

>  <r_i_glide_metal>  (325) 
-0

>  <r_i_glide_rewards>  (325) 
-2.25

>  <r_i_glide_evdw>  (325) 
-11.1504

>  <r_i_glide_ecoul>  (325) 
-2.4708

>  <r_i_glide_erotb>  (325) 
0

>  <r_i_glide_esite>  (325) 
0

>  <r_i_glide_emodel>  (325) 
-15.9009

>  <r_i_glide_energy>  (325) 
-13.6212

>  <r_i_glide_einternal>  (325) 
2.87482

>  <r_i_glide_intrahb_reward>  (325) 
-0

>  <i_i_glide_confnum>  (325) 
2

>  <i_i_glide_posenum>  (325) 
3

>  <r_i_glide_eff_state_penalty>  (325) 
0

>  <ligand_id>  (325) 
112

>  <original_smiles>  (325) 
COc1cnsn1

>  <smiles>  (325) 
[H]c1nsnc1OC([H])([H])[H]

$$$$
112:0:1
     RDKit          3D

 11 11  0  0  1  0  0  0  0  0999 V2000
   -1.8780   -9.0758    2.5214 C   0  0  0  0  0  0  0  0  0  0  0  0
   -1.6769   -7.7644    3.0174 O   0  0  0  0  0  0  0  0  0  0  0  0
   -0.8398   -7.6512    4.0752 C   0  0  0  0  0  0  0  0  0  0  0  0
   -0.1862   -8.6662    4.8535 C   0  0  0  0  0  0  0  0  0  0  0  0
    0.5621   -8.2147    5.8340 N   0  0  0  0  0  0  0  0  0  0  0  0
    0.4456   -6.5475    5.7553 S   0  0  0  0  0  0  0  0  0  0  0  0
   -0.5813   -6.4185    4.4462 N   0  0  0  0  0  0  0  0  0  0  0  0
   -2.5704   -9.0489    1.6829 H   0  0  0  0  0  0  0  0  0  0  0  0
   -2.3173   -9.7204    3.2777 H   0  0  0  0  0  0  0  0  0  0  0  0
   -0.9441   -9.5213    2.1798 H   0  0  0  0  0  0  0  0  0  0  0  0
   -0.2493   -9.7377    4.7178 H   0  0  0  0  0  0  0  0  0  0  0  0
  1  2  1  0
  1  8  1  0
  1  9  1  0
  1 10  1  0
  2  3  1  0
  3  7  2  0
  3  4  1  0
  4  5  2  0
  4 11  1  0
  5  6  1  0
  6  7  1  0
M  END
>  <i_m_ct_stereo_status>  (326) 
1

>  <s_m_source_file>  (326) 
/var/tmp/pbs.5076255.sched01/tmpebi1rvwe/120qlbjc4nh.sdf

>  <i_m_source_file_index>  (326) 
28

>  <i_lp_mmshare_version>  (326) 
48012

>  <i_f3d_flags>  (326) 
0

>  <s_epik_input>  (326) 
W0NIM11PYzFbY0hdbnNuMQ==

>  <s_epik_cmdline>  (326) 
J2VwaWtfcHl0aG9uJywgJy1waHQnLCAnMi4wJywgJy1waCcsICc3LjAnLCAnLXRuJywgJzgnLCAnLW1hJywgJzIwMCcsICctaW1hZScsICc8aW5maWxlLm1hZT4nLCAnLW9tYWUnLCAnPG91dGZpbGUubWFlPic=

>  <r_lp_tautomer_probability>  (326) 
1

>  <r_epik_Ionization_Penalty>  (326) 
3.67837e-13

>  <r_epik_Ionization_Penalty_Charging>  (326) 
0

>  <r_epik_Ionization_Penalty_Neutral>  (326) 
3.67837e-13

>  <r_epik_State_Penalty>  (326) 
-0

>  <r_epik_Charging_Adjusted_Penalty>  (326) 
0

>  <i_epik_Tot_Q>  (326) 
0

>  <i_epik_Tot_abs_Q>  (326) 
0

>  <s_lp_Force_Field>  (326) 
OPLS3e

>  <r_lp_Energy>  (326) 
1.68255

>  <b_lp_Chiralities_Consistent>  (326) 
1

>  <s_lp_Variant>  (326) 
112:0-1

>  <s_i_glide_gridfile>  (326) 
pfpi4k_grid

>  <i_i_glide_lignum>  (326) 
28

>  <i_i_glide_rotatable_bonds>  (326) 
1

>  <r_i_docking_score>  (326) 
-3.31185

>  <r_i_glide_ligand_efficiency>  (326) 
-0.473122

>  <r_i_glide_ligand_efficiency_sa>  (326) 
-0.905049

>  <r_i_glide_ligand_efficiency_ln>  (326) 
-1.12422

>  <r_i_glide_gscore>  (326) 
-3.31185

>  <r_i_glide_lipo>  (326) 
-0.221419

>  <r_i_glide_hbond>  (326) 
0

>  <r_i_glide_metal>  (326) 
-0

>  <r_i_glide_rewards>  (326) 
-2.25

>  <r_i_glide_evdw>  (326) 
-11.2997

>  <r_i_glide_ecoul>  (326) 
-1.83631

>  <r_i_glide_erotb>  (326) 
0

>  <r_i_glide_esite>  (326) 
0

>  <r_i_glide_emodel>  (326) 
-16.8415

>  <r_i_glide_energy>  (326) 
-13.136

>  <r_i_glide_einternal>  (326) 
0.0246363

>  <r_i_glide_intrahb_reward>  (326) 
-0

>  <i_i_glide_confnum>  (326) 
1

>  <i_i_glide_posenum>  (326) 
26

>  <r_i_glide_eff_state_penalty>  (326) 
0

>  <ligand_id>  (326) 
112

>  <original_smiles>  (326) 
COc1cnsn1

>  <smiles>  (326) 
[H]c1nsnc1OC([H])([H])[H]

$$$$
112:0:2
     RDKit          3D

 11 11  0  0  1  0  0  0  0  0999 V2000
    0.1117    1.2865    1.7847 C   0  0  0  0  0  0  0  0  0  0  0  0
   -0.5221    0.8992    2.9937 O   0  0  0  0  0  0  0  0  0  0  0  0
   -1.0879    1.8952    3.7166 C   0  0  0  0  0  0  0  0  0  0  0  0
   -1.2748    3.2793    3.3908 C   0  0  0  0  0  0  0  0  0  0  0  0
   -1.8527    4.0048    4.3188 N   0  0  0  0  0  0  0  0  0  0  0  0
   -2.1702    2.9445    5.5690 S   0  0  0  0  0  0  0  0  0  0  0  0
   -1.5390    1.5473    4.8986 N   0  0  0  0  0  0  0  0  0  0  0  0
    0.5203    0.4060    1.2935 H   0  0  0  0  0  0  0  0  0  0  0  0
    0.9344    1.9796    1.9617 H   0  0  0  0  0  0  0  0  0  0  0  0
   -0.5852    1.7452    1.0905 H   0  0  0  0  0  0  0  0  0  0  0  0
   -0.9843    3.7676    2.4797 H   0  0  0  0  0  0  0  0  0  0  0  0
  1  2  1  0
  1  8  1  0
  1  9  1  0
  1 10  1  0
  2  3  1  0
  3  7  2  0
  3  4  1  0
  4  5  2  0
  4 11  1  0
  5  6  1  0
  6  7  1  0
M  END
>  <i_m_ct_stereo_status>  (327) 
1

>  <s_m_source_file>  (327) 
/var/tmp/pbs.5076255.sched01/tmpebi1rvwe/120qlbjc4nh.sdf

>  <i_m_source_file_index>  (327) 
28

>  <i_lp_mmshare_version>  (327) 
48012

>  <i_f3d_flags>  (327) 
0

>  <s_epik_input>  (327) 
W0NIM11PYzFbY0hdbnNuMQ==

>  <s_epik_cmdline>  (327) 
J2VwaWtfcHl0aG9uJywgJy1waHQnLCAnMi4wJywgJy1waCcsICc3LjAnLCAnLXRuJywgJzgnLCAnLW1hJywgJzIwMCcsICctaW1hZScsICc8aW5maWxlLm1hZT4nLCAnLW9tYWUnLCAnPG91dGZpbGUubWFlPic=

>  <r_lp_tautomer_probability>  (327) 
1

>  <r_epik_Ionization_Penalty>  (327) 
3.67837e-13

>  <r_epik_Ionization_Penalty_Charging>  (327) 
0

>  <r_epik_Ionization_Penalty_Neutral>  (327) 
3.67837e-13

>  <r_epik_State_Penalty>  (327) 
-0

>  <r_epik_Charging_Adjusted_Penalty>  (327) 
0

>  <i_epik_Tot_Q>  (327) 
0

>  <i_epik_Tot_abs_Q>  (327) 
0

>  <s_lp_Force_Field>  (327) 
OPLS3e

>  <r_lp_Energy>  (327) 
1.68255

>  <b_lp_Chiralities_Consistent>  (327) 
1

>  <s_lp_Variant>  (327) 
112:0-1

>  <s_i_glide_gridfile>  (327) 
pfpi4k_grid

>  <i_i_glide_lignum>  (327) 
28

>  <i_i_glide_rotatable_bonds>  (327) 
1

>  <r_i_docking_score>  (327) 
-3.19961

>  <r_i_glide_ligand_efficiency>  (327) 
-0.457087

>  <r_i_glide_ligand_efficiency_sa>  (327) 
-0.874377

>  <r_i_glide_ligand_efficiency_ln>  (327) 
-1.08612

>  <r_i_glide_gscore>  (327) 
-3.19961

>  <r_i_glide_lipo>  (327) 
-0.0229067

>  <r_i_glide_hbond>  (327) 
-0.00103717

>  <r_i_glide_metal>  (327) 
-0

>  <r_i_glide_rewards>  (327) 
-2.25

>  <r_i_glide_evdw>  (327) 
-11.0671

>  <r_i_glide_ecoul>  (327) 
-2.48209

>  <r_i_glide_erotb>  (327) 
0

>  <r_i_glide_esite>  (327) 
0

>  <r_i_glide_emodel>  (327) 
-17.1007

>  <r_i_glide_energy>  (327) 
-13.5492

>  <r_i_glide_einternal>  (327) 
0.0638946

>  <r_i_glide_intrahb_reward>  (327) 
-0

>  <i_i_glide_confnum>  (327) 
1

>  <i_i_glide_posenum>  (327) 
29

>  <r_i_glide_eff_state_penalty>  (327) 
0

>  <ligand_id>  (327) 
112

>  <original_smiles>  (327) 
COc1cnsn1

>  <smiles>  (327) 
[H]c1nsnc1OC([H])([H])[H]

$$$$
113:0:0
     RDKit          3D

 30 32  0  0  1  0  0  0  0  0999 V2000
    3.7805    0.3084    1.1782 O   0  0  0  0  0  0  0  0  0  0  0  0
    3.5322   -0.8959    1.2418 C   0  0  0  0  0  0  0  0  0  0  0  0
    2.6903   -1.4169    2.3561 C   0  0  0  0  0  0  0  0  0  0  0  0
    1.4309   -0.9701    2.6425 C   0  0  0  0  0  0  0  0  0  0  0  0
    0.8234   -1.9048    3.9521 S   0  0  0  0  0  0  0  0  0  0  0  0
    2.2325   -2.7901    4.0998 N   0  0  0  0  0  0  0  0  0  0  0  0
    3.1402   -2.3909    3.2583 N   0  0  0  0  0  0  0  0  0  0  0  0
    3.9353   -1.7760    0.2830 N   0  0  0  0  0  0  0  0  0  0  0  0
    3.6199   -3.2274    0.2486 C   0  0  0  0  0  0  0  0  0  0  0  0
    2.6680   -3.5438   -0.9233 C   0  0  0  0  0  0  0  0  0  0  0  0
    3.2983   -3.0477   -2.2309 C   0  0  1  0  0  0  0  0  0  0  0  0
    4.4318   -3.8605   -2.4939 O   0  0  0  0  0  0  0  0  0  0  0  0
    2.4511   -3.0157   -3.4986 C   0  0  0  0  0  0  0  0  0  0  0  0
    3.1242   -2.0475   -4.3218 O   0  0  0  0  0  0  0  0  0  0  0  0
    3.9665   -1.2010   -3.5293 C   0  0  0  0  0  0  0  0  0  0  0  0
    3.6206   -1.5756   -2.1012 C   0  0  2  0  0  0  0  0  0  0  0  0
    4.6053   -1.3180   -0.9507 C   0  0  0  0  0  0  0  0  0  0  0  0
    0.8480   -0.1971    2.1698 H   0  0  0  0  0  0  0  0  0  0  0  0
    4.5639   -3.7680    0.1335 H   0  0  0  0  0  0  0  0  0  0  0  0
    3.1564   -3.6335    1.1442 H   0  0  0  0  0  0  0  0  0  0  0  0
    2.4738   -4.6143   -0.9504 H   0  0  0  0  0  0  0  0  0  0  0  0
    1.7068   -3.0625   -0.7459 H   0  0  0  0  0  0  0  0  0  0  0  0
    4.1178   -4.7641   -2.5553 H   0  0  0  0  0  0  0  0  0  0  0  0
    2.3246   -3.9882   -3.9797 H   0  0  0  0  0  0  0  0  0  0  0  0
    1.4520   -2.6409   -3.2677 H   0  0  0  0  0  0  0  0  0  0  0  0
    5.0106   -1.4274   -3.7529 H   0  0  0  0  0  0  0  0  0  0  0  0
    3.7781   -0.1458   -3.7385 H   0  0  0  0  0  0  0  0  0  0  0  0
    2.6965   -1.0393   -1.8704 H   0  0  0  0  0  0  0  0  0  0  0  0
    4.8738   -0.2593   -0.9334 H   0  0  0  0  0  0  0  0  0  0  0  0
    5.5352   -1.8771   -1.0845 H   0  0  0  0  0  0  0  0  0  0  0  0
  1  2  2  0
  2  3  1  0
  2  8  1  0
  3  7  1  0
  3  4  2  0
  4  5  1  0
  4 18  1  0
  5  6  1  0
  6  7  2  0
  8 17  1  0
  8  9  1  0
  9 10  1  0
  9 19  1  0
  9 20  1  0
 10 11  1  0
 10 21  1  0
 10 22  1  0
 11 16  1  0
 11 12  1  6
 11 13  1  0
 12 23  1  0
 13 14  1  0
 13 24  1  0
 13 25  1  0
 14 15  1  0
 15 16  1  0
 15 26  1  0
 15 27  1  0
 16 17  1  0
 16 28  1  1
 17 29  1  0
 17 30  1  0
M  END
>  <i_m_ct_stereo_status>  (328) 
1

>  <s_m_source_file>  (328) 
/var/tmp/pbs.5076255.sched01/tmpebi1rvwe/120qlbjc4nh.sdf

>  <i_m_source_file_index>  (328) 
29

>  <i_lp_mmshare_version>  (328) 
48012

>  <i_f3d_flags>  (328) 
0

>  <s_epik_input>  (328) 
bjFuc1tjSF1jMUMoPU8pTihbQ0gyXVtDSDJdMilbQ0gyXVtDQEhdKFtDQEBdMjNbT0hdKVtDSDJdT1tDSDJdMw==

>  <s_epik_cmdline>  (328) 
J2VwaWtfcHl0aG9uJywgJy1waHQnLCAnMi4wJywgJy1waCcsICc3LjAnLCAnLXRuJywgJzgnLCAnLW1hJywgJzIwMCcsICctaW1hZScsICc8aW5maWxlLm1hZT4nLCAnLW9tYWUnLCAnPG91dGZpbGUubWFlPic=

>  <r_lp_tautomer_probability>  (328) 
1

>  <r_epik_Ionization_Penalty>  (328) 
3.14746e-08

>  <r_epik_Ionization_Penalty_Charging>  (328) 
0

>  <r_epik_Ionization_Penalty_Neutral>  (328) 
3.14746e-08

>  <r_epik_State_Penalty>  (328) 
-0

>  <r_epik_Charging_Adjusted_Penalty>  (328) 
0

>  <i_epik_Tot_Q>  (328) 
0

>  <i_epik_Tot_abs_Q>  (328) 
0

>  <s_lp_Force_Field>  (328) 
OPLS3e

>  <r_lp_Energy>  (328) 
14.5821

>  <b_lp_Chiralities_Consistent>  (328) 
1

>  <s_lp_Variant>  (328) 
113:0-1

>  <s_i_glide_gridfile>  (328) 
pfpi4k_grid

>  <i_i_glide_lignum>  (328) 
29

>  <i_i_glide_rotatable_bonds>  (328) 
3

>  <r_i_docking_score>  (328) 
-4.1705

>  <r_i_glide_ligand_efficiency>  (328) 
-0.245324

>  <r_i_glide_ligand_efficiency_sa>  (328) 
-0.630796

>  <r_i_glide_ligand_efficiency_ln>  (328) 
-1.08799

>  <r_i_glide_gscore>  (328) 
-4.1705

>  <r_i_glide_lipo>  (328) 
-0.446124

>  <r_i_glide_hbond>  (328) 
-0.22564

>  <r_i_glide_metal>  (328) 
-0

>  <r_i_glide_rewards>  (328) 
-1.66845

>  <r_i_glide_evdw>  (328) 
-24.3034

>  <r_i_glide_ecoul>  (328) 
-7.34788

>  <r_i_glide_erotb>  (328) 
0.540214

>  <r_i_glide_esite>  (328) 
-0.053157

>  <r_i_glide_emodel>  (328) 
-38.2479

>  <r_i_glide_energy>  (328) 
-31.6512

>  <r_i_glide_einternal>  (328) 
2.51556

>  <r_i_glide_intrahb_reward>  (328) 
-0

>  <i_i_glide_confnum>  (328) 
1

>  <i_i_glide_posenum>  (328) 
13

>  <r_i_glide_eff_state_penalty>  (328) 
0

>  <ligand_id>  (328) 
113

>  <original_smiles>  (328) 
O=C(c1csnn1)N1CCC2(O)COCC2C1

>  <smiles>  (328) 
[H]OC12C([H])([H])OC([H])([H])C1([H])C([H])([H])N(C(=O)c1nnsc1[H])C([H])([H])C2([H])[H]

$$$$
113:0:1
     RDKit          3D

 30 32  0  0  1  0  0  0  0  0999 V2000
    3.5518    0.3240    1.2539 O   0  0  0  0  0  0  0  0  0  0  0  0
    3.2789   -0.8790    1.3189 C   0  0  0  0  0  0  0  0  0  0  0  0
    2.3709   -1.3658    2.4029 C   0  0  0  0  0  0  0  0  0  0  0  0
    2.5674   -2.4567    3.2060 C   0  0  0  0  0  0  0  0  0  0  0  0
    1.2381   -2.5948    4.2877 S   0  0  0  0  0  0  0  0  0  0  0  0
    0.5362   -1.1803    3.7363 N   0  0  0  0  0  0  0  0  0  0  0  0
    1.2196   -0.6441    2.7660 N   0  0  0  0  0  0  0  0  0  0  0  0
    3.7540   -1.7767    0.4036 N   0  0  0  0  0  0  0  0  0  0  0  0
    3.4367   -3.2261    0.3277 C   0  0  0  0  0  0  0  0  0  0  0  0
    2.6189   -3.5365   -0.9360 C   0  0  0  0  0  0  0  0  0  0  0  0
    3.3670   -3.0383   -2.1731 C   0  0  1  0  0  0  0  0  0  0  0  0
    4.5300   -3.8450   -2.3034 O   0  0  0  0  0  0  0  0  0  0  0  0
    2.6525   -3.0061   -3.5237 C   0  0  0  0  0  0  0  0  0  0  0  0
    3.4079   -2.0427   -4.2786 O   0  0  0  0  0  0  0  0  0  0  0  0
    4.1678   -1.2071   -3.3949 C   0  0  0  0  0  0  0  0  0  0  0  0
    3.6794   -1.5715   -2.0072 C   0  0  2  0  0  0  0  0  0  0  0  0
    4.5457   -1.3193   -0.7590 C   0  0  0  0  0  0  0  0  0  0  0  0
    3.3750   -3.1761    3.2016 H   0  0  0  0  0  0  0  0  0  0  0  0
    4.3837   -3.7751    0.3100 H   0  0  0  0  0  0  0  0  0  0  0  0
    2.8455   -3.6413    1.1348 H   0  0  0  0  0  0  0  0  0  0  0  0
    2.4107   -4.5983   -0.9943 H   0  0  0  0  0  0  0  0  0  0  0  0
    1.6441   -3.0634   -0.8698 H   0  0  0  0  0  0  0  0  0  0  0  0
    4.2361   -4.7477   -2.3488 H   0  0  0  0  0  0  0  0  0  0  0  0
    2.5711   -3.9810   -4.0092 H   0  0  0  0  0  0  0  0  0  0  0  0
    1.6427   -2.6141   -3.3888 H   0  0  0  0  0  0  0  0  0  0  0  0
    5.2140   -1.4804   -3.4799 H   0  0  0  0  0  0  0  0  0  0  0  0
    4.0366   -0.1466   -3.6206 H   0  0  0  0  0  0  0  0  0  0  0  0
    2.7416   -1.0274   -1.8690 H   0  0  0  0  0  0  0  0  0  0  0  0
    4.8219   -0.2621   -0.7214 H   0  0  0  0  0  0  0  0  0  0  0  0
    5.4882   -1.8695   -0.8026 H   0  0  0  0  0  0  0  0  0  0  0  0
  1  2  2  0
  2  3  1  0
  2  8  1  0
  3  7  1  0
  3  4  2  0
  4  5  1  0
  4 18  1  0
  5  6  1  0
  6  7  2  0
  8 17  1  0
  8  9  1  0
  9 10  1  0
  9 19  1  0
  9 20  1  0
 10 11  1  0
 10 21  1  0
 10 22  1  0
 11 16  1  0
 11 12  1  6
 11 13  1  0
 12 23  1  0
 13 14  1  0
 13 24  1  0
 13 25  1  0
 14 15  1  0
 15 16  1  0
 15 26  1  0
 15 27  1  0
 16 17  1  0
 16 28  1  1
 17 29  1  0
 17 30  1  0
M  END
>  <i_m_ct_stereo_status>  (329) 
1

>  <s_m_source_file>  (329) 
/var/tmp/pbs.5076255.sched01/tmpebi1rvwe/120qlbjc4nh.sdf

>  <i_m_source_file_index>  (329) 
29

>  <i_lp_mmshare_version>  (329) 
48012

>  <i_f3d_flags>  (329) 
0

>  <s_epik_input>  (329) 
bjFuc1tjSF1jMUMoPU8pTihbQ0gyXVtDSDJdMilbQ0gyXVtDQEhdKFtDQEBdMjNbT0hdKVtDSDJdT1tDSDJdMw==

>  <s_epik_cmdline>  (329) 
J2VwaWtfcHl0aG9uJywgJy1waHQnLCAnMi4wJywgJy1waCcsICc3LjAnLCAnLXRuJywgJzgnLCAnLW1hJywgJzIwMCcsICctaW1hZScsICc8aW5maWxlLm1hZT4nLCAnLW9tYWUnLCAnPG91dGZpbGUubWFlPic=

>  <r_lp_tautomer_probability>  (329) 
1

>  <r_epik_Ionization_Penalty>  (329) 
3.14746e-08

>  <r_epik_Ionization_Penalty_Charging>  (329) 
0

>  <r_epik_Ionization_Penalty_Neutral>  (329) 
3.14746e-08

>  <r_epik_State_Penalty>  (329) 
-0

>  <r_epik_Charging_Adjusted_Penalty>  (329) 
0

>  <i_epik_Tot_Q>  (329) 
0

>  <i_epik_Tot_abs_Q>  (329) 
0

>  <s_lp_Force_Field>  (329) 
OPLS3e

>  <r_lp_Energy>  (329) 
14.5821

>  <b_lp_Chiralities_Consistent>  (329) 
1

>  <s_lp_Variant>  (329) 
113:0-1

>  <s_i_glide_gridfile>  (329) 
pfpi4k_grid

>  <i_i_glide_lignum>  (329) 
29

>  <i_i_glide_rotatable_bonds>  (329) 
3

>  <r_i_docking_score>  (329) 
-3.99182

>  <r_i_glide_ligand_efficiency>  (329) 
-0.234813

>  <r_i_glide_ligand_efficiency_sa>  (329) 
-0.603771

>  <r_i_glide_ligand_efficiency_ln>  (329) 
-1.04138

>  <r_i_glide_gscore>  (329) 
-3.99182

>  <r_i_glide_lipo>  (329) 
-0.388796

>  <r_i_glide_hbond>  (329) 
-0.287774

>  <r_i_glide_metal>  (329) 
-0

>  <r_i_glide_rewards>  (329) 
-1.66845

>  <r_i_glide_evdw>  (329) 
-24.5543

>  <r_i_glide_ecoul>  (329) 
-5.66399

>  <r_i_glide_erotb>  (329) 
0.540214

>  <r_i_glide_esite>  (329) 
-0.109708

>  <r_i_glide_emodel>  (329) 
-37.4817

>  <r_i_glide_energy>  (329) 
-30.2183

>  <r_i_glide_einternal>  (329) 
0.120001

>  <r_i_glide_intrahb_reward>  (329) 
-0

>  <i_i_glide_confnum>  (329) 
4

>  <i_i_glide_posenum>  (329) 
5

>  <r_i_glide_eff_state_penalty>  (329) 
0

>  <ligand_id>  (329) 
113

>  <original_smiles>  (329) 
O=C(c1csnn1)N1CCC2(O)COCC2C1

>  <smiles>  (329) 
[H]OC12C([H])([H])OC([H])([H])C1([H])C([H])([H])N(C(=O)c1nnsc1[H])C([H])([H])C2([H])[H]

$$$$
113:0:2
     RDKit          3D

 30 32  0  0  1  0  0  0  0  0999 V2000
    4.4134    0.1374    1.2424 O   0  0  0  0  0  0  0  0  0  0  0  0
    4.0454   -1.0415    1.2563 C   0  0  0  0  0  0  0  0  0  0  0  0
    3.3064   -1.5978    2.4466 C   0  0  0  0  0  0  0  0  0  0  0  0
    3.7798   -1.5088    3.7206 C   0  0  0  0  0  0  0  0  0  0  0  0
    2.6231   -2.2444    4.7480 S   0  0  0  0  0  0  0  0  0  0  0  0
    1.5650   -2.5980    3.5155 N   0  0  0  0  0  0  0  0  0  0  0  0
    2.0117   -2.1638    2.3786 N   0  0  0  0  0  0  0  0  0  0  0  0
    4.3285   -1.8913    0.2366 N   0  0  0  0  0  0  0  0  0  0  0  0
    3.9807   -3.3337    0.1768 C   0  0  0  0  0  0  0  0  0  0  0  0
    2.8864   -3.5680   -0.8899 C   0  0  0  0  0  0  0  0  0  0  0  0
    3.4015   -3.0265   -2.2353 C   0  0  1  0  0  0  0  0  0  0  0  0
    4.4739   -3.8597   -2.6652 O   0  0  0  0  0  0  0  0  0  0  0  0
    2.4464   -2.9233   -3.4197 C   0  0  0  0  0  0  0  0  0  0  0  0
    3.0452   -1.9207   -4.2579 O   0  0  0  0  0  0  0  0  0  0  0  0
    3.9891   -1.1403   -3.5210 C   0  0  0  0  0  0  0  0  0  0  0  0
    3.7843   -1.5763   -2.0843 C   0  0  2  0  0  0  0  0  0  0  0  0
    4.8869   -1.4088   -1.0388 C   0  0  0  0  0  0  0  0  0  0  0  0
    4.6974   -1.0900    4.1041 H   0  0  0  0  0  0  0  0  0  0  0  0
    4.8844   -3.9023   -0.0584 H   0  0  0  0  0  0  0  0  0  0  0  0
    3.6549   -3.7596    1.1200 H   0  0  0  0  0  0  0  0  0  0  0  0
    2.6641   -4.6271   -0.9502 H   0  0  0  0  0  0  0  0  0  0  0  0
    1.9582   -3.0678   -0.6017 H   0  0  0  0  0  0  0  0  0  0  0  0
    4.1278   -4.7378   -2.7217 H   0  0  0  0  0  0  0  0  0  0  0  0
    2.2435   -3.8637   -3.9382 H   0  0  0  0  0  0  0  0  0  0  0  0
    1.4871   -2.5386   -3.0773 H   0  0  0  0  0  0  0  0  0  0  0  0
    4.9909   -1.3830   -3.8709 H   0  0  0  0  0  0  0  0  0  0  0  0
    3.8153   -0.0749   -3.6700 H   0  0  0  0  0  0  0  0  0  0  0  0
    2.9045   -1.0342   -1.7313 H   0  0  0  0  0  0  0  0  0  0  0  0
    5.1712   -0.3604   -1.0076 H   0  0  0  0  0  0  0  0  0  0  0  0
    5.7817   -1.9771   -1.2958 H   0  0  0  0  0  0  0  0  0  0  0  0
  1  2  2  0
  2  3  1  0
  2  8  1  0
  3  7  1  0
  3  4  2  0
  4  5  1  0
  4 18  1  0
  5  6  1  0
  6  7  2  0
  8 17  1  0
  8  9  1  0
  9 10  1  0
  9 19  1  0
  9 20  1  0
 10 11  1  0
 10 21  1  0
 10 22  1  0
 11 16  1  0
 11 12  1  6
 11 13  1  0
 12 23  1  0
 13 14  1  0
 13 24  1  0
 13 25  1  0
 14 15  1  0
 15 16  1  0
 15 26  1  0
 15 27  1  0
 16 17  1  0
 16 28  1  1
 17 29  1  0
 17 30  1  0
M  END
>  <i_m_ct_stereo_status>  (330) 
1

>  <s_m_source_file>  (330) 
/var/tmp/pbs.5076255.sched01/tmpebi1rvwe/120qlbjc4nh.sdf

>  <i_m_source_file_index>  (330) 
29

>  <i_lp_mmshare_version>  (330) 
48012

>  <i_f3d_flags>  (330) 
0

>  <s_epik_input>  (330) 
bjFuc1tjSF1jMUMoPU8pTihbQ0gyXVtDSDJdMilbQ0gyXVtDQEhdKFtDQEBdMjNbT0hdKVtDSDJdT1tDSDJdMw==

>  <s_epik_cmdline>  (330) 
J2VwaWtfcHl0aG9uJywgJy1waHQnLCAnMi4wJywgJy1waCcsICc3LjAnLCAnLXRuJywgJzgnLCAnLW1hJywgJzIwMCcsICctaW1hZScsICc8aW5maWxlLm1hZT4nLCAnLW9tYWUnLCAnPG91dGZpbGUubWFlPic=

>  <r_lp_tautomer_probability>  (330) 
1

>  <r_epik_Ionization_Penalty>  (330) 
3.14746e-08

>  <r_epik_Ionization_Penalty_Charging>  (330) 
0

>  <r_epik_Ionization_Penalty_Neutral>  (330) 
3.14746e-08

>  <r_epik_State_Penalty>  (330) 
-0

>  <r_epik_Charging_Adjusted_Penalty>  (330) 
0

>  <i_epik_Tot_Q>  (330) 
0

>  <i_epik_Tot_abs_Q>  (330) 
0

>  <s_lp_Force_Field>  (330) 
OPLS3e

>  <r_lp_Energy>  (330) 
14.5821

>  <b_lp_Chiralities_Consistent>  (330) 
1

>  <s_lp_Variant>  (330) 
113:0-1

>  <s_i_glide_gridfile>  (330) 
pfpi4k_grid

>  <i_i_glide_lignum>  (330) 
29

>  <i_i_glide_rotatable_bonds>  (330) 
3

>  <r_i_docking_score>  (330) 
-3.63214

>  <r_i_glide_ligand_efficiency>  (330) 
-0.213655

>  <r_i_glide_ligand_efficiency_sa>  (330) 
-0.549368

>  <r_i_glide_ligand_efficiency_ln>  (330) 
-0.947545

>  <r_i_glide_gscore>  (330) 
-3.63214

>  <r_i_glide_lipo>  (330) 
-0.437656

>  <r_i_glide_hbond>  (330) 
-0.161915

>  <r_i_glide_metal>  (330) 
-0

>  <r_i_glide_rewards>  (330) 
-1.67401

>  <r_i_glide_evdw>  (330) 
-23.4973

>  <r_i_glide_ecoul>  (330) 
-4.64401

>  <r_i_glide_erotb>  (330) 
0.540214

>  <r_i_glide_esite>  (330) 
-0.0273027

>  <r_i_glide_emodel>  (330) 
-34.0478

>  <r_i_glide_energy>  (330) 
-28.1413

>  <r_i_glide_einternal>  (330) 
1.94422

>  <r_i_glide_intrahb_reward>  (330) 
-0

>  <i_i_glide_confnum>  (330) 
3

>  <i_i_glide_posenum>  (330) 
39

>  <r_i_glide_eff_state_penalty>  (330) 
0

>  <ligand_id>  (330) 
113

>  <original_smiles>  (330) 
O=C(c1csnn1)N1CCC2(O)COCC2C1

>  <smiles>  (330) 
[H]OC12C([H])([H])OC([H])([H])C1([H])C([H])([H])N(C(=O)c1nnsc1[H])C([H])([H])C2([H])[H]

$$$$
114:0:0
     RDKit          3D

 42 46  0  0  1  0  0  0  0  0999 V2000
    8.4182   -3.4078    0.1849 C   0  0  0  0  0  0  0  0  0  0  0  0
    7.7954   -4.5311    0.7780 O   0  0  0  0  0  0  0  0  0  0  0  0
    6.4558   -4.3004    1.2008 C   0  0  2  0  0  0  0  0  0  0  0  0
    5.9402   -5.5514    1.9034 C   0  0  0  0  0  0  0  0  0  0  0  0
    4.4180   -5.4746    1.7072 C   0  0  1  0  0  0  0  0  0  0  0  0
    3.5900   -7.0965    1.8974 S   0  0  0  0  0  0  0  0  0  0  0  0
    4.3980   -8.1896    0.6811 C   0  0  0  0  0  0  0  0  0  0  0  0
    3.8909   -4.4542    2.7903 C   0  0  0  0  0  0  0  0  0  0  0  0
    3.4532   -3.0057    2.3657 C   0  0  1  0  0  0  0  0  0  0  0  0
    4.3260   -1.7817    2.7592 C   0  0  1  0  0  0  0  0  0  0  0  0
    5.3849   -2.0820    3.6403 O   0  0  0  0  0  0  0  0  0  0  0  0
    4.7280   -1.1863    1.5525 O   0  0  0  0  0  0  0  0  0  0  0  0
    3.6513   -1.3164    0.6562 C   0  0  1  0  0  0  0  0  0  0  0  0
    2.6160   -0.3979    0.8830 O   0  0  0  0  0  0  0  0  0  0  0  0
    4.1057   -1.3158   -0.8195 C   0  0  0  0  0  0  0  0  0  0  0  0
    3.8808   -2.7664   -1.2971 C   0  0  0  0  0  0  0  0  0  0  0  0
    4.0886   -3.5409   -0.0407 C   0  0  2  0  0  0  0  0  0  0  0  0
    5.4981   -4.1131    0.0357 C   0  0  2  0  0  0  0  0  0  0  0  0
    4.2791   -4.9696    0.2758 C   0  0  1  0  0  0  0  0  0  0  0  0
    3.2316   -2.7506    0.8989 C   0  0  1  0  0  0  0  0  0  0  0  0
    9.4338   -3.6633   -0.1047 H   0  0  0  0  0  0  0  0  0  0  0  0
    8.4575   -2.5681    0.8712 H   0  0  0  0  0  0  0  0  0  0  0  0
    7.9027   -3.0841   -0.7138 H   0  0  0  0  0  0  0  0  0  0  0  0
    6.4095   -3.4399    1.8554 H   0  0  0  0  0  0  0  0  0  0  0  0
    6.3718   -6.3863    1.3649 H   0  0  0  0  0  0  0  0  0  0  0  0
    6.2551   -5.6624    2.9459 H   0  0  0  0  0  0  0  0  0  0  0  0
    3.9594   -9.1859    0.7163 H   0  0  0  0  0  0  0  0  0  0  0  0
    5.4573   -8.3175    0.8854 H   0  0  0  0  0  0  0  0  0  0  0  0
    4.2886   -7.8177   -0.3344 H   0  0  0  0  0  0  0  0  0  0  0  0
    2.9877   -4.8906    3.2145 H   0  0  0  0  0  0  0  0  0  0  0  0
    4.5619   -4.4270    3.6570 H   0  0  0  0  0  0  0  0  0  0  0  0
    2.5098   -2.8133    2.8822 H   0  0  0  0  0  0  0  0  0  0  0  0
    3.7211   -1.0389    3.2825 H   0  0  0  0  0  0  0  0  0  0  0  0
    5.0215   -2.3339    4.4761 H   0  0  0  0  0  0  0  0  0  0  0  0
    1.8989   -0.6049    0.2549 H   0  0  0  0  0  0  0  0  0  0  0  0
    3.4807   -0.6567   -1.4220 H   0  0  0  0  0  0  0  0  0  0  0  0
    5.1458   -1.0050   -0.8984 H   0  0  0  0  0  0  0  0  0  0  0  0
    2.8553   -2.9155   -1.6365 H   0  0  0  0  0  0  0  0  0  0  0  0
    4.5567   -3.0622   -2.0980 H   0  0  0  0  0  0  0  0  0  0  0  0
    5.9592   -4.2936   -0.9259 H   0  0  0  0  0  0  0  0  0  0  0  0
    4.0375   -5.6672   -0.5075 H   0  0  0  0  0  0  0  0  0  0  0  0
    2.1836   -2.9061    0.6202 H   0  0  0  0  0  0  0  0  0  0  0  0
  1  2  1  0
  1 21  1  0
  1 22  1  0
  1 23  1  0
  2  3  1  0
  3 18  1  0
  3  4  1  0
  3 24  1  1
  4  5  1  0
  4 25  1  0
  4 26  1  0
  5 19  1  0
  5  6  1  6
  5  8  1  0
  6  7  1  0
  7 27  1  0
  7 28  1  0
  7 29  1  0
  8  9  1  0
  8 30  1  0
  8 31  1  0
  9 20  1  0
  9 10  1  0
  9 32  1  1
 10 11  1  0
 10 12  1  0
 10 33  1  1
 11 34  1  0
 12 13  1  0
 13 20  1  0
 13 14  1  6
 13 15  1  0
 14 35  1  0
 15 16  1  0
 15 36  1  0
 15 37  1  0
 17 16  1  6
 16 38  1  0
 16 39  1  0
 17 19  1  0
 17 18  1  0
 17 20  1  0
 18 19  1  0
 18 40  1  6
 19 41  1  6
 20 42  1  6
M  END
>  <i_m_ct_stereo_status>  (331) 
1

>  <s_m_source_file>  (331) 
/var/tmp/pbs.5076255.sched01/tmpebi1rvwe/120qlbjc4nh.sdf

>  <i_m_source_file_index>  (331) 
30

>  <i_lp_mmshare_version>  (331) 
48012

>  <i_f3d_flags>  (331) 
0

>  <s_epik_input>  (331) 
W0NIM11PW0NAQEhdMVtDSDJdW0NAXShTW0NIM10pKFtDQEBIXTJbQ0BIXTFbQ0BdMjM0KVtDSDJdW0NAQEhdNVtDQEhdNFtDQF0oW09IXSkoW0NIMl1bQ0gyXTMpT1tDQEBIXTVbT0hd

>  <s_epik_cmdline>  (331) 
J2VwaWtfcHl0aG9uJywgJy1waHQnLCAnMi4wJywgJy1waCcsICc3LjAnLCAnLXRuJywgJzgnLCAnLW1hJywgJzIwMCcsICctaW1hZScsICc8aW5maWxlLm1hZT4nLCAnLW9tYWUnLCAnPG91dGZpbGUubWFlPic=

>  <r_lp_tautomer_probability>  (331) 
1

>  <r_epik_Ionization_Penalty>  (331) 
9.2145e-08

>  <r_epik_Ionization_Penalty_Charging>  (331) 
0

>  <r_epik_Ionization_Penalty_Neutral>  (331) 
9.2145e-08

>  <r_epik_State_Penalty>  (331) 
-0

>  <r_epik_Charging_Adjusted_Penalty>  (331) 
0

>  <i_epik_Tot_Q>  (331) 
0

>  <i_epik_Tot_abs_Q>  (331) 
0

>  <s_epik_Chemistry_Notes>  (331) 
This compound contains an acetal/aminal-like group ( X-CH(R)-Y where X, Y are N, S, or O) that may be acid/base labile, releasing an aldehyde.

>  <s_lp_Force_Field>  (331) 
OPLS3e

>  <r_lp_Energy>  (331) 
61.1369

>  <b_lp_Chiralities_Consistent>  (331) 
1

>  <s_lp_Variant>  (331) 
114:0-1

>  <s_i_glide_gridfile>  (331) 
pfpi4k_grid

>  <i_i_glide_lignum>  (331) 
30

>  <i_i_glide_rotatable_bonds>  (331) 
4

>  <r_i_docking_score>  (331) 
-3.58208

>  <r_i_glide_ligand_efficiency>  (331) 
-0.179104

>  <r_i_glide_ligand_efficiency_sa>  (331) 
-0.486163

>  <r_i_glide_ligand_efficiency_ln>  (331) 
-0.896476

>  <r_i_glide_gscore>  (331) 
-3.58208

>  <r_i_glide_lipo>  (331) 
-0.511292

>  <r_i_glide_hbond>  (331) 
0

>  <r_i_glide_metal>  (331) 
-0

>  <r_i_glide_rewards>  (331) 
-1.40001

>  <r_i_glide_evdw>  (331) 
-15.408

>  <r_i_glide_ecoul>  (331) 
-5.68938

>  <r_i_glide_erotb>  (331) 
0

>  <r_i_glide_esite>  (331) 
-0.0469658

>  <r_i_glide_emodel>  (331) 
-22.9608

>  <r_i_glide_energy>  (331) 
-21.0974

>  <r_i_glide_einternal>  (331) 
7.06003

>  <r_i_glide_intrahb_reward>  (331) 
-0

>  <i_i_glide_confnum>  (331) 
2

>  <i_i_glide_posenum>  (331) 
18

>  <r_i_glide_eff_state_penalty>  (331) 
0

>  <ligand_id>  (331) 
114

>  <original_smiles>  (331) 
COC1CC2(SC)CC3C(O)OC4(O)CCC5(C1C25)C34

>  <smiles>  (331) 
[H]OC1([H])OC2(O[H])C([H])([H])C([H])([H])C34C5([H])C([H])(OC([H])([H])[H])C([H])([H])C(SC([H])([H])[H])(C([H])([H])C1([H])C23[H])C54[H]

$$$$
114:0:1
     RDKit          3D

 42 46  0  0  1  0  0  0  0  0999 V2000
    4.3014   -6.9374    1.2733 C   0  0  0  0  0  0  0  0  0  0  0  0
    5.1687   -6.0723    0.5400 O   0  0  0  0  0  0  0  0  0  0  0  0
    4.8284   -4.6835    0.4312 C   0  0  2  0  0  0  0  0  0  0  0  0
    4.8052   -3.9590    1.7900 C   0  0  0  0  0  0  0  0  0  0  0  0
    3.8984   -2.7559    1.5186 C   0  0  1  0  0  0  0  0  0  0  0  0
    3.1868   -2.1834    3.0998 S   0  0  0  0  0  0  0  0  0  0  0  0
    1.9569   -0.9653    2.5592 C   0  0  0  0  0  0  0  0  0  0  0  0
    4.7984   -1.6592    0.8477 C   0  0  0  0  0  0  0  0  0  0  0  0
    4.6247   -1.3628   -0.6795 C   0  0  1  0  0  0  0  0  0  0  0  0
    5.7185   -1.7845   -1.6915 C   0  0  1  0  0  0  0  0  0  0  0  0
    6.8949   -2.2806   -1.1391 O   0  0  0  0  0  0  0  0  0  0  0  0
    5.0847   -2.6226   -2.6338 O   0  0  0  0  0  0  0  0  0  0  0  0
    3.7626   -2.1928   -2.7658 C   0  0  1  0  0  0  0  0  0  0  0  0
    3.6143   -1.0334   -3.5601 O   0  0  0  0  0  0  0  0  0  0  0  0
    2.7882   -3.3165   -3.2089 C   0  0  0  0  0  0  0  0  0  0  0  0
    1.9077   -3.5744   -1.9603 C   0  0  0  0  0  0  0  0  0  0  0  0
    2.8461   -3.1894   -0.8479 C   0  0  2  0  0  0  0  0  0  0  0  0
    3.4861   -4.4421   -0.2117 C   0  0  2  0  0  0  0  0  0  0  0  0
    2.7947   -3.3706    0.6368 C   0  0  1  0  0  0  0  0  0  0  0  0
    3.3915   -1.9011   -1.3374 C   0  0  1  0  0  0  0  0  0  0  0  0
    4.7166   -7.9533    1.2508 H   0  0  0  0  0  0  0  0  0  0  0  0
    3.3083   -6.9862    0.8286 H   0  0  0  0  0  0  0  0  0  0  0  0
    4.2100   -6.6410    2.3127 H   0  0  0  0  0  0  0  0  0  0  0  0
    5.5835   -4.2406   -0.2248 H   0  0  0  0  0  0  0  0  0  0  0  0
    4.3228   -4.5363    2.5565 H   0  0  0  0  0  0  0  0  0  0  0  0
    5.8106   -3.6971    2.1515 H   0  0  0  0  0  0  0  0  0  0  0  0
    1.4213   -0.5821    3.4286 H   0  0  0  0  0  0  0  0  0  0  0  0
    1.2286   -1.3985    1.8722 H   0  0  0  0  0  0  0  0  0  0  0  0
    2.4480   -0.1295    2.0634 H   0  0  0  0  0  0  0  0  0  0  0  0
    4.5643   -0.7211    1.3523 H   0  0  0  0  0  0  0  0  0  0  0  0
    5.8447   -1.8008    1.0914 H   0  0  0  0  0  0  0  0  0  0  0  0
    4.5717   -0.2789   -0.7542 H   0  0  0  0  0  0  0  0  0  0  0  0
    5.9739   -0.8938   -2.2689 H   0  0  0  0  0  0  0  0  0  0  0  0
    6.6680   -3.0569   -0.6178 H   0  0  0  0  0  0  0  0  0  0  0  0
    2.8457   -0.5720   -3.2493 H   0  0  0  0  0  0  0  0  0  0  0  0
    2.1770   -3.0135   -4.0606 H   0  0  0  0  0  0  0  0  0  0  0  0
    3.3707   -4.1932   -3.5085 H   0  0  0  0  0  0  0  0  0  0  0  0
    1.0319   -2.9273   -1.9522 H   0  0  0  0  0  0  0  0  0  0  0  0
    1.5162   -4.5832   -1.8836 H   0  0  0  0  0  0  0  0  0  0  0  0
    2.9461   -5.3341   -0.4587 H   0  0  0  0  0  0  0  0  0  0  0  0
    1.8983   -3.7055    1.1258 H   0  0  0  0  0  0  0  0  0  0  0  0
    2.6248   -1.1406   -1.3221 H   0  0  0  0  0  0  0  0  0  0  0  0
  1  2  1  0
  1 21  1  0
  1 22  1  0
  1 23  1  0
  2  3  1  0
  3 18  1  0
  3  4  1  0
  3 24  1  6
  4  5  1  0
  4 25  1  0
  4 26  1  0
  5 19  1  0
  5  6  1  1
  5  8  1  0
  6  7  1  0
  7 27  1  0
  7 28  1  0
  7 29  1  0
  8  9  1  0
  8 30  1  0
  8 31  1  0
  9 20  1  0
  9 10  1  0
  9 32  1  1
 10 11  1  0
 10 12  1  0
 10 33  1  6
 11 34  1  0
 12 13  1  0
 13 20  1  0
 13 14  1  6
 13 15  1  0
 14 35  1  0
 15 16  1  0
 15 36  1  0
 15 37  1  0
 17 16  1  6
 16 38  1  0
 16 39  1  0
 17 19  1  0
 17 18  1  0
 17 20  1  0
 18 19  1  0
 18 40  1  6
 19 41  1  1
 20 42  1  6
M  END
>  <i_m_ct_stereo_status>  (332) 
1

>  <s_m_source_file>  (332) 
/var/tmp/pbs.5076255.sched01/tmpebi1rvwe/120qlbjc4nh.sdf

>  <i_m_source_file_index>  (332) 
30

>  <i_lp_mmshare_version>  (332) 
48012

>  <i_f3d_flags>  (332) 
0

>  <s_epik_input>  (332) 
W0NIM11PW0NAQEhdMVtDSDJdW0NAXShTW0NIM10pKFtDQEBIXTJbQ0BIXTFbQ0BdMjM0KVtDSDJdW0NAQEhdNVtDQEhdNFtDQF0oW09IXSkoW0NIMl1bQ0gyXTMpT1tDQEBIXTVbT0hd

>  <s_epik_cmdline>  (332) 
J2VwaWtfcHl0aG9uJywgJy1waHQnLCAnMi4wJywgJy1waCcsICc3LjAnLCAnLXRuJywgJzgnLCAnLW1hJywgJzIwMCcsICctaW1hZScsICc8aW5maWxlLm1hZT4nLCAnLW9tYWUnLCAnPG91dGZpbGUubWFlPic=

>  <r_lp_tautomer_probability>  (332) 
1

>  <r_epik_Ionization_Penalty>  (332) 
9.2145e-08

>  <r_epik_Ionization_Penalty_Charging>  (332) 
0

>  <r_epik_Ionization_Penalty_Neutral>  (332) 
9.2145e-08

>  <r_epik_State_Penalty>  (332) 
-0

>  <r_epik_Charging_Adjusted_Penalty>  (332) 
0

>  <i_epik_Tot_Q>  (332) 
0

>  <i_epik_Tot_abs_Q>  (332) 
0

>  <s_epik_Chemistry_Notes>  (332) 
This compound contains an acetal/aminal-like group ( X-CH(R)-Y where X, Y are N, S, or O) that may be acid/base labile, releasing an aldehyde.

>  <s_lp_Force_Field>  (332) 
OPLS3e

>  <r_lp_Energy>  (332) 
61.1369

>  <b_lp_Chiralities_Consistent>  (332) 
1

>  <s_lp_Variant>  (332) 
114:0-1

>  <s_i_glide_gridfile>  (332) 
pfpi4k_grid

>  <i_i_glide_lignum>  (332) 
30

>  <i_i_glide_rotatable_bonds>  (332) 
4

>  <r_i_docking_score>  (332) 
-3.50715

>  <r_i_glide_ligand_efficiency>  (332) 
-0.175358

>  <r_i_glide_ligand_efficiency_sa>  (332) 
-0.475994

>  <r_i_glide_ligand_efficiency_ln>  (332) 
-0.877724

>  <r_i_glide_gscore>  (332) 
-3.50715

>  <r_i_glide_lipo>  (332) 
-0.40365

>  <r_i_glide_hbond>  (332) 
0

>  <r_i_glide_metal>  (332) 
-0

>  <r_i_glide_rewards>  (332) 
-1.41468

>  <r_i_glide_evdw>  (332) 
-18.8626

>  <r_i_glide_ecoul>  (332) 
-4.56761

>  <r_i_glide_erotb>  (332) 
0

>  <r_i_glide_esite>  (332) 
-0.0605466

>  <r_i_glide_emodel>  (332) 
-22.6537

>  <r_i_glide_energy>  (332) 
-23.4302

>  <r_i_glide_einternal>  (332) 
12.159

>  <r_i_glide_intrahb_reward>  (332) 
-0

>  <i_i_glide_confnum>  (332) 
1

>  <i_i_glide_posenum>  (332) 
31

>  <r_i_glide_eff_state_penalty>  (332) 
0

>  <ligand_id>  (332) 
114

>  <original_smiles>  (332) 
COC1CC2(SC)CC3C(O)OC4(O)CCC5(C1C25)C34

>  <smiles>  (332) 
[H]OC1([H])OC2(O[H])C([H])([H])C([H])([H])C34C5([H])C([H])(OC([H])([H])[H])C([H])([H])C(SC([H])([H])[H])(C([H])([H])C1([H])C23[H])C54[H]

$$$$
114:0:2
     RDKit          3D

 42 46  0  0  1  0  0  0  0  0999 V2000
    6.6774   -6.2873    0.9537 C   0  0  0  0  0  0  0  0  0  0  0  0
    5.3597   -6.0533    0.4801 O   0  0  0  0  0  0  0  0  0  0  0  0
    4.9808   -4.6828    0.5139 C   0  0  2  0  0  0  0  0  0  0  0  0
    4.7441   -4.1949    1.9488 C   0  0  0  0  0  0  0  0  0  0  0  0
    3.7924   -3.0096    1.7784 C   0  0  1  0  0  0  0  0  0  0  0  0
    2.9185   -2.6744    3.3448 S   0  0  0  0  0  0  0  0  0  0  0  0
    1.7147   -1.3981    2.8629 C   0  0  0  0  0  0  0  0  0  0  0  0
    4.6730   -1.7976    1.3202 C   0  0  0  0  0  0  0  0  0  0  0  0
    4.5855   -1.3079   -0.1617 C   0  0  1  0  0  0  0  0  0  0  0  0
    5.7901   -1.5346   -1.1168 C   0  0  1  0  0  0  0  0  0  0  0  0
    6.9668   -2.0408   -0.5422 O   0  0  0  0  0  0  0  0  0  0  0  0
    5.2883   -2.2641   -2.2087 O   0  0  0  0  0  0  0  0  0  0  0  0
    3.9579   -1.8852   -2.4055 C   0  0  1  0  0  0  0  0  0  0  0  0
    3.8212   -0.6430   -3.0628 O   0  0  0  0  0  0  0  0  0  0  0  0
    3.1043   -3.0004   -3.0623 C   0  0  0  0  0  0  0  0  0  0  0  0
    2.1490   -3.4488   -1.9352 C   0  0  0  0  0  0  0  0  0  0  0  0
    2.9638   -3.1907   -0.6966 C   0  0  2  0  0  0  0  0  0  0  0  0
    3.6534   -4.4666   -0.1662 C   0  0  2  0  0  0  0  0  0  0  0  0
    2.8235   -3.5520    0.7384 C   0  0  1  0  0  0  0  0  0  0  0  0
    3.4471   -1.8182   -0.9834 C   0  0  1  0  0  0  0  0  0  0  0  0
    6.9058   -7.3531    0.8849 H   0  0  0  0  0  0  0  0  0  0  0  0
    6.7934   -6.0004    1.9990 H   0  0  0  0  0  0  0  0  0  0  0  0
    7.4207   -5.7503    0.3633 H   0  0  0  0  0  0  0  0  0  0  0  0
    5.7130   -4.0967   -0.0136 H   0  0  0  0  0  0  0  0  0  0  0  0
    4.2448   -4.9799    2.5084 H   0  0  0  0  0  0  0  0  0  0  0  0
    5.6722   -3.9525    2.4861 H   0  0  0  0  0  0  0  0  0  0  0  0
    1.0906   -1.1449    3.7206 H   0  0  0  0  0  0  0  0  0  0  0  0
    1.0610   -1.7398    2.0599 H   0  0  0  0  0  0  0  0  0  0  0  0
    2.2138   -0.4867    2.5354 H   0  0  0  0  0  0  0  0  0  0  0  0
    4.3580   -0.9367    1.9144 H   0  0  0  0  0  0  0  0  0  0  0  0
    5.7157   -1.9070    1.6443 H   0  0  0  0  0  0  0  0  0  0  0  0
    4.5057   -0.2175   -0.1057 H   0  0  0  0  0  0  0  0  0  0  0  0
    6.0365   -0.5749   -1.5571 H   0  0  0  0  0  0  0  0  0  0  0  0
    6.7199   -2.8165   -0.0408 H   0  0  0  0  0  0  0  0  0  0  0  0
    2.9670   -0.2922   -2.8271 H   0  0  0  0  0  0  0  0  0  0  0  0
    2.5559   -2.6142   -3.9176 H   0  0  0  0  0  0  0  0  0  0  0  0
    3.7501   -3.8165   -3.3865 H   0  0  0  0  0  0  0  0  0  0  0  0
    1.2631   -2.8191   -1.9413 H   0  0  0  0  0  0  0  0  0  0  0  0
    1.7933   -4.4591   -1.9966 H   0  0  0  0  0  0  0  0  0  0  0  0
    3.1673   -5.3930   -0.4327 H   0  0  0  0  0  0  0  0  0  0  0  0
    1.8900   -3.9715    1.0769 H   0  0  0  0  0  0  0  0  0  0  0  0
    2.6183   -1.1285   -0.9263 H   0  0  0  0  0  0  0  0  0  0  0  0
  1  2  1  0
  1 21  1  0
  1 22  1  0
  1 23  1  0
  2  3  1  0
  3 18  1  0
  3  4  1  0
  3 24  1  6
  4  5  1  0
  4 25  1  0
  4 26  1  0
  5 19  1  0
  5  6  1  1
  5  8  1  0
  6  7  1  0
  7 27  1  0
  7 28  1  0
  7 29  1  0
  8  9  1  0
  8 30  1  0
  8 31  1  0
  9 20  1  0
  9 10  1  0
  9 32  1  1
 10 11  1  0
 10 12  1  0
 10 33  1  6
 11 34  1  0
 12 13  1  0
 13 20  1  0
 13 14  1  6
 13 15  1  0
 14 35  1  0
 15 16  1  0
 15 36  1  0
 15 37  1  0
 17 16  1  6
 16 38  1  0
 16 39  1  0
 17 19  1  0
 17 18  1  0
 17 20  1  0
 18 19  1  0
 18 40  1  6
 19 41  1  1
 20 42  1  6
M  END
>  <i_m_ct_stereo_status>  (333) 
1

>  <s_m_source_file>  (333) 
/var/tmp/pbs.5076255.sched01/tmpebi1rvwe/120qlbjc4nh.sdf

>  <i_m_source_file_index>  (333) 
30

>  <i_lp_mmshare_version>  (333) 
48012

>  <i_f3d_flags>  (333) 
0

>  <s_epik_input>  (333) 
W0NIM11PW0NAQEhdMVtDSDJdW0NAXShTW0NIM10pKFtDQEBIXTJbQ0BIXTFbQ0BdMjM0KVtDSDJdW0NAQEhdNVtDQEhdNFtDQF0oW09IXSkoW0NIMl1bQ0gyXTMpT1tDQEBIXTVbT0hd

>  <s_epik_cmdline>  (333) 
J2VwaWtfcHl0aG9uJywgJy1waHQnLCAnMi4wJywgJy1waCcsICc3LjAnLCAnLXRuJywgJzgnLCAnLW1hJywgJzIwMCcsICctaW1hZScsICc8aW5maWxlLm1hZT4nLCAnLW9tYWUnLCAnPG91dGZpbGUubWFlPic=

>  <r_lp_tautomer_probability>  (333) 
1

>  <r_epik_Ionization_Penalty>  (333) 
9.2145e-08

>  <r_epik_Ionization_Penalty_Charging>  (333) 
0

>  <r_epik_Ionization_Penalty_Neutral>  (333) 
9.2145e-08

>  <r_epik_State_Penalty>  (333) 
-0

>  <r_epik_Charging_Adjusted_Penalty>  (333) 
0

>  <i_epik_Tot_Q>  (333) 
0

>  <i_epik_Tot_abs_Q>  (333) 
0

>  <s_epik_Chemistry_Notes>  (333) 
This compound contains an acetal/aminal-like group ( X-CH(R)-Y where X, Y are N, S, or O) that may be acid/base labile, releasing an aldehyde.

>  <s_lp_Force_Field>  (333) 
OPLS3e

>  <r_lp_Energy>  (333) 
61.1369

>  <b_lp_Chiralities_Consistent>  (333) 
1

>  <s_lp_Variant>  (333) 
114:0-1

>  <s_i_glide_gridfile>  (333) 
pfpi4k_grid

>  <i_i_glide_lignum>  (333) 
30

>  <i_i_glide_rotatable_bonds>  (333) 
4

>  <r_i_docking_score>  (333) 
-3.32459

>  <r_i_glide_ligand_efficiency>  (333) 
-0.16623

>  <r_i_glide_ligand_efficiency_sa>  (333) 
-0.451216

>  <r_i_glide_ligand_efficiency_ln>  (333) 
-0.832036

>  <r_i_glide_gscore>  (333) 
-3.32459

>  <r_i_glide_lipo>  (333) 
-0.382047

>  <r_i_glide_hbond>  (333) 
0

>  <r_i_glide_metal>  (333) 
-0

>  <r_i_glide_rewards>  (333) 
-1.37455

>  <r_i_glide_evdw>  (333) 
-16.5599

>  <r_i_glide_ecoul>  (333) 
-4.37251

>  <r_i_glide_erotb>  (333) 
0

>  <r_i_glide_esite>  (333) 
-0.0841203

>  <r_i_glide_emodel>  (333) 
-25.2672

>  <r_i_glide_energy>  (333) 
-20.9324

>  <r_i_glide_einternal>  (333) 
1.63014

>  <r_i_glide_intrahb_reward>  (333) 
-0

>  <i_i_glide_confnum>  (333) 
1

>  <i_i_glide_posenum>  (333) 
16

>  <r_i_glide_eff_state_penalty>  (333) 
0

>  <ligand_id>  (333) 
114

>  <original_smiles>  (333) 
COC1CC2(SC)CC3C(O)OC4(O)CCC5(C1C25)C34

>  <smiles>  (333) 
[H]OC1([H])OC2(O[H])C([H])([H])C([H])([H])C34C5([H])C([H])(OC([H])([H])[H])C([H])([H])C(SC([H])([H])[H])(C([H])([H])C1([H])C23[H])C54[H]

$$$$
115:0:0
     RDKit          3D

 37 40  0  0  1  0  0  0  0  0999 V2000
   -1.0432   -2.5253    5.7528 C   0  0  0  0  0  0  0  0  0  0  0  0
   -0.6495   -1.3172    5.0489 N   0  0  0  0  0  0  0  0  0  0  0  0
   -1.0102   -0.0758    5.4060 C   0  0  0  0  0  0  0  0  0  0  0  0
   -1.7460    0.1419    6.3730 O   0  0  0  0  0  0  0  0  0  0  0  0
   -0.4561    1.0830    4.5547 C   0  0  1  0  0  0  0  0  0  0  0  0
   -1.4679    2.2322    4.4700 C   0  0  0  0  0  0  0  0  0  0  0  0
   -0.9555    3.0700    3.2872 C   0  0  1  0  0  0  0  0  0  0  0  0
   -0.3452    4.3739    3.8230 C   0  0  0  0  0  0  0  0  0  0  0  0
    1.0517    4.1290    4.3961 C   0  0  2  0  0  0  0  0  0  0  0  0
    1.9371    3.7359    3.2039 C   0  0  0  0  0  0  0  0  0  0  0  0
    1.5591    2.3051    2.7828 C   0  0  1  0  0  0  0  0  0  0  0  0
    2.0208    1.3971    3.9456 C   0  0  0  0  0  0  0  0  0  0  0  0
    0.9712    1.5677    5.0621 C   0  0  1  0  0  0  0  0  0  0  0  0
    1.0908    3.0556    5.5390 C   0  0  0  0  0  0  0  0  0  0  0  0
    0.0181    2.1201    2.4941 C   0  0  1  0  0  0  0  0  0  0  0  0
   -0.4252    0.7596    3.0383 C   0  0  0  0  0  0  0  0  0  0  0  0
   -0.5843   -3.3977    5.2872 H   0  0  0  0  0  0  0  0  0  0  0  0
   -2.1250   -2.6519    5.7254 H   0  0  0  0  0  0  0  0  0  0  0  0
   -0.7256   -2.4934    6.7947 H   0  0  0  0  0  0  0  0  0  0  0  0
   -0.0347   -1.4169    4.2546 H   0  0  0  0  0  0  0  0  0  0  0  0
   -2.4607    1.8471    4.2281 H   0  0  0  0  0  0  0  0  0  0  0  0
   -1.5816    2.7835    5.4031 H   0  0  0  0  0  0  0  0  0  0  0  0
   -1.8063    3.3230    2.6530 H   0  0  0  0  0  0  0  0  0  0  0  0
   -0.2894    5.1102    3.0190 H   0  0  0  0  0  0  0  0  0  0  0  0
   -0.9885    4.8151    4.5849 H   0  0  0  0  0  0  0  0  0  0  0  0
    1.4117    5.0773    4.8009 H   0  0  0  0  0  0  0  0  0  0  0  0
    1.8134    4.4351    2.3758 H   0  0  0  0  0  0  0  0  0  0  0  0
    2.9905    3.7899    3.4802 H   0  0  0  0  0  0  0  0  0  0  0  0
    2.1278    2.0353    1.8902 H   0  0  0  0  0  0  0  0  0  0  0  0
    2.1087    0.3586    3.6299 H   0  0  0  0  0  0  0  0  0  0  0  0
    3.0212    1.6680    4.2848 H   0  0  0  0  0  0  0  0  0  0  0  0
    1.2779    0.9349    5.8981 H   0  0  0  0  0  0  0  0  0  0  0  0
    2.0585    3.1555    6.0305 H   0  0  0  0  0  0  0  0  0  0  0  0
    0.3608    3.2810    6.3170 H   0  0  0  0  0  0  0  0  0  0  0  0
   -0.1664    2.1431    1.4196 H   0  0  0  0  0  0  0  0  0  0  0  0
    0.2278   -0.0586    2.7345 H   0  0  0  0  0  0  0  0  0  0  0  0
   -1.4156    0.5079    2.6597 H   0  0  0  0  0  0  0  0  0  0  0  0
  1  2  1  0
  1 17  1  0
  1 18  1  0
  1 19  1  0
  2  3  1  0
  2 20  1  0
  3  4  2  0
  5  3  1  1
  5 13  1  0
  5 16  1  0
  5  6  1  0
  6  7  1  0
  6 21  1  0
  6 22  1  0
  7 15  1  0
  7  8  1  0
  7 23  1  6
  8  9  1  0
  8 24  1  0
  8 25  1  0
  9 14  1  0
  9 10  1  0
  9 26  1  1
 10 11  1  0
 10 27  1  0
 10 28  1  0
 11 12  1  0
 11 15  1  0
 11 29  1  6
 12 13  1  0
 12 30  1  0
 12 31  1  0
 13 14  1  0
 13 32  1  1
 14 33  1  0
 14 34  1  0
 15 16  1  0
 15 35  1  6
 16 36  1  0
 16 37  1  0
M  END
>  <i_m_ct_stereo_status>  (334) 
1

>  <s_m_source_file>  (334) 
/var/tmp/pbs.5076255.sched01/tmpebi1rvwe/120qlbjc4nh.sdf

>  <i_m_source_file_index>  (334) 
31

>  <i_lp_mmshare_version>  (334) 
48012

>  <i_f3d_flags>  (334) 
0

>  <s_epik_input>  (334) 
W0NIM11bTkhdQyg9TylbQ0BdMTJbQ0BIXTNbQ0gyXVtDQEhdNFtDQEBIXShbQ0gyXTIpW0NAQEhdKFtDSDJdMSlbQ0gyXVtDQEhdKFtDSDJdNClbQ0gyXTM=

>  <s_epik_cmdline>  (334) 
J2VwaWtfcHl0aG9uJywgJy1waHQnLCAnMi4wJywgJy1waCcsICc3LjAnLCAnLXRuJywgJzgnLCAnLW1hJywgJzIwMCcsICctaW1hZScsICc8aW5maWxlLm1hZT4nLCAnLW9tYWUnLCAnPG91dGZpbGUubWFlPic=

>  <r_lp_tautomer_probability>  (334) 
1

>  <r_epik_Ionization_Penalty>  (334) 
1.02396e-07

>  <r_epik_Ionization_Penalty_Charging>  (334) 
0

>  <r_epik_Ionization_Penalty_Neutral>  (334) 
1.02396e-07

>  <r_epik_State_Penalty>  (334) 
-0

>  <r_epik_Charging_Adjusted_Penalty>  (334) 
0

>  <i_epik_Tot_Q>  (334) 
0

>  <i_epik_Tot_abs_Q>  (334) 
0

>  <s_lp_Force_Field>  (334) 
OPLS3e

>  <r_lp_Energy>  (334) 
51.8598

>  <b_lp_Chiralities_Consistent>  (334) 
1

>  <s_lp_Variant>  (334) 
115:0-1

>  <s_i_glide_gridfile>  (334) 
pfpi4k_grid

>  <i_i_glide_lignum>  (334) 
31

>  <i_i_glide_rotatable_bonds>  (334) 
2

>  <r_i_docking_score>  (334) 
-3.54915

>  <r_i_glide_ligand_efficiency>  (334) 
-0.221822

>  <r_i_glide_ligand_efficiency_sa>  (334) 
-0.558957

>  <r_i_glide_ligand_efficiency_ln>  (334) 
-0.940774

>  <r_i_glide_gscore>  (334) 
-3.54915

>  <r_i_glide_lipo>  (334) 
0

>  <r_i_glide_hbond>  (334) 
-0.16

>  <r_i_glide_metal>  (334) 
-0

>  <r_i_glide_rewards>  (334) 
-1.91371

>  <r_i_glide_evdw>  (334) 
-14.773

>  <r_i_glide_ecoul>  (334) 
-4.4953

>  <r_i_glide_erotb>  (334) 
0

>  <r_i_glide_esite>  (334) 
-0.0624968

>  <r_i_glide_emodel>  (334) 
-23.5917

>  <r_i_glide_energy>  (334) 
-19.2683

>  <r_i_glide_einternal>  (334) 
0.155441

>  <r_i_glide_intrahb_reward>  (334) 
-0

>  <i_i_glide_confnum>  (334) 
1

>  <i_i_glide_posenum>  (334) 
33

>  <r_i_glide_eff_state_penalty>  (334) 
0

>  <ligand_id>  (334) 
115

>  <original_smiles>  (334) 
CNC(=O)C12CC3CC4CC(CC1C4)C3C2

>  <smiles>  (334) 
[H]N(C(=O)C12C([H])([H])C3([H])C([H])([H])C4([H])C([H])([H])C([H])(C([H])([H])C1([H])C4([H])[H])C3([H])C2([H])[H])C([H])([H])[H]

$$$$
115:0:1
     RDKit          3D

 37 40  0  0  1  0  0  0  0  0999 V2000
   -0.7778    1.0405    3.9135 C   0  0  0  0  0  0  0  0  0  0  0  0
   -0.8188    1.8719    5.1074 N   0  0  0  0  0  0  0  0  0  0  0  0
   -1.3135    1.4868    6.2911 C   0  0  0  0  0  0  0  0  0  0  0  0
   -1.7866    0.3621    6.4783 O   0  0  0  0  0  0  0  0  0  0  0  0
   -1.2902    2.5239    7.4348 C   0  0  1  0  0  0  0  0  0  0  0  0
   -2.6214    2.5211    8.1928 C   0  0  0  0  0  0  0  0  0  0  0  0
   -2.5974    3.8386    8.9788 C   0  0  1  0  0  0  0  0  0  0  0  0
   -2.3808    3.5363   10.4678 C   0  0  0  0  0  0  0  0  0  0  0  0
   -0.9134    3.2070   10.7490 C   0  0  2  0  0  0  0  0  0  0  0  0
   -0.1311    4.5033   10.4862 C   0  0  0  0  0  0  0  0  0  0  0  0
   -0.0694    4.7200    8.9659 C   0  0  1  0  0  0  0  0  0  0  0  0
    0.8268    3.5849    8.4169 C   0  0  0  0  0  0  0  0  0  0  0  0
   -0.0480    2.3181    8.4066 C   0  0  1  0  0  0  0  0  0  0  0  0
   -0.3551    2.0032    9.9120 C   0  0  0  0  0  0  0  0  0  0  0  0
   -1.4941    4.7158    8.2858 C   0  0  1  0  0  0  0  0  0  0  0  0
   -1.3757    3.9925    6.9354 C   0  0  0  0  0  0  0  0  0  0  0  0
   -0.3090    1.5896    3.0956 H   0  0  0  0  0  0  0  0  0  0  0  0
   -1.7825    0.7619    3.5997 H   0  0  0  0  0  0  0  0  0  0  0  0
   -0.2027    0.1312    4.0876 H   0  0  0  0  0  0  0  0  0  0  0  0
   -0.4580    2.8090    5.0253 H   0  0  0  0  0  0  0  0  0  0  0  0
   -3.4598    2.5327    7.4930 H   0  0  0  0  0  0  0  0  0  0  0  0
   -2.7590    1.6469    8.8216 H   0  0  0  0  0  0  0  0  0  0  0  0
   -3.5711    4.3189    8.8654 H   0  0  0  0  0  0  0  0  0  0  0  0
   -2.6864    4.3949   11.0674 H   0  0  0  0  0  0  0  0  0  0  0  0
   -3.0178    2.7135   10.7970 H   0  0  0  0  0  0  0  0  0  0  0  0
   -0.8374    2.9541   11.8095 H   0  0  0  0  0  0  0  0  0  0  0  0
   -0.6004    5.3527   10.9843 H   0  0  0  0  0  0  0  0  0  0  0  0
    0.8728    4.4271   10.9044 H   0  0  0  0  0  0  0  0  0  0  0  0
    0.4285    5.6700    8.7564 H   0  0  0  0  0  0  0  0  0  0  0  0
    1.2072    3.8172    7.4230 H   0  0  0  0  0  0  0  0  0  0  0  0
    1.7196    3.4544    9.0296 H   0  0  0  0  0  0  0  0  0  0  0  0
    0.5651    1.4985    8.0235 H   0  0  0  0  0  0  0  0  0  0  0  0
    0.5875    1.7117   10.3763 H   0  0  0  0  0  0  0  0  0  0  0  0
   -0.9908    1.1242   10.0146 H   0  0  0  0  0  0  0  0  0  0  0  0
   -1.8446    5.7422    8.1754 H   0  0  0  0  0  0  0  0  0  0  0  0
   -0.5353    4.3309    6.3295 H   0  0  0  0  0  0  0  0  0  0  0  0
   -2.2651    4.1456    6.3233 H   0  0  0  0  0  0  0  0  0  0  0  0
  1  2  1  0
  1 17  1  0
  1 18  1  0
  1 19  1  0
  2  3  1  0
  2 20  1  0
  3  4  2  0
  5  3  1  6
  5 13  1  0
  5 16  1  0
  5  6  1  0
  6  7  1  0
  6 21  1  0
  6 22  1  0
  7 15  1  0
  7  8  1  0
  7 23  1  1
  8  9  1  0
  8 24  1  0
  8 25  1  0
  9 14  1  0
  9 10  1  0
  9 26  1  1
 10 11  1  0
 10 27  1  0
 10 28  1  0
 11 12  1  0
 11 15  1  0
 11 29  1  1
 12 13  1  0
 12 30  1  0
 12 31  1  0
 13 14  1  0
 13 32  1  6
 14 33  1  0
 14 34  1  0
 15 16  1  0
 15 35  1  6
 16 36  1  0
 16 37  1  0
M  END
>  <i_m_ct_stereo_status>  (335) 
1

>  <s_m_source_file>  (335) 
/var/tmp/pbs.5076255.sched01/tmpebi1rvwe/120qlbjc4nh.sdf

>  <i_m_source_file_index>  (335) 
31

>  <i_lp_mmshare_version>  (335) 
48012

>  <i_f3d_flags>  (335) 
0

>  <s_epik_input>  (335) 
W0NIM11bTkhdQyg9TylbQ0BdMTJbQ0BIXTNbQ0gyXVtDQEhdNFtDQEBIXShbQ0gyXTIpW0NAQEhdKFtDSDJdMSlbQ0gyXVtDQEhdKFtDSDJdNClbQ0gyXTM=

>  <s_epik_cmdline>  (335) 
J2VwaWtfcHl0aG9uJywgJy1waHQnLCAnMi4wJywgJy1waCcsICc3LjAnLCAnLXRuJywgJzgnLCAnLW1hJywgJzIwMCcsICctaW1hZScsICc8aW5maWxlLm1hZT4nLCAnLW9tYWUnLCAnPG91dGZpbGUubWFlPic=

>  <r_lp_tautomer_probability>  (335) 
1

>  <r_epik_Ionization_Penalty>  (335) 
1.02396e-07

>  <r_epik_Ionization_Penalty_Charging>  (335) 
0

>  <r_epik_Ionization_Penalty_Neutral>  (335) 
1.02396e-07

>  <r_epik_State_Penalty>  (335) 
-0

>  <r_epik_Charging_Adjusted_Penalty>  (335) 
0

>  <i_epik_Tot_Q>  (335) 
0

>  <i_epik_Tot_abs_Q>  (335) 
0

>  <s_lp_Force_Field>  (335) 
OPLS3e

>  <r_lp_Energy>  (335) 
51.8598

>  <b_lp_Chiralities_Consistent>  (335) 
1

>  <s_lp_Variant>  (335) 
115:0-1

>  <s_i_glide_gridfile>  (335) 
pfpi4k_grid

>  <i_i_glide_lignum>  (335) 
31

>  <i_i_glide_rotatable_bonds>  (335) 
2

>  <r_i_docking_score>  (335) 
-3.33831

>  <r_i_glide_ligand_efficiency>  (335) 
-0.208644

>  <r_i_glide_ligand_efficiency_sa>  (335) 
-0.525751

>  <r_i_glide_ligand_efficiency_ln>  (335) 
-0.884885

>  <r_i_glide_gscore>  (335) 
-3.33831

>  <r_i_glide_lipo>  (335) 
-0.0654078

>  <r_i_glide_hbond>  (335) 
-0.16

>  <r_i_glide_metal>  (335) 
-0

>  <r_i_glide_rewards>  (335) 
-1.91371

>  <r_i_glide_evdw>  (335) 
-11.3867

>  <r_i_glide_ecoul>  (335) 
-3.95395

>  <r_i_glide_erotb>  (335) 
0

>  <r_i_glide_esite>  (335) 
-0.0367661

>  <r_i_glide_emodel>  (335) 
-19.4862

>  <r_i_glide_energy>  (335) 
-15.3406

>  <r_i_glide_einternal>  (335) 
0.00552116

>  <r_i_glide_intrahb_reward>  (335) 
-0

>  <i_i_glide_confnum>  (335) 
1

>  <i_i_glide_posenum>  (335) 
35

>  <r_i_glide_eff_state_penalty>  (335) 
0

>  <ligand_id>  (335) 
115

>  <original_smiles>  (335) 
CNC(=O)C12CC3CC4CC(CC1C4)C3C2

>  <smiles>  (335) 
[H]N(C(=O)C12C([H])([H])C3([H])C([H])([H])C4([H])C([H])([H])C([H])(C([H])([H])C1([H])C4([H])[H])C3([H])C2([H])[H])C([H])([H])[H]

$$$$
115:0:2
     RDKit          3D

 37 40  0  0  1  0  0  0  0  0999 V2000
    0.7573   -2.9148    5.4536 C   0  0  0  0  0  0  0  0  0  0  0  0
    0.6793   -1.5643    4.9236 N   0  0  0  0  0  0  0  0  0  0  0  0
   -0.1821   -0.6215    5.3268 C   0  0  0  0  0  0  0  0  0  0  0  0
   -0.9863   -0.7952    6.2457 O   0  0  0  0  0  0  0  0  0  0  0  0
   -0.1565    0.7239    4.5735 C   0  0  1  0  0  0  0  0  0  0  0  0
   -1.4871    0.9367    3.8561 C   0  0  0  0  0  0  0  0  0  0  0  0
   -1.1773    2.0553    2.8511 C   0  0  1  0  0  0  0  0  0  0  0  0
   -1.8552    3.3535    3.3096 C   0  0  0  0  0  0  0  0  0  0  0  0
   -1.0683    3.9982    4.4543 C   0  0  2  0  0  0  0  0  0  0  0  0
    0.2725    4.4446    3.8493 C   0  0  0  0  0  0  0  0  0  0  0  0
    1.1265    3.1908    3.6086 C   0  0  1  0  0  0  0  0  0  0  0  0
    1.4759    2.6496    5.0157 C   0  0  0  0  0  0  0  0  0  0  0  0
    0.2084    1.9433    5.5291 C   0  0  1  0  0  0  0  0  0  0  0  0
   -0.8746    3.0643    5.6992 C   0  0  0  0  0  0  0  0  0  0  0  0
    0.3891    2.1001    2.7367 C   0  0  1  0  0  0  0  0  0  0  0  0
    0.7392    0.7184    3.3014 C   0  0  0  0  0  0  0  0  0  0  0  0
    1.5606   -3.4581    4.9578 H   0  0  0  0  0  0  0  0  0  0  0  0
   -0.1713   -3.4549    5.2771 H   0  0  0  0  0  0  0  0  0  0  0  0
    0.9624   -2.9080    6.5235 H   0  0  0  0  0  0  0  0  0  0  0  0
    1.2989   -1.3289    4.1630 H   0  0  0  0  0  0  0  0  0  0  0  0
   -1.7691    0.0389    3.3046 H   0  0  0  0  0  0  0  0  0  0  0  0
   -2.3253    1.1461    4.5192 H   0  0  0  0  0  0  0  0  0  0  0  0
   -1.5967    1.7528    1.8898 H   0  0  0  0  0  0  0  0  0  0  0  0
   -1.9188    4.0482    2.4704 H   0  0  0  0  0  0  0  0  0  0  0  0
   -2.8842    3.1584    3.6130 H   0  0  0  0  0  0  0  0  0  0  0  0
   -1.6177    4.8836    4.7759 H   0  0  0  0  0  0  0  0  0  0  0  0
    0.1223    4.9975    2.9196 H   0  0  0  0  0  0  0  0  0  0  0  0
    0.7805    5.1328    4.5256 H   0  0  0  0  0  0  0  0  0  0  0  0
    2.0558    3.4796    3.1113 H   0  0  0  0  0  0  0  0  0  0  0  0
    2.3273    1.9687    4.9857 H   0  0  0  0  0  0  0  0  0  0  0  0
    1.7888    3.4523    5.6856 H   0  0  0  0  0  0  0  0  0  0  0  0
    0.4302    1.5566    6.5260 H   0  0  0  0  0  0  0  0  0  0  0  0
   -0.5483    3.7013    6.5216 H   0  0  0  0  0  0  0  0  0  0  0  0
   -1.8263    2.6506    6.0307 H   0  0  0  0  0  0  0  0  0  0  0  0
    0.6884    2.1890    1.6913 H   0  0  0  0  0  0  0  0  0  0  0  0
    1.8041    0.5695    3.4810 H   0  0  0  0  0  0  0  0  0  0  0  0
    0.4416   -0.0621    2.5979 H   0  0  0  0  0  0  0  0  0  0  0  0
  1  2  1  0
  1 17  1  0
  1 18  1  0
  1 19  1  0
  2  3  1  0
  2 20  1  0
  3  4  2  0
  5  3  1  1
  5 13  1  0
  5 16  1  0
  5  6  1  0
  6  7  1  0
  6 21  1  0
  6 22  1  0
  7 15  1  0
  7  8  1  0
  7 23  1  6
  8  9  1  0
  8 24  1  0
  8 25  1  0
  9 14  1  0
  9 10  1  0
  9 26  1  1
 10 11  1  0
 10 27  1  0
 10 28  1  0
 11 12  1  0
 11 15  1  0
 11 29  1  6
 12 13  1  0
 12 30  1  0
 12 31  1  0
 13 14  1  0
 13 32  1  1
 14 33  1  0
 14 34  1  0
 15 16  1  0
 15 35  1  6
 16 36  1  0
 16 37  1  0
M  END
>  <i_m_ct_stereo_status>  (336) 
1

>  <s_m_source_file>  (336) 
/var/tmp/pbs.5076255.sched01/tmpebi1rvwe/120qlbjc4nh.sdf

>  <i_m_source_file_index>  (336) 
31

>  <i_lp_mmshare_version>  (336) 
48012

>  <i_f3d_flags>  (336) 
0

>  <s_epik_input>  (336) 
W0NIM11bTkhdQyg9TylbQ0BdMTJbQ0BIXTNbQ0gyXVtDQEhdNFtDQEBIXShbQ0gyXTIpW0NAQEhdKFtDSDJdMSlbQ0gyXVtDQEhdKFtDSDJdNClbQ0gyXTM=

>  <s_epik_cmdline>  (336) 
J2VwaWtfcHl0aG9uJywgJy1waHQnLCAnMi4wJywgJy1waCcsICc3LjAnLCAnLXRuJywgJzgnLCAnLW1hJywgJzIwMCcsICctaW1hZScsICc8aW5maWxlLm1hZT4nLCAnLW9tYWUnLCAnPG91dGZpbGUubWFlPic=

>  <r_lp_tautomer_probability>  (336) 
1

>  <r_epik_Ionization_Penalty>  (336) 
1.02396e-07

>  <r_epik_Ionization_Penalty_Charging>  (336) 
0

>  <r_epik_Ionization_Penalty_Neutral>  (336) 
1.02396e-07

>  <r_epik_State_Penalty>  (336) 
-0

>  <r_epik_Charging_Adjusted_Penalty>  (336) 
0

>  <i_epik_Tot_Q>  (336) 
0

>  <i_epik_Tot_abs_Q>  (336) 
0

>  <s_lp_Force_Field>  (336) 
OPLS3e

>  <r_lp_Energy>  (336) 
51.8598

>  <b_lp_Chiralities_Consistent>  (336) 
1

>  <s_lp_Variant>  (336) 
115:0-1

>  <s_i_glide_gridfile>  (336) 
pfpi4k_grid

>  <i_i_glide_lignum>  (336) 
31

>  <i_i_glide_rotatable_bonds>  (336) 
2

>  <r_i_docking_score>  (336) 
-3.0538

>  <r_i_glide_ligand_efficiency>  (336) 
-0.190863

>  <r_i_glide_ligand_efficiency_sa>  (336) 
-0.480943

>  <r_i_glide_ligand_efficiency_ln>  (336) 
-0.809471

>  <r_i_glide_gscore>  (336) 
-3.0538

>  <r_i_glide_lipo>  (336) 
0

>  <r_i_glide_hbond>  (336) 
-0.0384296

>  <r_i_glide_metal>  (336) 
-0

>  <r_i_glide_rewards>  (336) 
-1.91371

>  <r_i_glide_evdw>  (336) 
-12.6326

>  <r_i_glide_ecoul>  (336) 
-2.98642

>  <r_i_glide_erotb>  (336) 
0

>  <r_i_glide_esite>  (336) 
-0.0220679

>  <r_i_glide_emodel>  (336) 
-19.3151

>  <r_i_glide_energy>  (336) 
-15.619

>  <r_i_glide_einternal>  (336) 
0.182344

>  <r_i_glide_intrahb_reward>  (336) 
-0

>  <i_i_glide_confnum>  (336) 
2

>  <i_i_glide_posenum>  (336) 
6

>  <r_i_glide_eff_state_penalty>  (336) 
0

>  <ligand_id>  (336) 
115

>  <original_smiles>  (336) 
CNC(=O)C12CC3CC4CC(CC1C4)C3C2

>  <smiles>  (336) 
[H]N(C(=O)C12C([H])([H])C3([H])C([H])([H])C4([H])C([H])([H])C([H])(C([H])([H])C1([H])C4([H])[H])C3([H])C2([H])[H])C([H])([H])[H]

$$$$
116:0:0
     RDKit          3D

 37 40  0  0  1  0  0  0  0  0999 V2000
    8.2233   -2.7814   -0.6220 C   0  0  0  0  0  0  0  0  0  0  0  0
    6.7656   -3.1972   -0.3441 C   0  0  2  0  0  0  0  0  0  0  0  0
    6.0778   -3.4230   -1.7322 C   0  0  0  0  0  0  0  0  0  0  0  0
    4.8716   -2.5473   -2.1160 C   0  0  0  0  0  0  0  0  0  0  0  0
    4.6425   -1.3056   -1.2455 C   0  0  0  0  0  0  0  0  0  0  0  0
    4.9186   -1.5162    0.2547 C   0  0  2  0  0  0  0  0  0  0  0  0
    6.2910   -1.9972    0.3371 O   0  0  0  0  0  0  0  0  0  0  0  0
    3.8283   -2.2544    1.1594 C   0  0  1  0  0  0  0  0  0  0  0  0
    2.8190   -3.0348    0.3353 C   0  0  0  0  0  0  0  0  0  0  0  0
    3.2850   -4.2584    0.1087 C   0  0  0  0  0  0  0  0  0  0  0  0
    4.4981   -4.3331    0.7353 N   0  0  0  0  0  0  0  0  0  0  0  0
    5.5116   -5.2715    0.9543 C   0  0  2  0  0  0  0  0  0  0  0  0
    5.2290   -5.5397    2.4743 C   0  0  0  0  0  0  0  0  0  0  0  0
    4.2826   -4.3681    2.9406 C   0  0  0  0  0  0  0  0  0  0  0  0
    4.6004   -3.3960    1.8162 C   0  0  2  0  0  0  0  0  0  0  0  0
    6.8431   -4.5146    0.5699 C   0  0  0  0  0  0  0  0  0  0  0  0
    8.7751   -3.5650   -1.1411 H   0  0  0  0  0  0  0  0  0  0  0  0
    8.7550   -2.5463    0.3008 H   0  0  0  0  0  0  0  0  0  0  0  0
    8.2655   -1.8948   -1.2537 H   0  0  0  0  0  0  0  0  0  0  0  0
    6.8139   -3.3499   -2.5312 H   0  0  0  0  0  0  0  0  0  0  0  0
    5.7346   -4.4555   -1.7819 H   0  0  0  0  0  0  0  0  0  0  0  0
    4.9622   -2.2432   -3.1595 H   0  0  0  0  0  0  0  0  0  0  0  0
    3.9774   -3.1654   -2.1149 H   0  0  0  0  0  0  0  0  0  0  0  0
    5.3234   -0.5303   -1.5942 H   0  0  0  0  0  0  0  0  0  0  0  0
    3.6367   -0.9183   -1.3989 H   0  0  0  0  0  0  0  0  0  0  0  0
    4.9805   -0.5140    0.6806 H   0  0  0  0  0  0  0  0  0  0  0  0
    3.3414   -1.5920    1.8763 H   0  0  0  0  0  0  0  0  0  0  0  0
    1.8669   -2.6536    0.0102 H   0  0  0  0  0  0  0  0  0  0  0  0
    2.8685   -5.1100   -0.3997 H   0  0  0  0  0  0  0  0  0  0  0  0
    5.3411   -6.1511    0.3309 H   0  0  0  0  0  0  0  0  0  0  0  0
    4.7071   -6.4916    2.5950 H   0  0  0  0  0  0  0  0  0  0  0  0
    6.1467   -5.5996    3.0641 H   0  0  0  0  0  0  0  0  0  0  0  0
    3.2337   -4.6710    2.9111 H   0  0  0  0  0  0  0  0  0  0  0  0
    4.5123   -3.9897    3.9385 H   0  0  0  0  0  0  0  0  0  0  0  0
    5.5919   -3.0534    2.1102 H   0  0  0  0  0  0  0  0  0  0  0  0
    7.4915   -5.2462    0.0842 H   0  0  0  0  0  0  0  0  0  0  0  0
    7.3794   -4.2483    1.4826 H   0  0  0  0  0  0  0  0  0  0  0  0
  2  1  1  6
  1 17  1  0
  1 18  1  0
  1 19  1  0
  2  7  1  0
  2 16  1  0
  2  3  1  0
  3  4  1  0
  3 20  1  0
  3 21  1  0
  4  5  1  0
  4 22  1  0
  4 23  1  0
  5  6  1  0
  5 24  1  0
  5 25  1  0
  6  7  1  0
  6  8  1  0
  6 26  1  1
  8 15  1  0
  8  9  1  0
  8 27  1  1
  9 10  2  0
  9 28  1  0
 10 11  1  0
 10 29  1  0
 11 15  1  0
 11 12  1  0
 12 13  1  0
 12 16  1  0
 12 30  1  6
 13 14  1  0
 13 31  1  0
 13 32  1  0
 14 15  1  0
 14 33  1  0
 14 34  1  0
 15 35  1  1
 16 36  1  0
 16 37  1  0
M  END
>  <i_m_ct_stereo_status>  (337) 
1

>  <s_m_source_file>  (337) 
/var/tmp/pbs.5076255.sched01/tmpebi1rvwe/120qlbjc4nh.sdf

>  <i_m_source_file_index>  (337) 
32

>  <i_lp_mmshare_version>  (337) 
48012

>  <i_f3d_flags>  (337) 
0

>  <s_epik_input>  (337) 
W0NIM11bQ0BdMTJbQ0gyXVtDSDJdW0NIMl1bQ0BIXShPMSlbQ0BASF0zW0NAQEhdNE4oW0NIXT1bQ0hdMylbQ0BASF0oW0NIMl0yKVtDSDJdW0NIMl00

>  <s_epik_cmdline>  (337) 
J2VwaWtfcHl0aG9uJywgJy1waHQnLCAnMi4wJywgJy1waCcsICc3LjAnLCAnLXRuJywgJzgnLCAnLW1hJywgJzIwMCcsICctaW1hZScsICc8aW5maWxlLm1hZT4nLCAnLW9tYWUnLCAnPG91dGZpbGUubWFlPic=

>  <r_epik_Ionization_Penalty>  (337) 
0.00309575

>  <r_epik_Ionization_Penalty_Charging>  (337) 
2.70002e-06

>  <r_epik_Ionization_Penalty_Neutral>  (337) 
0.00309305

>  <r_epik_State_Penalty>  (337) 
0.00740158

>  <r_epik_Charging_Adjusted_Penalty>  (337) 
0.00740428

>  <i_epik_Tot_Q>  (337) 
0

>  <i_epik_Tot_abs_Q>  (337) 
0

>  <s_epik_Chemistry_Notes>  (337) 
This compound has an imine and may undergo hydrolysis.

>  <s_lp_Force_Field>  (337) 
OPLS3e

>  <r_lp_Energy>  (337) 
94.5461

>  <b_lp_Chiralities_Consistent>  (337) 
1

>  <s_lp_Variant>  (337) 
116:0-1

>  <s_i_glide_gridfile>  (337) 
pfpi4k_grid

>  <i_i_glide_lignum>  (337) 
32

>  <i_i_glide_rotatable_bonds>  (337) 
0

>  <r_i_docking_score>  (337) 
-3.55301

>  <r_i_glide_ligand_efficiency>  (337) 
-0.222063

>  <r_i_glide_ligand_efficiency_sa>  (337) 
-0.559564

>  <r_i_glide_ligand_efficiency_ln>  (337) 
-0.941796

>  <r_i_glide_gscore>  (337) 
-3.55301

>  <r_i_glide_lipo>  (337) 
-0.585089

>  <r_i_glide_hbond>  (337) 
0

>  <r_i_glide_metal>  (337) 
-0

>  <r_i_glide_rewards>  (337) 
-1.95784

>  <r_i_glide_evdw>  (337) 
-19.5436

>  <r_i_glide_ecoul>  (337) 
-0.219335

>  <r_i_glide_erotb>  (337) 
0

>  <r_i_glide_esite>  (337) 
0

>  <r_i_glide_emodel>  (337) 
-24.0304

>  <r_i_glide_energy>  (337) 
-19.7629

>  <r_i_glide_einternal>  (337) 
0

>  <r_i_glide_intrahb_reward>  (337) 
-0

>  <i_i_glide_confnum>  (337) 
2

>  <i_i_glide_posenum>  (337) 
1

>  <r_i_glide_eff_state_penalty>  (337) 
0

>  <ligand_id>  (337) 
116

>  <original_smiles>  (337) 
CC12CCCC(O1)C1C=CN3C(CCC13)C2

>  <smiles>  (337) 
[H]C1=C([H])C2([H])C3([H])OC(C([H])([H])[H])(C([H])([H])C([H])([H])C3([H])[H])C([H])([H])C3([H])N1C2([H])C([H])([H])C3([H])[H]

$$$$
116:0:1
     RDKit          3D

 37 40  0  0  1  0  0  0  0  0999 V2000
    5.3810   -0.4855    3.1253 C   0  0  0  0  0  0  0  0  0  0  0  0
    4.7786   -1.4488    2.0808 C   0  0  2  0  0  0  0  0  0  0  0  0
    3.3722   -1.8787    2.6174 C   0  0  0  0  0  0  0  0  0  0  0  0
    3.1314   -3.3727    2.9289 C   0  0  0  0  0  0  0  0  0  0  0  0
    4.3850   -4.2582    2.9952 C   0  0  0  0  0  0  0  0  0  0  0  0
    5.4576   -3.9258    1.9424 C   0  0  2  0  0  0  0  0  0  0  0  0
    5.7705   -2.5172    2.1327 O   0  0  0  0  0  0  0  0  0  0  0  0
    5.2762   -4.4370    0.4409 C   0  0  1  0  0  0  0  0  0  0  0  0
    3.8439   -4.8451    0.1306 C   0  0  0  0  0  0  0  0  0  0  0  0
    3.1694   -3.7684   -0.2717 C   0  0  0  0  0  0  0  0  0  0  0  0
    4.0510   -2.7208   -0.2511 N   0  0  0  0  0  0  0  0  0  0  0  0
    4.0595   -1.3545   -0.5676 C   0  0  2  0  0  0  0  0  0  0  0  0
    4.8979   -1.4507   -1.8883 C   0  0  0  0  0  0  0  0  0  0  0  0
    5.5407   -2.8908   -1.8850 C   0  0  0  0  0  0  0  0  0  0  0  0
    5.4031   -3.1650   -0.3959 C   0  0  2  0  0  0  0  0  0  0  0  0
    4.7220   -0.6561    0.6869 C   0  0  0  0  0  0  0  0  0  0  0  0
    4.7822    0.4189    3.2312 H   0  0  0  0  0  0  0  0  0  0  0  0
    6.3939   -0.1933    2.8541 H   0  0  0  0  0  0  0  0  0  0  0  0
    5.4345   -0.9591    4.1058 H   0  0  0  0  0  0  0  0  0  0  0  0
    3.1281   -1.3117    3.5146 H   0  0  0  0  0  0  0  0  0  0  0  0
    2.6123   -1.5624    1.9023 H   0  0  0  0  0  0  0  0  0  0  0  0
    2.5872   -3.4607    3.8707 H   0  0  0  0  0  0  0  0  0  0  0  0
    2.4355   -3.7765    2.1995 H   0  0  0  0  0  0  0  0  0  0  0  0
    4.8391   -4.1187    3.9756 H   0  0  0  0  0  0  0  0  0  0  0  0
    4.1087   -5.3098    2.9407 H   0  0  0  0  0  0  0  0  0  0  0  0
    6.3627   -4.4313    2.2821 H   0  0  0  0  0  0  0  0  0  0  0  0
    5.9895   -5.2116    0.1554 H   0  0  0  0  0  0  0  0  0  0  0  0
    3.4651   -5.8536    0.2015 H   0  0  0  0  0  0  0  0  0  0  0  0
    2.1594   -3.6341   -0.6164 H   0  0  0  0  0  0  0  0  0  0  0  0
    3.0349   -1.0166   -0.7368 H   0  0  0  0  0  0  0  0  0  0  0  0
    4.2390   -1.3488   -2.7540 H   0  0  0  0  0  0  0  0  0  0  0  0
    5.6367   -0.6518   -1.9570 H   0  0  0  0  0  0  0  0  0  0  0  0
    4.9394   -3.5958   -2.4655 H   0  0  0  0  0  0  0  0  0  0  0  0
    6.5671   -2.9191   -2.2528 H   0  0  0  0  0  0  0  0  0  0  0  0
    6.1974   -2.5338    0.0032 H   0  0  0  0  0  0  0  0  0  0  0  0
    4.1965    0.2884    0.8435 H   0  0  0  0  0  0  0  0  0  0  0  0
    5.7439   -0.3637    0.4404 H   0  0  0  0  0  0  0  0  0  0  0  0
  2  1  1  1
  1 17  1  0
  1 18  1  0
  1 19  1  0
  2  7  1  0
  2 16  1  0
  2  3  1  0
  3  4  1  0
  3 20  1  0
  3 21  1  0
  4  5  1  0
  4 22  1  0
  4 23  1  0
  5  6  1  0
  5 24  1  0
  5 25  1  0
  6  7  1  0
  6  8  1  0
  6 26  1  1
  8 15  1  0
  8  9  1  0
  8 27  1  6
  9 10  2  0
  9 28  1  0
 10 11  1  0
 10 29  1  0
 11 15  1  0
 11 12  1  0
 12 13  1  0
 12 16  1  0
 12 30  1  6
 13 14  1  0
 13 31  1  0
 13 32  1  0
 14 15  1  0
 14 33  1  0
 14 34  1  0
 15 35  1  1
 16 36  1  0
 16 37  1  0
M  END
>  <i_m_ct_stereo_status>  (338) 
1

>  <s_m_source_file>  (338) 
/var/tmp/pbs.5076255.sched01/tmpebi1rvwe/120qlbjc4nh.sdf

>  <i_m_source_file_index>  (338) 
32

>  <i_lp_mmshare_version>  (338) 
48012

>  <i_f3d_flags>  (338) 
0

>  <s_epik_input>  (338) 
W0NIM11bQ0BdMTJbQ0gyXVtDSDJdW0NIMl1bQ0BIXShPMSlbQ0BASF0zW0NAQEhdNE4oW0NIXT1bQ0hdMylbQ0BASF0oW0NIMl0yKVtDSDJdW0NIMl00

>  <s_epik_cmdline>  (338) 
J2VwaWtfcHl0aG9uJywgJy1waHQnLCAnMi4wJywgJy1waCcsICc3LjAnLCAnLXRuJywgJzgnLCAnLW1hJywgJzIwMCcsICctaW1hZScsICc8aW5maWxlLm1hZT4nLCAnLW9tYWUnLCAnPG91dGZpbGUubWFlPic=

>  <r_epik_Ionization_Penalty>  (338) 
0.00309575

>  <r_epik_Ionization_Penalty_Charging>  (338) 
2.70002e-06

>  <r_epik_Ionization_Penalty_Neutral>  (338) 
0.00309305

>  <r_epik_State_Penalty>  (338) 
0.00740158

>  <r_epik_Charging_Adjusted_Penalty>  (338) 
0.00740428

>  <i_epik_Tot_Q>  (338) 
0

>  <i_epik_Tot_abs_Q>  (338) 
0

>  <s_epik_Chemistry_Notes>  (338) 
This compound has an imine and may undergo hydrolysis.

>  <s_lp_Force_Field>  (338) 
OPLS3e

>  <r_lp_Energy>  (338) 
94.5461

>  <b_lp_Chiralities_Consistent>  (338) 
1

>  <s_lp_Variant>  (338) 
116:0-1

>  <s_i_glide_gridfile>  (338) 
pfpi4k_grid

>  <i_i_glide_lignum>  (338) 
32

>  <i_i_glide_rotatable_bonds>  (338) 
0

>  <r_i_docking_score>  (338) 
-3.43007

>  <r_i_glide_ligand_efficiency>  (338) 
-0.21438

>  <r_i_glide_ligand_efficiency_sa>  (338) 
-0.540203

>  <r_i_glide_ligand_efficiency_ln>  (338) 
-0.909209

>  <r_i_glide_gscore>  (338) 
-3.43007

>  <r_i_glide_lipo>  (338) 
-0.523976

>  <r_i_glide_hbond>  (338) 
0

>  <r_i_glide_metal>  (338) 
-0

>  <r_i_glide_rewards>  (338) 
-1.91371

>  <r_i_glide_evdw>  (338) 
-19.698

>  <r_i_glide_ecoul>  (338) 
0.00731218

>  <r_i_glide_erotb>  (338) 
0

>  <r_i_glide_esite>  (338) 
-0.00858562

>  <r_i_glide_emodel>  (338) 
-23.8107

>  <r_i_glide_energy>  (338) 
-19.6907

>  <r_i_glide_einternal>  (338) 
0

>  <r_i_glide_intrahb_reward>  (338) 
-0

>  <i_i_glide_confnum>  (338) 
1

>  <i_i_glide_posenum>  (338) 
15

>  <r_i_glide_eff_state_penalty>  (338) 
0

>  <ligand_id>  (338) 
116

>  <original_smiles>  (338) 
CC12CCCC(O1)C1C=CN3C(CCC13)C2

>  <smiles>  (338) 
[H]C1=C([H])C2([H])C3([H])OC(C([H])([H])[H])(C([H])([H])C([H])([H])C3([H])[H])C([H])([H])C3([H])N1C2([H])C([H])([H])C3([H])[H]

$$$$
116:0:2
     RDKit          3D

 37 40  0  0  1  0  0  0  0  0999 V2000
    5.6856   -5.7984    2.4918 C   0  0  0  0  0  0  0  0  0  0  0  0
    5.5227   -4.4403    1.7739 C   0  0  2  0  0  0  0  0  0  0  0  0
    5.3029   -3.3613    2.8836 C   0  0  0  0  0  0  0  0  0  0  0  0
    3.9774   -2.5729    2.8993 C   0  0  0  0  0  0  0  0  0  0  0  0
    2.8529   -3.1414    2.0224 C   0  0  0  0  0  0  0  0  0  0  0  0
    3.3220   -3.7130    0.6722 C   0  0  2  0  0  0  0  0  0  0  0  0
    4.3222   -4.7170    0.9951 O   0  0  0  0  0  0  0  0  0  0  0  0
    3.6489   -2.7163   -0.5280 C   0  0  1  0  0  0  0  0  0  0  0  0
    3.8532   -1.2843   -0.0558 C   0  0  0  0  0  0  0  0  0  0  0  0
    5.1287   -1.1106    0.2725 C   0  0  0  0  0  0  0  0  0  0  0  0
    5.7612   -2.3038    0.0389 N   0  0  0  0  0  0  0  0  0  0  0  0
    7.0523   -2.8613    0.1232 C   0  0  2  0  0  0  0  0  0  0  0  0
    7.3476   -2.9342   -1.4097 C   0  0  0  0  0  0  0  0  0  0  0  0
    5.9532   -2.7391   -2.1234 C   0  0  0  0  0  0  0  0  0  0  0  0
    5.0724   -3.0920   -0.9388 C   0  0  2  0  0  0  0  0  0  0  0  0
    6.8553   -4.2188    0.9073 C   0  0  0  0  0  0  0  0  0  0  0  0
    6.5619   -5.8064    3.1393 H   0  0  0  0  0  0  0  0  0  0  0  0
    5.7868   -6.6153    1.7774 H   0  0  0  0  0  0  0  0  0  0  0  0
    4.8149   -6.0112    3.1146 H   0  0  0  0  0  0  0  0  0  0  0  0
    5.4285   -3.8095    3.8676 H   0  0  0  0  0  0  0  0  0  0  0  0
    6.1086   -2.6311    2.8243 H   0  0  0  0  0  0  0  0  0  0  0  0
    3.6187   -2.4899    3.9265 H   0  0  0  0  0  0  0  0  0  0  0  0
    4.1745   -1.5428    2.6207 H   0  0  0  0  0  0  0  0  0  0  0  0
    2.3867   -3.9580    2.5730 H   0  0  0  0  0  0  0  0  0  0  0  0
    2.0745   -2.3924    1.8740 H   0  0  0  0  0  0  0  0  0  0  0  0
    2.4849   -4.3050    0.2997 H   0  0  0  0  0  0  0  0  0  0  0  0
    2.9320   -2.7718   -1.3451 H   0  0  0  0  0  0  0  0  0  0  0  0
    3.0603   -0.5541   -0.0139 H   0  0  0  0  0  0  0  0  0  0  0  0
    5.6686   -0.2457    0.6187 H   0  0  0  0  0  0  0  0  0  0  0  0
    7.7137   -2.1728    0.6502 H   0  0  0  0  0  0  0  0  0  0  0  0
    8.0405   -2.1552   -1.7121 H   0  0  0  0  0  0  0  0  0  0  0  0
    7.8459   -3.8579   -1.6959 H   0  0  0  0  0  0  0  0  0  0  0  0
    5.7888   -1.6943   -2.3977 H   0  0  0  0  0  0  0  0  0  0  0  0
    5.8069   -3.3721   -2.9995 H   0  0  0  0  0  0  0  0  0  0  0  0
    5.1934   -4.1756   -0.9183 H   0  0  0  0  0  0  0  0  0  0  0  0
    7.7162   -4.3344    1.5651 H   0  0  0  0  0  0  0  0  0  0  0  0
    6.9233   -5.0525    0.2071 H   0  0  0  0  0  0  0  0  0  0  0  0
  2  1  1  1
  1 17  1  0
  1 18  1  0
  1 19  1  0
  2  7  1  0
  2 16  1  0
  2  3  1  0
  3  4  1  0
  3 20  1  0
  3 21  1  0
  4  5  1  0
  4 22  1  0
  4 23  1  0
  5  6  1  0
  5 24  1  0
  5 25  1  0
  6  7  1  0
  6  8  1  0
  6 26  1  6
  8 15  1  0
  8  9  1  0
  8 27  1  6
  9 10  2  0
  9 28  1  0
 10 11  1  0
 10 29  1  0
 11 15  1  0
 11 12  1  0
 12 13  1  0
 12 16  1  0
 12 30  1  1
 13 14  1  0
 13 31  1  0
 13 32  1  0
 14 15  1  0
 14 33  1  0
 14 34  1  0
 15 35  1  1
 16 36  1  0
 16 37  1  0
M  END
>  <i_m_ct_stereo_status>  (339) 
1

>  <s_m_source_file>  (339) 
/var/tmp/pbs.5076255.sched01/tmpebi1rvwe/120qlbjc4nh.sdf

>  <i_m_source_file_index>  (339) 
32

>  <i_lp_mmshare_version>  (339) 
48012

>  <i_f3d_flags>  (339) 
0

>  <s_epik_input>  (339) 
W0NIM11bQ0BdMTJbQ0gyXVtDSDJdW0NIMl1bQ0BIXShPMSlbQ0BASF0zW0NAQEhdNE4oW0NIXT1bQ0hdMylbQ0BASF0oW0NIMl0yKVtDSDJdW0NIMl00

>  <s_epik_cmdline>  (339) 
J2VwaWtfcHl0aG9uJywgJy1waHQnLCAnMi4wJywgJy1waCcsICc3LjAnLCAnLXRuJywgJzgnLCAnLW1hJywgJzIwMCcsICctaW1hZScsICc8aW5maWxlLm1hZT4nLCAnLW9tYWUnLCAnPG91dGZpbGUubWFlPic=

>  <r_epik_Ionization_Penalty>  (339) 
0.00309575

>  <r_epik_Ionization_Penalty_Charging>  (339) 
2.70002e-06

>  <r_epik_Ionization_Penalty_Neutral>  (339) 
0.00309305

>  <r_epik_State_Penalty>  (339) 
0.00740158

>  <r_epik_Charging_Adjusted_Penalty>  (339) 
0.00740428

>  <i_epik_Tot_Q>  (339) 
0

>  <i_epik_Tot_abs_Q>  (339) 
0

>  <s_epik_Chemistry_Notes>  (339) 
This compound has an imine and may undergo hydrolysis.

>  <s_lp_Force_Field>  (339) 
OPLS3e

>  <r_lp_Energy>  (339) 
94.5461

>  <b_lp_Chiralities_Consistent>  (339) 
1

>  <s_lp_Variant>  (339) 
116:0-1

>  <s_i_glide_gridfile>  (339) 
pfpi4k_grid

>  <i_i_glide_lignum>  (339) 
32

>  <i_i_glide_rotatable_bonds>  (339) 
0

>  <r_i_docking_score>  (339) 
-3.34033

>  <r_i_glide_ligand_efficiency>  (339) 
-0.20877

>  <r_i_glide_ligand_efficiency_sa>  (339) 
-0.526069

>  <r_i_glide_ligand_efficiency_ln>  (339) 
-0.88542

>  <r_i_glide_gscore>  (339) 
-3.34033

>  <r_i_glide_lipo>  (339) 
-0.450781

>  <r_i_glide_hbond>  (339) 
0

>  <r_i_glide_metal>  (339) 
-0

>  <r_i_glide_rewards>  (339) 
-1.92409

>  <r_i_glide_evdw>  (339) 
-18.6468

>  <r_i_glide_ecoul>  (339) 
-0.220763

>  <r_i_glide_erotb>  (339) 
0

>  <r_i_glide_esite>  (339) 
0

>  <r_i_glide_emodel>  (339) 
-22.858

>  <r_i_glide_energy>  (339) 
-18.8676

>  <r_i_glide_einternal>  (339) 
0

>  <r_i_glide_intrahb_reward>  (339) 
-0

>  <i_i_glide_confnum>  (339) 
1

>  <i_i_glide_posenum>  (339) 
23

>  <r_i_glide_eff_state_penalty>  (339) 
0

>  <ligand_id>  (339) 
116

>  <original_smiles>  (339) 
CC12CCCC(O1)C1C=CN3C(CCC13)C2

>  <smiles>  (339) 
[H]C1=C([H])C2([H])C3([H])OC(C([H])([H])[H])(C([H])([H])C([H])([H])C3([H])[H])C([H])([H])C3([H])N1C2([H])C([H])([H])C3([H])[H]

$$$$
116:1:0
     RDKit          3D

 38 41  0  0  1  0  0  0  0  0999 V2000
    5.0146   -0.4412    1.8496 C   0  0  0  0  0  0  0  0  0  0  0  0
    4.8283   -1.6472    0.9116 C   0  0  2  0  0  0  0  0  0  0  0  0
    4.6188   -2.8772    1.8273 C   0  0  0  0  0  0  0  0  0  0  0  0
    5.8384   -3.7825    2.0556 C   0  0  0  0  0  0  0  0  0  0  0  0
    7.0279   -3.6190    1.0829 C   0  0  0  0  0  0  0  0  0  0  0  0
    6.7729   -2.7827   -0.1868 C   0  0  2  0  0  0  0  0  0  0  0  0
    6.0909   -1.5910    0.2153 O   0  0  0  0  0  0  0  0  0  0  0  0
    6.1424   -3.5507   -1.3857 C   0  0  1  0  0  0  0  0  0  0  0  0
    5.3821   -4.7090   -0.7561 C   0  0  0  0  0  0  0  0  0  0  0  0
    4.0881   -4.5030   -0.6449 C   0  0  0  0  0  0  0  0  0  0  0  0
    3.8499   -3.3511   -1.4671 N   0  0  1  0  0  0  0  0  0  0  0  0
    3.0388   -2.2443   -1.2247 C   0  0  2  0  0  0  0  0  0  0  0  0
    3.1628   -1.6632   -2.6981 C   0  0  0  0  0  0  0  0  0  0  0  0
    4.4538   -2.3248   -3.3259 C   0  0  0  0  0  0  0  0  0  0  0  0
    5.0287   -2.7188   -1.9997 C   0  0  2  0  0  0  0  0  0  0  0  0
    3.5741   -1.3290   -0.0253 C   0  0  0  0  0  0  0  0  0  0  0  0
    4.1340   -0.2401    2.4625 H   0  0  0  0  0  0  0  0  0  0  0  0
    5.2356    0.4634    1.2832 H   0  0  0  0  0  0  0  0  0  0  0  0
    5.8506   -0.6096    2.5286 H   0  0  0  0  0  0  0  0  0  0  0  0
    4.2282   -2.5647    2.7930 H   0  0  0  0  0  0  0  0  0  0  0  0
    3.7901   -3.4721    1.4771 H   0  0  0  0  0  0  0  0  0  0  0  0
    6.1984   -3.6035    3.0629 H   0  0  0  0  0  0  0  0  0  0  0  0
    5.5269   -4.8251    2.0537 H   0  0  0  0  0  0  0  0  0  0  0  0
    7.7608   -3.0765    1.6694 H   0  0  0  0  0  0  0  0  0  0  0  0
    7.5411   -4.5613    0.8779 H   0  0  0  0  0  0  0  0  0  0  0  0
    7.7427   -2.4421   -0.5484 H   0  0  0  0  0  0  0  0  0  0  0  0
    6.8786   -3.8521   -2.1250 H   0  0  0  0  0  0  0  0  0  0  0  0
    5.8566   -5.6118   -0.3958 H   0  0  0  0  0  0  0  0  0  0  0  0
    3.3036   -5.1830   -0.3315 H   0  0  0  0  0  0  0  0  0  0  0  0
    2.0574   -2.6685   -1.0226 H   0  0  0  0  0  0  0  0  0  0  0  0
    2.3003   -1.9097   -3.3064 H   0  0  0  0  0  0  0  0  0  0  0  0
    3.2460   -0.5697   -2.6850 H   0  0  0  0  0  0  0  0  0  0  0  0
    4.2254   -3.1699   -3.9777 H   0  0  0  0  0  0  0  0  0  0  0  0
    5.0154   -1.5746   -3.8664 H   0  0  0  0  0  0  0  0  0  0  0  0
    5.2729   -1.7015   -1.7575 H   0  0  0  0  0  0  0  0  0  0  0  0
    2.7190   -1.1693    0.6315 H   0  0  0  0  0  0  0  0  0  0  0  0
    3.7801   -0.3369   -0.4345 H   0  0  0  0  0  0  0  0  0  0  0  0
    3.4176   -3.7343   -2.2856 H   0  0  0  0  0  0  0  0  0  0  0  0
  2  1  1  1
  1 17  1  0
  1 18  1  0
  1 19  1  0
  2  7  1  0
  2 16  1  0
  2  3  1  0
  3  4  1  0
  3 20  1  0
  3 21  1  0
  4  5  1  0
  4 22  1  0
  4 23  1  0
  5  6  1  0
  5 24  1  0
  5 25  1  0
  6  7  1  0
  6  8  1  0
  6 26  1  6
  8 15  1  0
  8  9  1  0
  8 27  1  6
  9 10  2  0
  9 28  1  0
 10 11  1  0
 10 29  1  0
 11 15  1  0
 11 12  1  0
 11 38  1  6
 12 13  1  0
 12 16  1  0
 12 30  1  1
 13 14  1  0
 13 31  1  0
 13 32  1  0
 14 15  1  0
 14 33  1  0
 14 34  1  0
 15 35  1  1
 16 36  1  0
 16 37  1  0
M  CHG  1  11   1
M  END
>  <i_m_ct_stereo_status>  (340) 
1

>  <s_m_source_file>  (340) 
/var/tmp/pbs.5076255.sched01/tmpebi1rvwe/120qlbjc4nh.sdf

>  <i_m_source_file_index>  (340) 
33

>  <i_lp_mmshare_version>  (340) 
48012

>  <i_f3d_flags>  (340) 
0

>  <s_epik_input>  (340) 
W0NIM11bQ0BdMTJbQ0gyXVtDSDJdW0NIMl1bQ0BIXShPMSlbQ0BASF0zW0NAQEhdNE4oW0NIXT1bQ0hdMylbQ0BASF0oW0NIMl0yKVtDSDJdW0NIMl00

>  <s_epik_cmdline>  (340) 
J2VwaWtfcHl0aG9uJywgJy1waHQnLCAnMi4wJywgJy1waCcsICc3LjAnLCAnLXRuJywgJzgnLCAnLW1hJywgJzIwMCcsICctaW1hZScsICc8aW5maWxlLm1hZT4nLCAnLW9tYWUnLCAnPG91dGZpbGUubWFlPic=

>  <r_epik_Ionization_Penalty>  (340) 
1.77804

>  <r_epik_Ionization_Penalty_Charging>  (340) 
1.77804

>  <r_epik_Ionization_Penalty_Neutral>  (340) 
1.45727e-12

>  <r_epik_State_Penalty>  (340) 
2.60034

>  <r_epik_Charging_Adjusted_Penalty>  (340) 
4.37839

>  <i_epik_Tot_Q>  (340) 
1

>  <i_epik_Tot_abs_Q>  (340) 
1

>  <s_lp_Force_Field>  (340) 
OPLS3e

>  <r_lp_Energy>  (340) 
102.993

>  <b_lp_Chiralities_Consistent>  (340) 
1

>  <s_lp_Variant>  (340) 
116:0-2

>  <s_i_glide_gridfile>  (340) 
pfpi4k_grid

>  <i_i_glide_lignum>  (340) 
33

>  <i_i_glide_rotatable_bonds>  (340) 
0

>  <r_i_docking_score>  (340) 
-3.66451

>  <r_i_glide_ligand_efficiency>  (340) 
-0.229032

>  <r_i_glide_ligand_efficiency_sa>  (340) 
-0.577124

>  <r_i_glide_ligand_efficiency_ln>  (340) 
-0.971352

>  <r_i_glide_gscore>  (340) 
-3.66451

>  <r_i_glide_lipo>  (340) 
-0.658093

>  <r_i_glide_hbond>  (340) 
0

>  <r_i_glide_metal>  (340) 
-0

>  <r_i_glide_rewards>  (340) 
-1.90684

>  <r_i_glide_evdw>  (340) 
-10.8039

>  <r_i_glide_ecoul>  (340) 
-3.7164

>  <r_i_glide_erotb>  (340) 
0

>  <r_i_glide_esite>  (340) 
-0.00192802

>  <r_i_glide_emodel>  (340) 
-16.972

>  <r_i_glide_energy>  (340) 
-14.5203

>  <r_i_glide_einternal>  (340) 
0

>  <r_i_glide_intrahb_reward>  (340) 
-0

>  <i_i_glide_confnum>  (340) 
2

>  <i_i_glide_posenum>  (340) 
30

>  <r_i_glide_eff_state_penalty>  (340) 
0

>  <ligand_id>  (340) 
116

>  <original_smiles>  (340) 
CC12CCCC(O1)C1C=CN3C(CCC13)C2

>  <smiles>  (340) 
[H]C1=C([H])[N+]2([H])C3([H])C([H])([H])C([H])([H])C2([H])C1([H])C1([H])OC(C([H])([H])[H])(C([H])([H])C([H])([H])C1([H])[H])C3([H])[H]

$$$$
116:1:1
     RDKit          3D

 38 41  0  0  1  0  0  0  0  0999 V2000
    3.4624   -2.7059   -2.5137 C   0  0  0  0  0  0  0  0  0  0  0  0
    3.8471   -2.9610   -1.0368 C   0  0  2  0  0  0  0  0  0  0  0  0
    4.0665   -1.5646   -0.3960 C   0  0  0  0  0  0  0  0  0  0  0  0
    5.5208   -1.0556   -0.3129 C   0  0  0  0  0  0  0  0  0  0  0  0
    6.6398   -2.1040   -0.5046 C   0  0  0  0  0  0  0  0  0  0  0  0
    6.2023   -3.5672   -0.3580 C   0  0  2  0  0  0  0  0  0  0  0  0
    5.0708   -3.7032   -1.2385 O   0  0  0  0  0  0  0  0  0  0  0  0
    6.0832   -4.2017    1.0812 C   0  0  1  0  0  0  0  0  0  0  0  0
    5.7917   -3.0735    2.0479 C   0  0  0  0  0  0  0  0  0  0  0  0
    4.5078   -2.9696    2.3580 C   0  0  0  0  0  0  0  0  0  0  0  0
    3.8674   -4.1694    1.8308 N   0  0  1  0  0  0  0  0  0  0  0  0
    2.6418   -4.3692    1.1183 C   0  0  2  0  0  0  0  0  0  0  0  0
    2.7094   -5.9475    1.2909 C   0  0  0  0  0  0  0  0  0  0  0  0
    4.2271   -6.3286    1.5985 C   0  0  0  0  0  0  0  0  0  0  0  0
    4.7825   -5.0197    1.1068 C   0  0  2  0  0  0  0  0  0  0  0  0
    2.6637   -3.8071   -0.3748 C   0  0  0  0  0  0  0  0  0  0  0  0
    2.5148   -2.1705   -2.6051 H   0  0  0  0  0  0  0  0  0  0  0  0
    3.3651   -3.6380   -3.0734 H   0  0  0  0  0  0  0  0  0  0  0  0
    4.2209   -2.1068   -3.0178 H   0  0  0  0  0  0  0  0  0  0  0  0
    3.4718   -0.8205   -0.9276 H   0  0  0  0  0  0  0  0  0  0  0  0
    3.6073   -1.5287    0.5850 H   0  0  0  0  0  0  0  0  0  0  0  0
    5.6520   -0.2711   -1.0553 H   0  0  0  0  0  0  0  0  0  0  0  0
    5.6571   -0.5556    0.6436 H   0  0  0  0  0  0  0  0  0  0  0  0
    7.0040   -2.0026   -1.5264 H   0  0  0  0  0  0  0  0  0  0  0  0
    7.4949   -1.8829    0.1362 H   0  0  0  0  0  0  0  0  0  0  0  0
    6.9821   -4.1566   -0.8311 H   0  0  0  0  0  0  0  0  0  0  0  0
    6.9645   -4.7754    1.3726 H   0  0  0  0  0  0  0  0  0  0  0  0
    6.5566   -2.3712    2.3523 H   0  0  0  0  0  0  0  0  0  0  0  0
    3.9775   -2.2807    2.9982 H   0  0  0  0  0  0  0  0  0  0  0  0
    1.8175   -3.9466    1.6878 H   0  0  0  0  0  0  0  0  0  0  0  0
    2.0875   -6.2777    2.1247 H   0  0  0  0  0  0  0  0  0  0  0  0
    2.3390   -6.4634    0.4042 H   0  0  0  0  0  0  0  0  0  0  0  0
    4.4101   -6.4966    2.6613 H   0  0  0  0  0  0  0  0  0  0  0  0
    4.5825   -7.1893    1.0282 H   0  0  0  0  0  0  0  0  0  0  0  0
    4.5825   -5.2976    0.0770 H   0  0  0  0  0  0  0  0  0  0  0  0
    1.7827   -3.1750   -0.4745 H   0  0  0  0  0  0  0  0  0  0  0  0
    2.4613   -4.6526   -1.0361 H   0  0  0  0  0  0  0  0  0  0  0  0
    3.6791   -4.7122    2.6553 H   0  0  0  0  0  0  0  0  0  0  0  0
  2  1  1  6
  1 17  1  0
  1 18  1  0
  1 19  1  0
  2  7  1  0
  2 16  1  0
  2  3  1  0
  3  4  1  0
  3 20  1  0
  3 21  1  0
  4  5  1  0
  4 22  1  0
  4 23  1  0
  5  6  1  0
  5 24  1  0
  5 25  1  0
  6  7  1  0
  6  8  1  0
  6 26  1  6
  8 15  1  0
  8  9  1  0
  8 27  1  1
  9 10  2  0
  9 28  1  0
 10 11  1  0
 10 29  1  0
 11 15  1  0
 11 12  1  0
 11 38  1  1
 12 13  1  0
 12 16  1  0
 12 30  1  1
 13 14  1  0
 13 31  1  0
 13 32  1  0
 14 15  1  0
 14 33  1  0
 14 34  1  0
 15 35  1  6
 16 36  1  0
 16 37  1  0
M  CHG  1  11   1
M  END
>  <i_m_ct_stereo_status>  (341) 
1

>  <s_m_source_file>  (341) 
/var/tmp/pbs.5076255.sched01/tmpebi1rvwe/120qlbjc4nh.sdf

>  <i_m_source_file_index>  (341) 
33

>  <i_lp_mmshare_version>  (341) 
48012

>  <i_f3d_flags>  (341) 
0

>  <s_epik_input>  (341) 
W0NIM11bQ0BdMTJbQ0gyXVtDSDJdW0NIMl1bQ0BIXShPMSlbQ0BASF0zW0NAQEhdNE4oW0NIXT1bQ0hdMylbQ0BASF0oW0NIMl0yKVtDSDJdW0NIMl00

>  <s_epik_cmdline>  (341) 
J2VwaWtfcHl0aG9uJywgJy1waHQnLCAnMi4wJywgJy1waCcsICc3LjAnLCAnLXRuJywgJzgnLCAnLW1hJywgJzIwMCcsICctaW1hZScsICc8aW5maWxlLm1hZT4nLCAnLW9tYWUnLCAnPG91dGZpbGUubWFlPic=

>  <r_epik_Ionization_Penalty>  (341) 
1.77804

>  <r_epik_Ionization_Penalty_Charging>  (341) 
1.77804

>  <r_epik_Ionization_Penalty_Neutral>  (341) 
1.45727e-12

>  <r_epik_State_Penalty>  (341) 
2.60034

>  <r_epik_Charging_Adjusted_Penalty>  (341) 
4.37839

>  <i_epik_Tot_Q>  (341) 
1

>  <i_epik_Tot_abs_Q>  (341) 
1

>  <s_lp_Force_Field>  (341) 
OPLS3e

>  <r_lp_Energy>  (341) 
102.993

>  <b_lp_Chiralities_Consistent>  (341) 
1

>  <s_lp_Variant>  (341) 
116:0-2

>  <s_i_glide_gridfile>  (341) 
pfpi4k_grid

>  <i_i_glide_lignum>  (341) 
33

>  <i_i_glide_rotatable_bonds>  (341) 
0

>  <r_i_docking_score>  (341) 
-3.35473

>  <r_i_glide_ligand_efficiency>  (341) 
-0.20967

>  <r_i_glide_ligand_efficiency_sa>  (341) 
-0.528336

>  <r_i_glide_ligand_efficiency_ln>  (341) 
-0.889237

>  <r_i_glide_gscore>  (341) 
-3.35473

>  <r_i_glide_lipo>  (341) 
-0.322164

>  <r_i_glide_hbond>  (341) 
0

>  <r_i_glide_metal>  (341) 
-0

>  <r_i_glide_rewards>  (341) 
-1.90684

>  <r_i_glide_evdw>  (341) 
-17.2435

>  <r_i_glide_ecoul>  (341) 
-1.75699

>  <r_i_glide_erotb>  (341) 
0

>  <r_i_glide_esite>  (341) 
0

>  <r_i_glide_emodel>  (341) 
-22.3986

>  <r_i_glide_energy>  (341) 
-19.0005

>  <r_i_glide_einternal>  (341) 
0

>  <r_i_glide_intrahb_reward>  (341) 
-0

>  <i_i_glide_confnum>  (341) 
1

>  <i_i_glide_posenum>  (341) 
1

>  <r_i_glide_eff_state_penalty>  (341) 
0

>  <ligand_id>  (341) 
116

>  <original_smiles>  (341) 
CC12CCCC(O1)C1C=CN3C(CCC13)C2

>  <smiles>  (341) 
[H]C1=C([H])[N+]2([H])C3([H])C([H])([H])C([H])([H])C2([H])C1([H])C1([H])OC(C([H])([H])[H])(C([H])([H])C([H])([H])C1([H])[H])C3([H])[H]

$$$$
116:1:2
     RDKit          3D

 38 41  0  0  1  0  0  0  0  0999 V2000
    5.1166   -4.0461   -3.4707 C   0  0  0  0  0  0  0  0  0  0  0  0
    4.6659   -3.4558   -2.1552 C   0  0  2  0  0  0  0  0  0  0  0  0
    3.1659   -3.2828   -2.3628 C   0  0  0  0  0  0  0  0  0  0  0  0
    2.7413   -1.9395   -2.9093 C   0  0  0  0  0  0  0  0  0  0  0  0
    3.7638   -0.7926   -2.7955 C   0  0  0  0  0  0  0  0  0  0  0  0
    4.9356   -1.0075   -1.8163 C   0  0  2  0  0  0  0  0  0  0  0  0
    5.4657   -2.2622   -2.2237 O   0  0  0  0  0  0  0  0  0  0  0  0
    4.7944   -0.8229   -0.2543 C   0  0  1  0  0  0  0  0  0  0  0  0
    3.3677   -1.0377    0.1138 C   0  0  0  0  0  0  0  0  0  0  0  0
    3.0753   -2.2547    0.5577 C   0  0  0  0  0  0  0  0  0  0  0  0
    4.3474   -2.8576    0.8349 N   0  0  1  0  0  0  0  0  0  0  0  0
    4.8545   -4.1637    0.5944 C   0  0  2  0  0  0  0  0  0  0  0  0
    6.1500   -3.8972    1.4801 C   0  0  0  0  0  0  0  0  0  0  0  0
    6.3108   -2.3142    1.6021 C   0  0  0  0  0  0  0  0  0  0  0  0
    5.4512   -2.0129    0.4324 C   0  0  2  0  0  0  0  0  0  0  0  0
    5.0937   -4.4271   -0.9575 C   0  0  0  0  0  0  0  0  0  0  0  0
    4.7526   -5.0590   -3.6138 H   0  0  0  0  0  0  0  0  0  0  0  0
    6.2013   -4.0686   -3.4045 H   0  0  0  0  0  0  0  0  0  0  0  0
    4.8508   -3.4664   -4.3464 H   0  0  0  0  0  0  0  0  0  0  0  0
    2.7848   -3.9846   -3.0937 H   0  0  0  0  0  0  0  0  0  0  0  0
    2.6235   -3.5610   -1.4688 H   0  0  0  0  0  0  0  0  0  0  0  0
    2.4125   -2.0345   -3.9488 H   0  0  0  0  0  0  0  0  0  0  0  0
    1.8541   -1.7275   -2.3375 H   0  0  0  0  0  0  0  0  0  0  0  0
    4.1888   -0.6449   -3.7919 H   0  0  0  0  0  0  0  0  0  0  0  0
    3.2284    0.1366   -2.6411 H   0  0  0  0  0  0  0  0  0  0  0  0
    5.6888   -0.2802   -2.1079 H   0  0  0  0  0  0  0  0  0  0  0  0
    5.1411    0.1373    0.1123 H   0  0  0  0  0  0  0  0  0  0  0  0
    2.6267   -0.2885   -0.0482 H   0  0  0  0  0  0  0  0  0  0  0  0
    2.1520   -2.6914    0.8842 H   0  0  0  0  0  0  0  0  0  0  0  0
    4.2291   -4.9487    1.0365 H   0  0  0  0  0  0  0  0  0  0  0  0
    6.0262   -4.3136    2.4824 H   0  0  0  0  0  0  0  0  0  0  0  0
    7.0466   -4.3463    1.0442 H   0  0  0  0  0  0  0  0  0  0  0  0
    5.9242   -1.9134    2.5431 H   0  0  0  0  0  0  0  0  0  0  0  0
    7.3222   -1.9549    1.4078 H   0  0  0  0  0  0  0  0  0  0  0  0
    6.2189   -2.3675   -0.2419 H   0  0  0  0  0  0  0  0  0  0  0  0
    4.6745   -5.4178   -1.1551 H   0  0  0  0  0  0  0  0  0  0  0  0
    6.1762   -4.5242   -1.0461 H   0  0  0  0  0  0  0  0  0  0  0  0
    4.4163   -2.8373    1.8397 H   0  0  0  0  0  0  0  0  0  0  0  0
  2  1  1  6
  1 17  1  0
  1 18  1  0
  1 19  1  0
  2  7  1  0
  2 16  1  0
  2  3  1  0
  3  4  1  0
  3 20  1  0
  3 21  1  0
  4  5  1  0
  4 22  1  0
  4 23  1  0
  5  6  1  0
  5 24  1  0
  5 25  1  0
  6  7  1  0
  6  8  1  0
  6 26  1  6
  8 15  1  0
  8  9  1  0
  8 27  1  1
  9 10  2  0
  9 28  1  0
 10 11  1  0
 10 29  1  0
 11 15  1  0
 11 12  1  0
 11 38  1  1
 12 13  1  0
 12 16  1  0
 12 30  1  1
 13 14  1  0
 13 31  1  0
 13 32  1  0
 14 15  1  0
 14 33  1  0
 14 34  1  0
 15 35  1  6
 16 36  1  0
 16 37  1  0
M  CHG  1  11   1
M  END
>  <i_m_ct_stereo_status>  (342) 
1

>  <s_m_source_file>  (342) 
/var/tmp/pbs.5076255.sched01/tmpebi1rvwe/120qlbjc4nh.sdf

>  <i_m_source_file_index>  (342) 
33

>  <i_lp_mmshare_version>  (342) 
48012

>  <i_f3d_flags>  (342) 
0

>  <s_epik_input>  (342) 
W0NIM11bQ0BdMTJbQ0gyXVtDSDJdW0NIMl1bQ0BIXShPMSlbQ0BASF0zW0NAQEhdNE4oW0NIXT1bQ0hdMylbQ0BASF0oW0NIMl0yKVtDSDJdW0NIMl00

>  <s_epik_cmdline>  (342) 
J2VwaWtfcHl0aG9uJywgJy1waHQnLCAnMi4wJywgJy1waCcsICc3LjAnLCAnLXRuJywgJzgnLCAnLW1hJywgJzIwMCcsICctaW1hZScsICc8aW5maWxlLm1hZT4nLCAnLW9tYWUnLCAnPG91dGZpbGUubWFlPic=

>  <r_epik_Ionization_Penalty>  (342) 
1.77804

>  <r_epik_Ionization_Penalty_Charging>  (342) 
1.77804

>  <r_epik_Ionization_Penalty_Neutral>  (342) 
1.45727e-12

>  <r_epik_State_Penalty>  (342) 
2.60034

>  <r_epik_Charging_Adjusted_Penalty>  (342) 
4.37839

>  <i_epik_Tot_Q>  (342) 
1

>  <i_epik_Tot_abs_Q>  (342) 
1

>  <s_lp_Force_Field>  (342) 
OPLS3e

>  <r_lp_Energy>  (342) 
102.993

>  <b_lp_Chiralities_Consistent>  (342) 
1

>  <s_lp_Variant>  (342) 
116:0-2

>  <s_i_glide_gridfile>  (342) 
pfpi4k_grid

>  <i_i_glide_lignum>  (342) 
33

>  <i_i_glide_rotatable_bonds>  (342) 
0

>  <r_i_docking_score>  (342) 
-3.15011

>  <r_i_glide_ligand_efficiency>  (342) 
-0.196882

>  <r_i_glide_ligand_efficiency_sa>  (342) 
-0.496112

>  <r_i_glide_ligand_efficiency_ln>  (342) 
-0.835001

>  <r_i_glide_gscore>  (342) 
-3.15011

>  <r_i_glide_lipo>  (342) 
-0.289298

>  <r_i_glide_hbond>  (342) 
0

>  <r_i_glide_metal>  (342) 
-0

>  <r_i_glide_rewards>  (342) 
-1.90684

>  <r_i_glide_evdw>  (342) 
-7.86744

>  <r_i_glide_ecoul>  (342) 
-3.73738

>  <r_i_glide_erotb>  (342) 
0

>  <r_i_glide_esite>  (342) 
0

>  <r_i_glide_emodel>  (342) 
-14.1323

>  <r_i_glide_energy>  (342) 
-11.6048

>  <r_i_glide_einternal>  (342) 
0

>  <r_i_glide_intrahb_reward>  (342) 
-0

>  <i_i_glide_confnum>  (342) 
1

>  <i_i_glide_posenum>  (342) 
7

>  <r_i_glide_eff_state_penalty>  (342) 
0

>  <ligand_id>  (342) 
116

>  <original_smiles>  (342) 
CC12CCCC(O1)C1C=CN3C(CCC13)C2

>  <smiles>  (342) 
[H]C1=C([H])[N+]2([H])C3([H])C([H])([H])C([H])([H])C2([H])C1([H])C1([H])OC(C([H])([H])[H])(C([H])([H])C([H])([H])C1([H])[H])C3([H])[H]

$$$$
117:0:0
     RDKit          3D

 79 83  0  0  1  0  0  0  0  0999 V2000
    6.5429   -1.2918    0.4840 C   0  0  0  0  0  0  0  0  0  0  0  0
    5.0269   -1.6262    0.4415 C   0  0  0  0  0  0  0  0  0  0  0  0
    4.3027   -0.3580    0.9620 C   0  0  0  0  0  0  0  0  0  0  0  0
    4.5635   -1.8944   -1.0183 C   0  0  1  0  0  0  0  0  0  0  0  0
    5.0018   -0.8622   -1.8827 O   0  0  0  0  0  0  0  0  0  0  0  0
    5.0514   -3.2375   -1.5833 C   0  0  0  0  0  0  0  0  0  0  0  0
    4.6861   -4.4087   -0.6508 C   0  0  0  0  0  0  0  0  0  0  0  0
    5.1785   -4.2646    0.8253 C   0  0  1  0  0  0  0  0  0  0  0  0
    6.7332   -4.3859    0.7659 C   0  0  0  0  0  0  0  0  0  0  0  0
    4.6878   -2.8669    1.3631 C   0  0  2  0  0  0  0  0  0  0  0  0
    3.1788   -2.9537    1.7225 C   0  0  0  0  0  0  0  0  0  0  0  0
    2.7867   -4.1200    2.6560 C   0  0  0  0  0  0  0  0  0  0  0  0
    3.1445   -5.5479    2.1266 C   0  0  1  0  0  0  0  0  0  0  0  0
    2.3109   -5.8545    0.8467 C   0  0  0  0  0  0  0  0  0  0  0  0
    4.6917   -5.4309    1.8092 C   0  0  2  0  0  0  0  0  0  0  0  0
    5.5318   -5.3826    3.1351 C   0  0  0  0  0  0  0  0  0  0  0  0
    4.9208   -5.9953    4.3739 C   0  0  0  0  0  0  0  0  0  0  0  0
    3.7289   -6.6090    4.4339 C   0  0  0  0  0  0  0  0  0  0  0  0
    3.2645   -7.3384    5.6998 C   0  0  1  0  0  0  0  0  0  0  0  0
    4.0158   -7.1271    7.0233 C   0  0  0  0  0  0  0  0  0  0  0  0
    3.0031   -7.5234    8.1168 C   0  0  2  0  0  0  0  0  0  0  0  0
    3.7475   -8.9579    9.2899 Br  0  0  0  0  0  0  0  0  0  0  0  0
    1.6646   -7.9057    7.4140 C   0  0  0  0  0  0  0  0  0  0  0  0
    1.5314   -9.4379    7.2164 C   0  0  0  0  0  0  0  0  0  0  0  0
    0.4536   -7.4729    8.2702 C   0  0  0  0  0  0  0  0  0  0  0  0
    1.7898   -7.1241    6.0529 C   0  0  1  0  0  0  0  0  0  0  0  0
    1.4773   -5.6119    6.2582 C   0  0  0  0  0  0  0  0  0  0  0  0
    0.9875   -7.6904    4.8593 C   0  0  0  0  0  0  0  0  0  0  0  0
    1.3021   -6.9866    3.5154 C   0  0  1  0  0  0  0  0  0  0  0  0
    0.4482   -5.8656    3.4327 O   0  0  0  0  0  0  0  0  0  0  0  0
    2.8489   -6.7492    3.1716 C   0  0  1  0  0  0  0  0  0  0  0  0
    3.3022   -8.1049    2.5499 C   0  0  0  0  0  0  0  0  0  0  0  0
    6.7304   -0.2476    0.2369 H   0  0  0  0  0  0  0  0  0  0  0  0
    7.1296   -1.8600   -0.2326 H   0  0  0  0  0  0  0  0  0  0  0  0
    6.9697   -1.4543    1.4756 H   0  0  0  0  0  0  0  0  0  0  0  0
    3.2262   -0.4029    0.7902 H   0  0  0  0  0  0  0  0  0  0  0  0
    4.6467    0.5414    0.4564 H   0  0  0  0  0  0  0  0  0  0  0  0
    4.4765   -0.2060    2.0293 H   0  0  0  0  0  0  0  0  0  0  0  0
    3.4738   -1.8915   -1.0528 H   0  0  0  0  0  0  0  0  0  0  0  0
    4.6085   -0.0498   -1.6002 H   0  0  0  0  0  0  0  0  0  0  0  0
    4.5739   -3.4016   -2.5506 H   0  0  0  0  0  0  0  0  0  0  0  0
    6.1157   -3.2069   -1.8014 H   0  0  0  0  0  0  0  0  0  0  0  0
    3.6085   -4.4279   -0.7044 H   0  0  0  0  0  0  0  0  0  0  0  0
    5.0242   -5.3516   -1.0821 H   0  0  0  0  0  0  0  0  0  0  0  0
    7.2198   -3.9165    1.6213 H   0  0  0  0  0  0  0  0  0  0  0  0
    7.1829   -3.9574   -0.1237 H   0  0  0  0  0  0  0  0  0  0  0  0
    7.0457   -5.4303    0.7413 H   0  0  0  0  0  0  0  0  0  0  0  0
    5.1907   -2.6619    2.3060 H   0  0  0  0  0  0  0  0  0  0  0  0
    2.8695   -2.0505    2.2458 H   0  0  0  0  0  0  0  0  0  0  0  0
    2.5782   -2.9734    0.8151 H   0  0  0  0  0  0  0  0  0  0  0  0
    3.2614   -3.9477    3.6206 H   0  0  0  0  0  0  0  0  0  0  0  0
    1.7252   -3.9967    2.8328 H   0  0  0  0  0  0  0  0  0  0  0  0
    2.9076   -6.3915    0.1110 H   0  0  0  0  0  0  0  0  0  0  0  0
    1.9040   -4.9667    0.3701 H   0  0  0  0  0  0  0  0  0  0  0  0
    1.4361   -6.4725    1.0209 H   0  0  0  0  0  0  0  0  0  0  0  0
    4.9738   -6.3566    1.3085 H   0  0  0  0  0  0  0  0  0  0  0  0
    6.4885   -5.8848    2.9833 H   0  0  0  0  0  0  0  0  0  0  0  0
    5.7682   -4.3616    3.4270 H   0  0  0  0  0  0  0  0  0  0  0  0
    5.5580   -5.9571    5.2445 H   0  0  0  0  0  0  0  0  0  0  0  0
    3.4105   -8.3899    5.4566 H   0  0  0  0  0  0  0  0  0  0  0  0
    4.9260   -7.7247    7.0719 H   0  0  0  0  0  0  0  0  0  0  0  0
    4.2944   -6.0830    7.1650 H   0  0  0  0  0  0  0  0  0  0  0  0
    2.8477   -6.6630    8.7701 H   0  0  0  0  0  0  0  0  0  0  0  0
    0.6244   -9.6990    6.6715 H   0  0  0  0  0  0  0  0  0  0  0  0
    1.4498   -9.9537    8.1717 H   0  0  0  0  0  0  0  0  0  0  0  0
    2.3753   -9.8815    6.6912 H   0  0  0  0  0  0  0  0  0  0  0  0
   -0.4705   -7.6121    7.7184 H   0  0  0  0  0  0  0  0  0  0  0  0
    0.5003   -6.4313    8.5842 H   0  0  0  0  0  0  0  0  0  0  0  0
    0.3806   -8.0715    9.1782 H   0  0  0  0  0  0  0  0  0  0  0  0
    0.4021   -5.4464    6.3438 H   0  0  0  0  0  0  0  0  0  0  0  0
    1.8377   -4.9952    5.4357 H   0  0  0  0  0  0  0  0  0  0  0  0
    1.9426   -5.2051    7.1557 H   0  0  0  0  0  0  0  0  0  0  0  0
    1.2382   -8.7412    4.7206 H   0  0  0  0  0  0  0  0  0  0  0  0
   -0.0825   -7.6772    5.0734 H   0  0  0  0  0  0  0  0  0  0  0  0
    0.8897   -7.6527    2.7576 H   0  0  0  0  0  0  0  0  0  0  0  0
    0.7261   -5.2505    4.0946 H   0  0  0  0  0  0  0  0  0  0  0  0
    2.8220   -8.3222    1.5966 H   0  0  0  0  0  0  0  0  0  0  0  0
    3.0607   -8.9424    3.2042 H   0  0  0  0  0  0  0  0  0  0  0  0
    4.3781   -8.1546    2.3908 H   0  0  0  0  0  0  0  0  0  0  0  0
  1  2  1  0
  1 33  1  0
  1 34  1  0
  1 35  1  0
  2 10  1  0
  2  3  1  0
  2  4  1  0
  3 36  1  0
  3 37  1  0
  3 38  1  0
  4  5  1  0
  4  6  1  0
  4 39  1  1
  5 40  1  0
  6  7  1  0
  6 41  1  0
  6 42  1  0
  7  8  1  0
  7 43  1  0
  7 44  1  0
  8 15  1  0
  8  9  1  6
  8 10  1  0
  9 45  1  0
  9 46  1  0
  9 47  1  0
 10 11  1  0
 10 48  1  1
 11 12  1  0
 11 49  1  0
 11 50  1  0
 12 13  1  0
 12 51  1  0
 12 52  1  0
 13 31  1  0
 13 14  1  6
 13 15  1  0
 14 53  1  0
 14 54  1  0
 14 55  1  0
 15 16  1  0
 15 56  1  6
 16 17  1  0
 16 57  1  0
 16 58  1  0
 17 18  2  0
 17 59  1  0
 18 31  1  0
 18 19  1  0
 19 26  1  0
 19 20  1  0
 19 60  1  6
 20 21  1  0
 20 61  1  0
 20 62  1  0
 21 22  1  0
 21 23  1  0
 21 63  1  1
 23 24  1  0
 23 25  1  0
 23 26  1  0
 24 64  1  0
 24 65  1  0
 24 66  1  0
 25 67  1  0
 25 68  1  0
 25 69  1  0
 26 27  1  1
 26 28  1  0
 27 70  1  0
 27 71  1  0
 27 72  1  0
 28 29  1  0
 28 73  1  0
 28 74  1  0
 29 30  1  0
 29 31  1  0
 29 75  1  6
 30 76  1  0
 31 32  1  6
 32 77  1  0
 32 78  1  0
 32 79  1  0
M  END
>  <i_m_ct_stereo_status>  (343) 
1

>  <s_m_source_file>  (343) 
/var/tmp/pbs.5076255.sched01/tmpebi1rvwe/120qlbjc4nh.sdf

>  <i_m_source_file_index>  (343) 
34

>  <i_lp_mmshare_version>  (343) 
48012

>  <i_f3d_flags>  (343) 
0

>  <s_epik_input>  (343) 
W0NIMl0xW0NIMl1bQ0BIXShbT0hdKUMoW0NIM10pKFtDSDNdKVtDQEhdKFtDQF0xMltDSDNdKVtDSDJdW0NIMl1bQ0BAXTMoW0NIM10pW0NAQEhdMltDSDJdW0NIXT1DNFtDQEBIXTVbQ0BdKFtDSDNdKShDKFtDSDNdKShbQ0gzXSlbQ0BASF0oQnIpW0NIMl01KVtDSDJdW0NAQEhdKFtPSF0pW0NAQF0zNFtDSDNd

>  <s_epik_cmdline>  (343) 
J2VwaWtfcHl0aG9uJywgJy1waHQnLCAnMi4wJywgJy1waCcsICc3LjAnLCAnLXRuJywgJzgnLCAnLW1hJywgJzIwMCcsICctaW1hZScsICc8aW5maWxlLm1hZT4nLCAnLW9tYWUnLCAnPG91dGZpbGUubWFlPic=

>  <r_lp_tautomer_probability>  (343) 
1

>  <r_epik_Ionization_Penalty>  (343) 
3.47596e-06

>  <r_epik_Ionization_Penalty_Charging>  (343) 
0

>  <r_epik_Ionization_Penalty_Neutral>  (343) 
3.47596e-06

>  <r_epik_State_Penalty>  (343) 
-0

>  <r_epik_Charging_Adjusted_Penalty>  (343) 
0

>  <i_epik_Tot_Q>  (343) 
0

>  <i_epik_Tot_abs_Q>  (343) 
0

>  <s_lp_Force_Field>  (343) 
OPLS3e

>  <r_lp_Energy>  (343) 
102.343

>  <b_lp_Chiralities_Consistent>  (343) 
1

>  <s_lp_Variant>  (343) 
117:0-1

>  <s_i_glide_gridfile>  (343) 
pfpi4k_grid

>  <i_i_glide_lignum>  (343) 
34

>  <i_i_glide_rotatable_bonds>  (343) 
2

>  <r_i_docking_score>  (343) 
-2.53979

>  <r_i_glide_ligand_efficiency>  (343) 
-0.0793685

>  <r_i_glide_ligand_efficiency_sa>  (343) 
-0.251979

>  <r_i_glide_ligand_efficiency_ln>  (343) 
-0.568729

>  <r_i_glide_gscore>  (343) 
-2.53979

>  <r_i_glide_lipo>  (343) 
-0.465831

>  <r_i_glide_hbond>  (343) 
-0.110127

>  <r_i_glide_metal>  (343) 
-0

>  <r_i_glide_rewards>  (343) 
0

>  <r_i_glide_evdw>  (343) 
-28.6371

>  <r_i_glide_ecoul>  (343) 
-3.54655

>  <r_i_glide_erotb>  (343) 
0

>  <r_i_glide_esite>  (343) 
0

>  <r_i_glide_emodel>  (343) 
-37.3655

>  <r_i_glide_energy>  (343) 
-32.1836

>  <r_i_glide_einternal>  (343) 
0.327257

>  <r_i_glide_intrahb_reward>  (343) 
-0

>  <i_i_glide_confnum>  (343) 
2

>  <i_i_glide_posenum>  (343) 
38

>  <r_i_glide_eff_state_penalty>  (343) 
0

>  <ligand_id>  (343) 
117

>  <original_smiles>  (343) 
CC1(C)C(O)CCC2(C)C1CCC1(C)C2CC=C2C3CC(Br)C(C)(C)C3(C)CC(O)C21C

>  <smiles>  (343) 
[H]OC1([H])C([H])([H])C2(C([H])([H])[H])C([H])(C3=C([H])C([H])([H])C4([H])C5(C([H])([H])[H])C([H])([H])C([H])([H])C([H])(O[H])C(C([H])([H])[H])(C([H])([H])[H])C5([H])C([H])([H])C([H])([H])C4(C([H])([H])[H])C31C([H])([H])[H])C([H])([H])C([H])(Br)C2(C([H])([H])[H])C([H])([H])[H]

$$$$
117:0:1
     RDKit          3D

 79 83  0  0  1  0  0  0  0  0999 V2000
    1.1542  -10.2592    4.7053 C   0  0  0  0  0  0  0  0  0  0  0  0
    0.5151   -8.8559    4.6051 C   0  0  0  0  0  0  0  0  0  0  0  0
   -0.6167   -8.9798    3.5448 C   0  0  0  0  0  0  0  0  0  0  0  0
   -0.0529   -8.4233    5.9563 C   0  0  1  0  0  0  0  0  0  0  0  0
   -0.8032   -9.4662    6.5644 O   0  0  0  0  0  0  0  0  0  0  0  0
    0.9546   -8.0453    7.0373 C   0  0  0  0  0  0  0  0  0  0  0  0
    1.9179   -6.9674    6.5359 C   0  0  0  0  0  0  0  0  0  0  0  0
    2.6230   -7.3191    5.1841 C   0  0  1  0  0  0  0  0  0  0  0  0
    3.5999   -8.4777    5.5317 C   0  0  0  0  0  0  0  0  0  0  0  0
    1.5295   -7.7519    4.1300 C   0  0  2  0  0  0  0  0  0  0  0  0
    0.8210   -6.4676    3.5924 C   0  0  0  0  0  0  0  0  0  0  0  0
    1.7550   -5.3667    3.0646 C   0  0  0  0  0  0  0  0  0  0  0  0
    2.8052   -4.8346    4.0908 C   0  0  1  0  0  0  0  0  0  0  0  0
    2.0764   -4.0914    5.2464 C   0  0  0  0  0  0  0  0  0  0  0  0
    3.5292   -6.1433    4.5913 C   0  0  2  0  0  0  0  0  0  0  0  0
    4.4555   -6.7309    3.4816 C   0  0  0  0  0  0  0  0  0  0  0  0
    4.9882   -5.7898    2.4322 C   0  0  0  0  0  0  0  0  0  0  0  0
    4.7441   -4.4741    2.4025 C   0  0  0  0  0  0  0  0  0  0  0  0
    5.4422   -3.5609    1.3944 C   0  0  1  0  0  0  0  0  0  0  0  0
    6.1957   -4.1829    0.2213 C   0  0  0  0  0  0  0  0  0  0  0  0
    6.2758   -3.0568   -0.8103 C   0  0  2  0  0  0  0  0  0  0  0  0
    8.1908   -2.6609   -1.1794 Br  0  0  0  0  0  0  0  0  0  0  0  0
    5.4915   -1.8377   -0.2463 C   0  0  0  0  0  0  0  0  0  0  0  0
    6.3945   -0.8421    0.4942 C   0  0  0  0  0  0  0  0  0  0  0  0
    4.7987   -1.0638   -1.3904 C   0  0  0  0  0  0  0  0  0  0  0  0
    4.5301   -2.5068    0.7645 C   0  0  1  0  0  0  0  0  0  0  0  0
    3.3440   -3.1502    0.0028 C   0  0  0  0  0  0  0  0  0  0  0  0
    4.0340   -1.6145    1.9200 C   0  0  0  0  0  0  0  0  0  0  0  0
    3.2522   -2.3988    2.9867 C   0  0  1  0  0  0  0  0  0  0  0  0
    1.9282   -2.4167    2.5153 O   0  0  0  0  0  0  0  0  0  0  0  0
    3.8724   -3.7902    3.4720 C   0  0  1  0  0  0  0  0  0  0  0  0
    4.8890   -3.3723    4.5710 C   0  0  0  0  0  0  0  0  0  0  0  0
    0.4004  -11.0510    4.6396 H   0  0  0  0  0  0  0  0  0  0  0  0
    1.6380  -10.4309    5.6637 H   0  0  0  0  0  0  0  0  0  0  0  0
    1.8858  -10.4251    3.9131 H   0  0  0  0  0  0  0  0  0  0  0  0
   -1.3073   -8.1339    3.6031 H   0  0  0  0  0  0  0  0  0  0  0  0
   -1.2382   -9.8575    3.6441 H   0  0  0  0  0  0  0  0  0  0  0  0
   -0.2211   -9.0637    2.5321 H   0  0  0  0  0  0  0  0  0  0  0  0
   -0.6515   -7.5501    5.7134 H   0  0  0  0  0  0  0  0  0  0  0  0
   -1.3119   -9.9611    5.9265 H   0  0  0  0  0  0  0  0  0  0  0  0
    0.4145   -7.6621    7.9007 H   0  0  0  0  0  0  0  0  0  0  0  0
    1.4750   -8.9233    7.4154 H   0  0  0  0  0  0  0  0  0  0  0  0
    1.2632   -6.1153    6.4159 H   0  0  0  0  0  0  0  0  0  0  0  0
    2.6400   -6.7016    7.3110 H   0  0  0  0  0  0  0  0  0  0  0  0
    3.8531   -9.0755    4.6560 H   0  0  0  0  0  0  0  0  0  0  0  0
    3.2221   -9.1681    6.2771 H   0  0  0  0  0  0  0  0  0  0  0  0
    4.5247   -8.0914    5.9563 H   0  0  0  0  0  0  0  0  0  0  0  0
    2.0171   -8.1922    3.2560 H   0  0  0  0  0  0  0  0  0  0  0  0
    0.1871   -6.7286    2.7546 H   0  0  0  0  0  0  0  0  0  0  0  0
    0.1556   -6.0587    4.3481 H   0  0  0  0  0  0  0  0  0  0  0  0
    2.2584   -5.7662    2.1902 H   0  0  0  0  0  0  0  0  0  0  0  0
    1.0989   -4.5859    2.7051 H   0  0  0  0  0  0  0  0  0  0  0  0
    2.5601   -4.2744    6.2056 H   0  0  0  0  0  0  0  0  0  0  0  0
    1.0276   -4.3523    5.3216 H   0  0  0  0  0  0  0  0  0  0  0  0
    2.0595   -3.0096    5.1325 H   0  0  0  0  0  0  0  0  0  0  0  0
    4.1722   -5.8559    5.4146 H   0  0  0  0  0  0  0  0  0  0  0  0
    5.3281   -7.1936    3.9401 H   0  0  0  0  0  0  0  0  0  0  0  0
    3.9588   -7.5071    2.9022 H   0  0  0  0  0  0  0  0  0  0  0  0
    5.6459   -6.2572    1.7205 H   0  0  0  0  0  0  0  0  0  0  0  0
    6.1945   -3.0543    1.9977 H   0  0  0  0  0  0  0  0  0  0  0  0
    7.1868   -4.5143    0.5122 H   0  0  0  0  0  0  0  0  0  0  0  0
    5.6666   -5.0230   -0.2239 H   0  0  0  0  0  0  0  0  0  0  0  0
    5.8147   -3.3935   -1.7412 H   0  0  0  0  0  0  0  0  0  0  0  0
    5.8504   -0.0049    0.9232 H   0  0  0  0  0  0  0  0  0  0  0  0
    7.0154   -0.3954   -0.2488 H   0  0  0  0  0  0  0  0  0  0  0  0
    7.0624   -1.2707    1.2372 H   0  0  0  0  0  0  0  0  0  0  0  0
    4.1651   -0.2947   -0.9683 H   0  0  0  0  0  0  0  0  0  0  0  0
    4.1860   -1.6960   -2.0360 H   0  0  0  0  0  0  0  0  0  0  0  0
    5.5096   -0.5655   -2.0382 H   0  0  0  0  0  0  0  0  0  0  0  0
    2.6397   -2.3776   -0.3045 H   0  0  0  0  0  0  0  0  0  0  0  0
    2.8122   -3.8606    0.6279 H   0  0  0  0  0  0  0  0  0  0  0  0
    3.6615   -3.6891   -0.8918 H   0  0  0  0  0  0  0  0  0  0  0  0
    4.8859   -1.1976    2.4501 H   0  0  0  0  0  0  0  0  0  0  0  0
    3.4895   -0.7485    1.5391 H   0  0  0  0  0  0  0  0  0  0  0  0
    3.2151   -1.7246    3.8460 H   0  0  0  0  0  0  0  0  0  0  0  0
    1.7156   -1.5501    2.2144 H   0  0  0  0  0  0  0  0  0  0  0  0
    4.4157   -2.9432    5.4476 H   0  0  0  0  0  0  0  0  0  0  0  0
    5.5785   -2.6249    4.1982 H   0  0  0  0  0  0  0  0  0  0  0  0
    5.5002   -4.2073    4.8981 H   0  0  0  0  0  0  0  0  0  0  0  0
  1  2  1  0
  1 33  1  0
  1 34  1  0
  1 35  1  0
  2 10  1  0
  2  3  1  0
  2  4  1  0
  3 36  1  0
  3 37  1  0
  3 38  1  0
  4  5  1  0
  4  6  1  0
  4 39  1  6
  5 40  1  0
  6  7  1  0
  6 41  1  0
  6 42  1  0
  7  8  1  0
  7 43  1  0
  7 44  1  0
  8 15  1  0
  8  9  1  1
  8 10  1  0
  9 45  1  0
  9 46  1  0
  9 47  1  0
 10 11  1  0
 10 48  1  6
 11 12  1  0
 11 49  1  0
 11 50  1  0
 12 13  1  0
 12 51  1  0
 12 52  1  0
 13 31  1  0
 13 14  1  1
 13 15  1  0
 14 53  1  0
 14 54  1  0
 14 55  1  0
 15 16  1  0
 15 56  1  1
 16 17  1  0
 16 57  1  0
 16 58  1  0
 17 18  2  0
 17 59  1  0
 18 31  1  0
 18 19  1  0
 19 26  1  0
 19 20  1  0
 19 60  1  1
 20 21  1  0
 20 61  1  0
 20 62  1  0
 21 22  1  0
 21 23  1  0
 21 63  1  6
 23 24  1  0
 23 25  1  0
 23 26  1  0
 24 64  1  0
 24 65  1  0
 24 66  1  0
 25 67  1  0
 25 68  1  0
 25 69  1  0
 26 27  1  6
 26 28  1  0
 27 70  1  0
 27 71  1  0
 27 72  1  0
 28 29  1  0
 28 73  1  0
 28 74  1  0
 29 30  1  0
 29 31  1  0
 29 75  1  1
 30 76  1  0
 31 32  1  1
 32 77  1  0
 32 78  1  0
 32 79  1  0
M  END
>  <i_m_ct_stereo_status>  (344) 
1

>  <s_m_source_file>  (344) 
/var/tmp/pbs.5076255.sched01/tmpebi1rvwe/120qlbjc4nh.sdf

>  <i_m_source_file_index>  (344) 
34

>  <i_lp_mmshare_version>  (344) 
48012

>  <i_f3d_flags>  (344) 
0

>  <s_epik_input>  (344) 
W0NIMl0xW0NIMl1bQ0BIXShbT0hdKUMoW0NIM10pKFtDSDNdKVtDQEhdKFtDQF0xMltDSDNdKVtDSDJdW0NIMl1bQ0BAXTMoW0NIM10pW0NAQEhdMltDSDJdW0NIXT1DNFtDQEBIXTVbQ0BdKFtDSDNdKShDKFtDSDNdKShbQ0gzXSlbQ0BASF0oQnIpW0NIMl01KVtDSDJdW0NAQEhdKFtPSF0pW0NAQF0zNFtDSDNd

>  <s_epik_cmdline>  (344) 
J2VwaWtfcHl0aG9uJywgJy1waHQnLCAnMi4wJywgJy1waCcsICc3LjAnLCAnLXRuJywgJzgnLCAnLW1hJywgJzIwMCcsICctaW1hZScsICc8aW5maWxlLm1hZT4nLCAnLW9tYWUnLCAnPG91dGZpbGUubWFlPic=

>  <r_lp_tautomer_probability>  (344) 
1

>  <r_epik_Ionization_Penalty>  (344) 
3.47596e-06

>  <r_epik_Ionization_Penalty_Charging>  (344) 
0

>  <r_epik_Ionization_Penalty_Neutral>  (344) 
3.47596e-06

>  <r_epik_State_Penalty>  (344) 
-0

>  <r_epik_Charging_Adjusted_Penalty>  (344) 
0

>  <i_epik_Tot_Q>  (344) 
0

>  <i_epik_Tot_abs_Q>  (344) 
0

>  <s_lp_Force_Field>  (344) 
OPLS3e

>  <r_lp_Energy>  (344) 
102.343

>  <b_lp_Chiralities_Consistent>  (344) 
1

>  <s_lp_Variant>  (344) 
117:0-1

>  <s_i_glide_gridfile>  (344) 
pfpi4k_grid

>  <i_i_glide_lignum>  (344) 
34

>  <i_i_glide_rotatable_bonds>  (344) 
2

>  <r_i_docking_score>  (344) 
-2.25494

>  <r_i_glide_ligand_efficiency>  (344) 
-0.070467

>  <r_i_glide_ligand_efficiency_sa>  (344) 
-0.223719

>  <r_i_glide_ligand_efficiency_ln>  (344) 
-0.504943

>  <r_i_glide_gscore>  (344) 
-2.25494

>  <r_i_glide_lipo>  (344) 
-0.265383

>  <r_i_glide_hbond>  (344) 
-0.16

>  <r_i_glide_metal>  (344) 
-0

>  <r_i_glide_rewards>  (344) 
0

>  <r_i_glide_evdw>  (344) 
-24.0431

>  <r_i_glide_ecoul>  (344) 
-4.1827

>  <r_i_glide_erotb>  (344) 
0

>  <r_i_glide_esite>  (344) 
0

>  <r_i_glide_emodel>  (344) 
-31.032

>  <r_i_glide_energy>  (344) 
-28.2258

>  <r_i_glide_einternal>  (344) 
1.42209

>  <r_i_glide_intrahb_reward>  (344) 
-0

>  <i_i_glide_confnum>  (344) 
2

>  <i_i_glide_posenum>  (344) 
8

>  <r_i_glide_eff_state_penalty>  (344) 
0

>  <ligand_id>  (344) 
117

>  <original_smiles>  (344) 
CC1(C)C(O)CCC2(C)C1CCC1(C)C2CC=C2C3CC(Br)C(C)(C)C3(C)CC(O)C21C

>  <smiles>  (344) 
[H]OC1([H])C([H])([H])C2(C([H])([H])[H])C([H])(C3=C([H])C([H])([H])C4([H])C5(C([H])([H])[H])C([H])([H])C([H])([H])C([H])(O[H])C(C([H])([H])[H])(C([H])([H])[H])C5([H])C([H])([H])C([H])([H])C4(C([H])([H])[H])C31C([H])([H])[H])C([H])([H])C([H])(Br)C2(C([H])([H])[H])C([H])([H])[H]

$$$$
117:0:2
     RDKit          3D

 79 83  0  0  1  0  0  0  0  0999 V2000
    3.4009    0.4445    4.7512 C   0  0  0  0  0  0  0  0  0  0  0  0
    2.3860   -0.2904    3.8280 C   0  0  0  0  0  0  0  0  0  0  0  0
    0.9972   -0.0563    4.4792 C   0  0  0  0  0  0  0  0  0  0  0  0
    2.3645    0.3299    2.3996 C   0  0  1  0  0  0  0  0  0  0  0  0
    2.2083    1.7345    2.4786 O   0  0  0  0  0  0  0  0  0  0  0  0
    3.6181    0.0011    1.5741 C   0  0  0  0  0  0  0  0  0  0  0  0
    3.8742   -1.5150    1.5127 C   0  0  0  0  0  0  0  0  0  0  0  0
    3.9752   -2.2234    2.9008 C   0  0  1  0  0  0  0  0  0  0  0  0
    5.2945   -1.7047    3.5362 C   0  0  0  0  0  0  0  0  0  0  0  0
    2.7033   -1.8393    3.7474 C   0  0  2  0  0  0  0  0  0  0  0  0
    1.4952   -2.6744    3.2525 C   0  0  0  0  0  0  0  0  0  0  0  0
    1.7354   -4.1975    3.1818 C   0  0  0  0  0  0  0  0  0  0  0  0
    2.9191   -4.6538    2.2627 C   0  0  1  0  0  0  0  0  0  0  0  0
    2.6236   -4.3017    0.7701 C   0  0  0  0  0  0  0  0  0  0  0  0
    4.1342   -3.8146    2.8261 C   0  0  2  0  0  0  0  0  0  0  0  0
    4.5940   -4.3689    4.2225 C   0  0  0  0  0  0  0  0  0  0  0  0
    4.2833   -5.8138    4.5406 C   0  0  0  0  0  0  0  0  0  0  0  0
    3.6730   -6.6811    3.7178 C   0  0  0  0  0  0  0  0  0  0  0  0
    3.5417   -8.1680    4.0622 C   0  0  1  0  0  0  0  0  0  0  0  0
    3.8341   -8.6453    5.4929 C   0  0  0  0  0  0  0  0  0  0  0  0
    3.1011   -9.9977    5.6136 C   0  0  2  0  0  0  0  0  0  0  0  0
    4.3874  -11.4391    6.1181 Br  0  0  0  0  0  0  0  0  0  0  0  0
    2.3495  -10.2560    4.2704 C   0  0  0  0  0  0  0  0  0  0  0  0
    3.1631  -11.1750    3.3245 C   0  0  0  0  0  0  0  0  0  0  0  0
    1.0048  -10.9755    4.5165 C   0  0  0  0  0  0  0  0  0  0  0  0
    2.1857   -8.7908    3.7166 C   0  0  1  0  0  0  0  0  0  0  0  0
    1.0290   -8.0521    4.4541 C   0  0  0  0  0  0  0  0  0  0  0  0
    2.0344   -8.6388    2.1854 C   0  0  0  0  0  0  0  0  0  0  0  0
    2.0607   -7.1607    1.7144 C   0  0  1  0  0  0  0  0  0  0  0  0
    0.7369   -6.6730    1.8065 O   0  0  0  0  0  0  0  0  0  0  0  0
    3.2253   -6.2405    2.3062 C   0  0  1  0  0  0  0  0  0  0  0  0
    4.4587   -6.5602    1.4066 C   0  0  0  0  0  0  0  0  0  0  0  0
    2.9859    1.3648    5.1650 H   0  0  0  0  0  0  0  0  0  0  0  0
    4.3000    0.7599    4.2281 H   0  0  0  0  0  0  0  0  0  0  0  0
    3.6997   -0.1728    5.6003 H   0  0  0  0  0  0  0  0  0  0  0  0
    0.1834   -0.3607    3.8180 H   0  0  0  0  0  0  0  0  0  0  0  0
    0.8269    1.0010    4.6956 H   0  0  0  0  0  0  0  0  0  0  0  0
    0.9012   -0.6015    5.4213 H   0  0  0  0  0  0  0  0  0  0  0  0
    1.4982   -0.0557    1.8607 H   0  0  0  0  0  0  0  0  0  0  0  0
    1.8034    2.0479    1.6824 H   0  0  0  0  0  0  0  0  0  0  0  0
    3.4810    0.3665    0.5588 H   0  0  0  0  0  0  0  0  0  0  0  0
    4.4803    0.5451    1.9474 H   0  0  0  0  0  0  0  0  0  0  0  0
    3.0298   -1.8722    0.9449 H   0  0  0  0  0  0  0  0  0  0  0  0
    4.7567   -1.7257    0.9086 H   0  0  0  0  0  0  0  0  0  0  0  0
    5.3019   -1.8050    4.6226 H   0  0  0  0  0  0  0  0  0  0  0  0
    5.5350   -0.6701    3.3145 H   0  0  0  0  0  0  0  0  0  0  0  0
    6.1441   -2.2612    3.1400 H   0  0  0  0  0  0  0  0  0  0  0  0
    2.8598   -2.1545    4.7785 H   0  0  0  0  0  0  0  0  0  0  0  0
    0.6483   -2.5426    3.9222 H   0  0  0  0  0  0  0  0  0  0  0  0
    1.1588   -2.2966    2.2891 H   0  0  0  0  0  0  0  0  0  0  0  0
    1.8830   -4.5630    4.1967 H   0  0  0  0  0  0  0  0  0  0  0  0
    0.7854   -4.6106    2.8752 H   0  0  0  0  0  0  0  0  0  0  0  0
    3.5212   -3.9756    0.2466 H   0  0  0  0  0  0  0  0  0  0  0  0
    1.8606   -3.5372    0.6559 H   0  0  0  0  0  0  0  0  0  0  0  0
    2.2392   -5.1277    0.1798 H   0  0  0  0  0  0  0  0  0  0  0  0
    4.9671   -3.9887    2.1449 H   0  0  0  0  0  0  0  0  0  0  0  0
    5.6740   -4.2562    4.3240 H   0  0  0  0  0  0  0  0  0  0  0  0
    4.1466   -3.8130    5.0432 H   0  0  0  0  0  0  0  0  0  0  0  0
    4.6502   -6.1457    5.5012 H   0  0  0  0  0  0  0  0  0  0  0  0
    4.3032   -8.6420    3.4437 H   0  0  0  0  0  0  0  0  0  0  0  0
    4.9049   -8.7433    5.6731 H   0  0  0  0  0  0  0  0  0  0  0  0
    3.4326   -7.9572    6.2363 H   0  0  0  0  0  0  0  0  0  0  0  0
    2.3838   -9.9456    6.4362 H   0  0  0  0  0  0  0  0  0  0  0  0
    2.6590  -11.2981    2.3697 H   0  0  0  0  0  0  0  0  0  0  0  0
    3.2593  -12.1826    3.7304 H   0  0  0  0  0  0  0  0  0  0  0  0
    4.1712  -10.8120    3.1291 H   0  0  0  0  0  0  0  0  0  0  0  0
    0.4103  -11.0253    3.6048 H   0  0  0  0  0  0  0  0  0  0  0  0
    0.3952  -10.4918    5.2804 H   0  0  0  0  0  0  0  0  0  0  0  0
    1.1646  -11.9981    4.8629 H   0  0  0  0  0  0  0  0  0  0  0  0
    0.0578   -8.3883    4.0833 H   0  0  0  0  0  0  0  0  0  0  0  0
    1.0750   -6.9706    4.3277 H   0  0  0  0  0  0  0  0  0  0  0  0
    1.0419   -8.2219    5.5309 H   0  0  0  0  0  0  0  0  0  0  0  0
    2.8610   -9.1451    1.6878 H   0  0  0  0  0  0  0  0  0  0  0  0
    1.1378   -9.1530    1.8348 H   0  0  0  0  0  0  0  0  0  0  0  0
    2.2019   -7.1939    0.6408 H   0  0  0  0  0  0  0  0  0  0  0  0
    0.4654   -6.7931    2.7036 H   0  0  0  0  0  0  0  0  0  0  0  0
    4.3309   -6.2372    0.3735 H   0  0  0  0  0  0  0  0  0  0  0  0
    4.6561   -7.6308    1.3622 H   0  0  0  0  0  0  0  0  0  0  0  0
    5.3745   -6.1018    1.7768 H   0  0  0  0  0  0  0  0  0  0  0  0
  1  2  1  0
  1 33  1  0
  1 34  1  0
  1 35  1  0
  2 10  1  0
  2  3  1  0
  2  4  1  0
  3 36  1  0
  3 37  1  0
  3 38  1  0
  4  5  1  0
  4  6  1  0
  4 39  1  6
  5 40  1  0
  6  7  1  0
  6 41  1  0
  6 42  1  0
  7  8  1  0
  7 43  1  0
  7 44  1  0
  8 15  1  0
  8  9  1  1
  8 10  1  0
  9 45  1  0
  9 46  1  0
  9 47  1  0
 10 11  1  0
 10 48  1  1
 11 12  1  0
 11 49  1  0
 11 50  1  0
 12 13  1  0
 12 51  1  0
 12 52  1  0
 13 31  1  0
 13 14  1  6
 13 15  1  0
 14 53  1  0
 14 54  1  0
 14 55  1  0
 15 16  1  0
 15 56  1  6
 16 17  1  0
 16 57  1  0
 16 58  1  0
 17 18  2  0
 17 59  1  0
 18 31  1  0
 18 19  1  0
 19 26  1  0
 19 20  1  0
 19 60  1  6
 20 21  1  0
 20 61  1  0
 20 62  1  0
 21 22  1  0
 21 23  1  0
 21 63  1  1
 23 24  1  0
 23 25  1  0
 23 26  1  0
 24 64  1  0
 24 65  1  0
 24 66  1  0
 25 67  1  0
 25 68  1  0
 25 69  1  0
 26 27  1  1
 26 28  1  0
 27 70  1  0
 27 71  1  0
 27 72  1  0
 28 29  1  0
 28 73  1  0
 28 74  1  0
 29 30  1  0
 29 31  1  0
 29 75  1  6
 30 76  1  0
 31 32  1  6
 32 77  1  0
 32 78  1  0
 32 79  1  0
M  END
>  <i_m_ct_stereo_status>  (345) 
1

>  <s_m_source_file>  (345) 
/var/tmp/pbs.5076255.sched01/tmpebi1rvwe/120qlbjc4nh.sdf

>  <i_m_source_file_index>  (345) 
34

>  <i_lp_mmshare_version>  (345) 
48012

>  <i_f3d_flags>  (345) 
0

>  <s_epik_input>  (345) 
W0NIMl0xW0NIMl1bQ0BIXShbT0hdKUMoW0NIM10pKFtDSDNdKVtDQEhdKFtDQF0xMltDSDNdKVtDSDJdW0NIMl1bQ0BAXTMoW0NIM10pW0NAQEhdMltDSDJdW0NIXT1DNFtDQEBIXTVbQ0BdKFtDSDNdKShDKFtDSDNdKShbQ0gzXSlbQ0BASF0oQnIpW0NIMl01KVtDSDJdW0NAQEhdKFtPSF0pW0NAQF0zNFtDSDNd

>  <s_epik_cmdline>  (345) 
J2VwaWtfcHl0aG9uJywgJy1waHQnLCAnMi4wJywgJy1waCcsICc3LjAnLCAnLXRuJywgJzgnLCAnLW1hJywgJzIwMCcsICctaW1hZScsICc8aW5maWxlLm1hZT4nLCAnLW9tYWUnLCAnPG91dGZpbGUubWFlPic=

>  <r_lp_tautomer_probability>  (345) 
1

>  <r_epik_Ionization_Penalty>  (345) 
3.47596e-06

>  <r_epik_Ionization_Penalty_Charging>  (345) 
0

>  <r_epik_Ionization_Penalty_Neutral>  (345) 
3.47596e-06

>  <r_epik_State_Penalty>  (345) 
-0

>  <r_epik_Charging_Adjusted_Penalty>  (345) 
0

>  <i_epik_Tot_Q>  (345) 
0

>  <i_epik_Tot_abs_Q>  (345) 
0

>  <s_lp_Force_Field>  (345) 
OPLS3e

>  <r_lp_Energy>  (345) 
102.343

>  <b_lp_Chiralities_Consistent>  (345) 
1

>  <s_lp_Variant>  (345) 
117:0-1

>  <s_i_glide_gridfile>  (345) 
pfpi4k_grid

>  <i_i_glide_lignum>  (345) 
34

>  <i_i_glide_rotatable_bonds>  (345) 
2

>  <r_i_docking_score>  (345) 
-1.82092

>  <r_i_glide_ligand_efficiency>  (345) 
-0.0569037

>  <r_i_glide_ligand_efficiency_sa>  (345) 
-0.180658

>  <r_i_glide_ligand_efficiency_ln>  (345) 
-0.407753

>  <r_i_glide_gscore>  (345) 
-1.82092

>  <r_i_glide_lipo>  (345) 
-0.202532

>  <r_i_glide_hbond>  (345) 
-0.000910519

>  <r_i_glide_metal>  (345) 
-0

>  <r_i_glide_rewards>  (345) 
0

>  <r_i_glide_evdw>  (345) 
-28.114

>  <r_i_glide_ecoul>  (345) 
-1.41183

>  <r_i_glide_erotb>  (345) 
0

>  <r_i_glide_esite>  (345) 
0

>  <r_i_glide_emodel>  (345) 
-32.7107

>  <r_i_glide_energy>  (345) 
-29.5259

>  <r_i_glide_einternal>  (345) 
0.747484

>  <r_i_glide_intrahb_reward>  (345) 
-0

>  <i_i_glide_confnum>  (345) 
1

>  <i_i_glide_posenum>  (345) 
15

>  <r_i_glide_eff_state_penalty>  (345) 
0

>  <ligand_id>  (345) 
117

>  <original_smiles>  (345) 
CC1(C)C(O)CCC2(C)C1CCC1(C)C2CC=C2C3CC(Br)C(C)(C)C3(C)CC(O)C21C

>  <smiles>  (345) 
[H]OC1([H])C([H])([H])C2(C([H])([H])[H])C([H])(C3=C([H])C([H])([H])C4([H])C5(C([H])([H])[H])C([H])([H])C([H])([H])C([H])(O[H])C(C([H])([H])[H])(C([H])([H])[H])C5([H])C([H])([H])C([H])([H])C4(C([H])([H])[H])C31C([H])([H])[H])C([H])([H])C([H])(Br)C2(C([H])([H])[H])C([H])([H])[H]

$$$$
118:0:0
     RDKit          3D

 32 36  0  0  1  0  0  0  0  0999 V2000
    4.0866   -2.8910   -3.1914 C   0  0  0  0  0  0  0  0  0  0  0  0
    4.0710   -3.2643   -1.7209 C   0  0  0  0  0  0  0  0  0  0  0  0
    3.0395   -2.9001   -0.9155 C   0  0  0  0  0  0  0  0  0  0  0  0
    3.0771   -3.3238    0.5445 C   0  0  2  0  0  0  0  0  0  0  0  0
    2.9749   -4.8490    0.4791 C   0  0  0  0  0  0  0  0  0  0  0  0
    1.9214   -5.4892    0.5204 O   0  0  0  0  0  0  0  0  0  0  0  0
    4.1655   -5.4461    0.3865 O   0  0  0  0  0  0  0  0  0  0  0  0
    5.3292   -4.6529    0.2514 C   0  0  1  0  0  0  0  0  0  0  0  0
    5.3031   -4.0807   -1.2313 C   0  0  0  0  0  0  0  0  0  0  0  0
    5.4647   -3.6393    1.4679 C   0  0  2  0  0  0  0  0  0  0  0  0
    4.1917   -3.8641    2.6759 C   0  0  0  0  0  0  0  0  0  0  0  0
    2.9621   -2.8177    1.9361 C   0  0  1  0  0  0  0  0  0  0  0  0
    3.3147   -1.2876    1.2119 C   0  0  1  0  0  0  0  0  0  0  0  0
    4.6018   -0.8561    0.3256 C   0  0  0  0  0  0  0  0  0  0  0  0
    5.5682   -2.1217    0.7395 C   0  0  2  0  0  0  0  0  0  0  0  0
    4.2541   -2.2556    1.1264 C   0  0  2  0  0  0  0  0  0  0  0  0
    4.9695   -2.3005   -3.4322 H   0  0  0  0  0  0  0  0  0  0  0  0
    3.2053   -2.3060   -3.4519 H   0  0  0  0  0  0  0  0  0  0  0  0
    4.0873   -3.7853   -3.8142 H   0  0  0  0  0  0  0  0  0  0  0  0
    2.2129   -2.3299   -1.2745 H   0  0  0  0  0  0  0  0  0  0  0  0
    6.1619   -5.3501    0.3169 H   0  0  0  0  0  0  0  0  0  0  0  0
    5.3604   -4.9353   -1.9018 H   0  0  0  0  0  0  0  0  0  0  0  0
    6.2102   -3.5070   -1.4204 H   0  0  0  0  0  0  0  0  0  0  0  0
    6.4110   -3.8674    1.9569 H   0  0  0  0  0  0  0  0  0  0  0  0
    3.9021   -4.8966    2.8557 H   0  0  0  0  0  0  0  0  0  0  0  0
    4.5130   -3.4776    3.6451 H   0  0  0  0  0  0  0  0  0  0  0  0
    1.9567   -2.8990    2.3484 H   0  0  0  0  0  0  0  0  0  0  0  0
    3.2916   -0.5679    2.0383 H   0  0  0  0  0  0  0  0  0  0  0  0
    4.3861   -0.7730   -0.7425 H   0  0  0  0  0  0  0  0  0  0  0  0
    5.0074    0.1128    0.6400 H   0  0  0  0  0  0  0  0  0  0  0  0
    6.3086   -1.5647    1.3275 H   0  0  0  0  0  0  0  0  0  0  0  0
    4.6507   -1.8138    2.1698 H   0  0  0  0  0  0  0  0  0  0  0  0
  1  2  1  0
  1 17  1  0
  1 18  1  0
  1 19  1  0
  2  9  1  0
  2  3  2  0
  4  3  1  6
  3 20  1  0
  4 12  1  0
  4 16  1  0
  4  5  1  0
  5  6  2  0
  5  7  1  0
  7  8  1  0
  8  9  1  0
  8 10  1  0
  8 21  1  6
  9 22  1  0
  9 23  1  0
 10 15  1  0
 10 11  1  0
 10 24  1  1
 11 12  1  0
 11 25  1  0
 11 26  1  0
 12 13  1  0
 12 27  1  1
 13 16  1  0
 13 14  1  0
 13 28  1  1
 14 15  1  0
 14 29  1  0
 14 30  1  0
 15 16  1  0
 15 31  1  1
 16 32  1  1
M  END
>  <i_m_ct_stereo_status>  (346) 
1

>  <s_m_source_file>  (346) 
/var/tmp/pbs.5076255.sched01/tmpebi1rvwe/120qlbjc4nh.sdf

>  <i_m_source_file_index>  (346) 
35

>  <i_lp_mmshare_version>  (346) 
48012

>  <i_f3d_flags>  (346) 
0

>  <s_epik_input>  (346) 
W0NIM11DKD1bQ0hdMSlbQ0gyXVtDQEhdKE9DMj1PKVtDQEhdKFtDSDJdMylbQ0BASF0oW0NIMl00KVtDQEhdNVtDQEBIXTRbQ0BIXTNDMTI1

>  <s_epik_cmdline>  (346) 
J2VwaWtfcHl0aG9uJywgJy1waHQnLCAnMi4wJywgJy1waCcsICc3LjAnLCAnLXRuJywgJzgnLCAnLW1hJywgJzIwMCcsICctaW1hZScsICc8aW5maWxlLm1hZT4nLCAnLW9tYWUnLCAnPG91dGZpbGUubWFlPic=

>  <r_lp_tautomer_probability>  (346) 
1

>  <r_epik_Ionization_Penalty>  (346) 
0

>  <r_epik_Ionization_Penalty_Charging>  (346) 
0

>  <r_epik_Ionization_Penalty_Neutral>  (346) 
0

>  <r_epik_State_Penalty>  (346) 
-0

>  <r_epik_Charging_Adjusted_Penalty>  (346) 
0

>  <i_epik_Tot_Q>  (346) 
0

>  <i_epik_Tot_abs_Q>  (346) 
0

>  <s_epik_Chemistry_Notes>  (346) 
This compound has an ester and may undergo hydrolysis at high or low pH.

>  <s_lp_Force_Field>  (346) 
OPLS3e

>  <r_lp_Energy>  (346) 
455.236

>  <b_lp_Chiralities_Consistent>  (346) 
1

>  <s_lp_Variant>  (346) 
118:0-1

>  <s_i_glide_gridfile>  (346) 
pfpi4k_grid

>  <i_i_glide_lignum>  (346) 
35

>  <i_i_glide_rotatable_bonds>  (346) 
0

>  <r_i_docking_score>  (346) 
-3.60952

>  <r_i_glide_ligand_efficiency>  (346) 
-0.225595

>  <r_i_glide_ligand_efficiency_sa>  (346) 
-0.568464

>  <r_i_glide_ligand_efficiency_ln>  (346) 
-0.956777

>  <r_i_glide_gscore>  (346) 
-3.60952

>  <r_i_glide_lipo>  (346) 
-0.370942

>  <r_i_glide_hbond>  (346) 
-0.0712182

>  <r_i_glide_metal>  (346) 
-0

>  <r_i_glide_rewards>  (346) 
-1.93448

>  <r_i_glide_evdw>  (346) 
-18.562

>  <r_i_glide_ecoul>  (346) 
-1.87071

>  <r_i_glide_erotb>  (346) 
0

>  <r_i_glide_esite>  (346) 
-0.0241738

>  <r_i_glide_emodel>  (346) 
-25.1942

>  <r_i_glide_energy>  (346) 
-20.4327

>  <r_i_glide_einternal>  (346) 
0

>  <r_i_glide_intrahb_reward>  (346) 
-0

>  <i_i_glide_confnum>  (346) 
1

>  <i_i_glide_posenum>  (346) 
1

>  <r_i_glide_eff_state_penalty>  (346) 
0

>  <ligand_id>  (346) 
118

>  <original_smiles>  (346) 
CC1=CC23C(=O)OC(C1)C1CC2C2CC1C23

>  <smiles>  (346) 
[H]C1=C(C([H])([H])[H])C([H])([H])C2([H])OC(=O)C13C1([H])C([H])([H])C2([H])C2([H])C([H])([H])C1([H])C32[H]

$$$$
118:0:1
     RDKit          3D

 32 36  0  0  1  0  0  0  0  0999 V2000
    4.2017   -6.2932    0.9236 C   0  0  0  0  0  0  0  0  0  0  0  0
    4.2834   -5.0291    0.0950 C   0  0  0  0  0  0  0  0  0  0  0  0
    5.4632   -4.6347   -0.4512 C   0  0  0  0  0  0  0  0  0  0  0  0
    5.4979   -3.3657   -1.2894 C   0  0  2  0  0  0  0  0  0  0  0  0
    4.6161   -3.6794   -2.5068 C   0  0  0  0  0  0  0  0  0  0  0  0
    5.0062   -4.0632   -3.6012 O   0  0  0  0  0  0  0  0  0  0  0  0
    3.3263   -3.4049   -2.2884 O   0  0  0  0  0  0  0  0  0  0  0  0
    2.9234   -2.9651   -1.0080 C   0  0  1  0  0  0  0  0  0  0  0  0
    2.9565   -4.2313   -0.0500 C   0  0  0  0  0  0  0  0  0  0  0  0
    3.7198   -1.6503   -0.5966 C   0  0  2  0  0  0  0  0  0  0  0  0
    4.7831   -1.0796   -1.8884 C   0  0  0  0  0  0  0  0  0  0  0  0
    6.2029   -2.0734   -1.4750 C   0  0  1  0  0  0  0  0  0  0  0  0
    6.7430   -2.3459    0.1513 C   0  0  1  0  0  0  0  0  0  0  0  0
    5.8523   -2.5870    1.4835 C   0  0  0  0  0  0  0  0  0  0  0  0
    4.4296   -2.0298    0.8863 C   0  0  2  0  0  0  0  0  0  0  0  0
    5.4138   -2.2051   -0.0601 C   0  0  2  0  0  0  0  0  0  0  0  0
    3.8617   -6.0709    1.9337 H   0  0  0  0  0  0  0  0  0  0  0  0
    5.1734   -6.7819    0.9899 H   0  0  0  0  0  0  0  0  0  0  0  0
    3.5040   -6.9993    0.4787 H   0  0  0  0  0  0  0  0  0  0  0  0
    6.3802   -5.1821   -0.3103 H   0  0  0  0  0  0  0  0  0  0  0  0
    1.8822   -2.6929   -1.1275 H   0  0  0  0  0  0  0  0  0  0  0  0
    2.2202   -4.9432   -0.4233 H   0  0  0  0  0  0  0  0  0  0  0  0
    2.6059   -3.9524    0.9470 H   0  0  0  0  0  0  0  0  0  0  0  0
    2.9960   -0.8579   -0.4282 H   0  0  0  0  0  0  0  0  0  0  0  0
    4.3816   -1.1894   -2.8959 H   0  0  0  0  0  0  0  0  0  0  0  0
    4.9787   -0.0164   -1.7775 H   0  0  0  0  0  0  0  0  0  0  0  0
    6.9872   -2.1275   -2.2275 H   0  0  0  0  0  0  0  0  0  0  0  0
    7.3895   -1.4921    0.3929 H   0  0  0  0  0  0  0  0  0  0  0  0
    5.8259   -3.6270    1.8270 H   0  0  0  0  0  0  0  0  0  0  0  0
    6.2124   -1.9818    2.3262 H   0  0  0  0  0  0  0  0  0  0  0  0
    4.3396   -1.1197    1.4908 H   0  0  0  0  0  0  0  0  0  0  0  0
    5.6159   -1.0322    0.1109 H   0  0  0  0  0  0  0  0  0  0  0  0
  1  2  1  0
  1 17  1  0
  1 18  1  0
  1 19  1  0
  2  9  1  0
  2  3  2  0
  4  3  1  1
  3 20  1  0
  4 12  1  0
  4 16  1  0
  4  5  1  0
  5  6  2  0
  5  7  1  0
  7  8  1  0
  8  9  1  0
  8 10  1  0
  8 21  1  6
  9 22  1  0
  9 23  1  0
 10 15  1  0
 10 11  1  0
 10 24  1  1
 11 12  1  0
 11 25  1  0
 11 26  1  0
 12 13  1  0
 12 27  1  6
 13 16  1  0
 13 14  1  0
 13 28  1  1
 14 15  1  0
 14 29  1  0
 14 30  1  0
 15 16  1  0
 15 31  1  1
 16 32  1  6
M  END
>  <i_m_ct_stereo_status>  (347) 
1

>  <s_m_source_file>  (347) 
/var/tmp/pbs.5076255.sched01/tmpebi1rvwe/120qlbjc4nh.sdf

>  <i_m_source_file_index>  (347) 
35

>  <i_lp_mmshare_version>  (347) 
48012

>  <i_f3d_flags>  (347) 
0

>  <s_epik_input>  (347) 
W0NIM11DKD1bQ0hdMSlbQ0gyXVtDQEhdKE9DMj1PKVtDQEhdKFtDSDJdMylbQ0BASF0oW0NIMl00KVtDQEhdNVtDQEBIXTRbQ0BIXTNDMTI1

>  <s_epik_cmdline>  (347) 
J2VwaWtfcHl0aG9uJywgJy1waHQnLCAnMi4wJywgJy1waCcsICc3LjAnLCAnLXRuJywgJzgnLCAnLW1hJywgJzIwMCcsICctaW1hZScsICc8aW5maWxlLm1hZT4nLCAnLW9tYWUnLCAnPG91dGZpbGUubWFlPic=

>  <r_lp_tautomer_probability>  (347) 
1

>  <r_epik_Ionization_Penalty>  (347) 
0

>  <r_epik_Ionization_Penalty_Charging>  (347) 
0

>  <r_epik_Ionization_Penalty_Neutral>  (347) 
0

>  <r_epik_State_Penalty>  (347) 
-0

>  <r_epik_Charging_Adjusted_Penalty>  (347) 
0

>  <i_epik_Tot_Q>  (347) 
0

>  <i_epik_Tot_abs_Q>  (347) 
0

>  <s_epik_Chemistry_Notes>  (347) 
This compound has an ester and may undergo hydrolysis at high or low pH.

>  <s_lp_Force_Field>  (347) 
OPLS3e

>  <r_lp_Energy>  (347) 
455.236

>  <b_lp_Chiralities_Consistent>  (347) 
1

>  <s_lp_Variant>  (347) 
118:0-1

>  <s_i_glide_gridfile>  (347) 
pfpi4k_grid

>  <i_i_glide_lignum>  (347) 
35

>  <i_i_glide_rotatable_bonds>  (347) 
0

>  <r_i_docking_score>  (347) 
-3.3204

>  <r_i_glide_ligand_efficiency>  (347) 
-0.207525

>  <r_i_glide_ligand_efficiency_sa>  (347) 
-0.522931

>  <r_i_glide_ligand_efficiency_ln>  (347) 
-0.88014

>  <r_i_glide_gscore>  (347) 
-3.3204

>  <r_i_glide_lipo>  (347) 
-0.3693

>  <r_i_glide_hbond>  (347) 
0

>  <r_i_glide_metal>  (347) 
-0

>  <r_i_glide_rewards>  (347) 
-1.93448

>  <r_i_glide_evdw>  (347) 
-18.3085

>  <r_i_glide_ecoul>  (347) 
-0.603433

>  <r_i_glide_erotb>  (347) 
0

>  <r_i_glide_esite>  (347) 
-0.0106798

>  <r_i_glide_emodel>  (347) 
-23.2782

>  <r_i_glide_energy>  (347) 
-18.9119

>  <r_i_glide_einternal>  (347) 
0

>  <r_i_glide_intrahb_reward>  (347) 
-0

>  <i_i_glide_confnum>  (347) 
1

>  <i_i_glide_posenum>  (347) 
14

>  <r_i_glide_eff_state_penalty>  (347) 
0

>  <ligand_id>  (347) 
118

>  <original_smiles>  (347) 
CC1=CC23C(=O)OC(C1)C1CC2C2CC1C23

>  <smiles>  (347) 
[H]C1=C(C([H])([H])[H])C([H])([H])C2([H])OC(=O)C13C1([H])C([H])([H])C2([H])C2([H])C([H])([H])C1([H])C32[H]

$$$$
118:0:2
     RDKit          3D

 32 36  0  0  1  0  0  0  0  0999 V2000
    3.0950   -5.4792    0.6741 C   0  0  0  0  0  0  0  0  0  0  0  0
    3.4715   -4.4066   -0.3175 C   0  0  0  0  0  0  0  0  0  0  0  0
    4.7834   -4.1128   -0.5773 C   0  0  0  0  0  0  0  0  0  0  0  0
    5.0625   -3.0228   -1.5969 C   0  0  2  0  0  0  0  0  0  0  0  0
    4.5349   -3.5769   -2.9514 C   0  0  0  0  0  0  0  0  0  0  0  0
    5.1799   -4.1250   -3.8306 O   0  0  0  0  0  0  0  0  0  0  0  0
    3.2691   -3.2926   -3.1765 O   0  0  0  0  0  0  0  0  0  0  0  0
    2.5474   -2.6527   -2.1731 C   0  0  1  0  0  0  0  0  0  0  0  0
    2.2768   -3.7041   -1.0191 C   0  0  0  0  0  0  0  0  0  0  0  0
    3.2292   -1.2676   -1.8136 C   0  0  2  0  0  0  0  0  0  0  0  0
    4.6254   -0.9009   -2.7827 C   0  0  0  0  0  0  0  0  0  0  0  0
    5.8245   -1.7616   -1.7907 C   0  0  1  0  0  0  0  0  0  0  0  0
    5.8512   -1.6936   -0.0513 C   0  0  1  0  0  0  0  0  0  0  0  0
    4.5968   -1.7043    0.9769 C   0  0  0  0  0  0  0  0  0  0  0  0
    3.4339   -1.3235   -0.1255 C   0  0  2  0  0  0  0  0  0  0  0  0
    4.6504   -1.6591   -0.6736 C   0  0  2  0  0  0  0  0  0  0  0  0
    2.4648   -5.0842    1.4681 H   0  0  0  0  0  0  0  0  0  0  0  0
    3.9807   -5.9292    1.1146 H   0  0  0  0  0  0  0  0  0  0  0  0
    2.5406   -6.2529    0.1509 H   0  0  0  0  0  0  0  0  0  0  0  0
    5.6165   -4.5817   -0.0797 H   0  0  0  0  0  0  0  0  0  0  0  0
    1.5921   -2.4353   -2.6354 H   0  0  0  0  0  0  0  0  0  0  0  0
    1.6463   -4.4906   -1.4402 H   0  0  0  0  0  0  0  0  0  0  0  0
    1.6760   -3.2115   -0.2591 H   0  0  0  0  0  0  0  0  0  0  0  0
    2.5022   -0.5194   -2.1035 H   0  0  0  0  0  0  0  0  0  0  0  0
    4.5563   -1.1946   -3.8328 H   0  0  0  0  0  0  0  0  0  0  0  0
    4.7877    0.1817   -2.7718 H   0  0  0  0  0  0  0  0  0  0  0  0
    6.8079   -1.9321   -2.2398 H   0  0  0  0  0  0  0  0  0  0  0  0
    6.4119   -0.7760    0.1957 H   0  0  0  0  0  0  0  0  0  0  0  0
    4.4321   -2.6566    1.4985 H   0  0  0  0  0  0  0  0  0  0  0  0
    4.7103   -0.9175    1.7329 H   0  0  0  0  0  0  0  0  0  0  0  0
    3.1979   -0.3180    0.2393 H   0  0  0  0  0  0  0  0  0  0  0  0
    4.8147   -0.4627   -0.6801 H   0  0  0  0  0  0  0  0  0  0  0  0
  1  2  1  0
  1 17  1  0
  1 18  1  0
  1 19  1  0
  2  9  1  0
  2  3  2  0
  4  3  1  1
  3 20  1  0
  4 12  1  0
  4 16  1  0
  4  5  1  0
  5  6  2  0
  5  7  1  0
  7  8  1  0
  8  9  1  0
  8 10  1  0
  8 21  1  6
  9 22  1  0
  9 23  1  0
 10 15  1  0
 10 11  1  0
 10 24  1  1
 11 12  1  0
 11 25  1  0
 11 26  1  0
 12 13  1  0
 12 27  1  6
 13 16  1  0
 13 14  1  0
 13 28  1  1
 14 15  1  0
 14 29  1  0
 14 30  1  0
 15 16  1  0
 15 31  1  1
 16 32  1  6
M  END
>  <i_m_ct_stereo_status>  (348) 
1

>  <s_m_source_file>  (348) 
/var/tmp/pbs.5076255.sched01/tmpebi1rvwe/120qlbjc4nh.sdf

>  <i_m_source_file_index>  (348) 
35

>  <i_lp_mmshare_version>  (348) 
48012

>  <i_f3d_flags>  (348) 
0

>  <s_epik_input>  (348) 
W0NIM11DKD1bQ0hdMSlbQ0gyXVtDQEhdKE9DMj1PKVtDQEhdKFtDSDJdMylbQ0BASF0oW0NIMl00KVtDQEhdNVtDQEBIXTRbQ0BIXTNDMTI1

>  <s_epik_cmdline>  (348) 
J2VwaWtfcHl0aG9uJywgJy1waHQnLCAnMi4wJywgJy1waCcsICc3LjAnLCAnLXRuJywgJzgnLCAnLW1hJywgJzIwMCcsICctaW1hZScsICc8aW5maWxlLm1hZT4nLCAnLW9tYWUnLCAnPG91dGZpbGUubWFlPic=

>  <r_lp_tautomer_probability>  (348) 
1

>  <r_epik_Ionization_Penalty>  (348) 
0

>  <r_epik_Ionization_Penalty_Charging>  (348) 
0

>  <r_epik_Ionization_Penalty_Neutral>  (348) 
0

>  <r_epik_State_Penalty>  (348) 
-0

>  <r_epik_Charging_Adjusted_Penalty>  (348) 
0

>  <i_epik_Tot_Q>  (348) 
0

>  <i_epik_Tot_abs_Q>  (348) 
0

>  <s_epik_Chemistry_Notes>  (348) 
This compound has an ester and may undergo hydrolysis at high or low pH.

>  <s_lp_Force_Field>  (348) 
OPLS3e

>  <r_lp_Energy>  (348) 
455.236

>  <b_lp_Chiralities_Consistent>  (348) 
1

>  <s_lp_Variant>  (348) 
118:0-1

>  <s_i_glide_gridfile>  (348) 
pfpi4k_grid

>  <i_i_glide_lignum>  (348) 
35

>  <i_i_glide_rotatable_bonds>  (348) 
0

>  <r_i_docking_score>  (348) 
-2.7718

>  <r_i_glide_ligand_efficiency>  (348) 
-0.173237

>  <r_i_glide_ligand_efficiency_sa>  (348) 
-0.436531

>  <r_i_glide_ligand_efficiency_ln>  (348) 
-0.73472

>  <r_i_glide_gscore>  (348) 
-2.7718

>  <r_i_glide_lipo>  (348) 
-0.0695642

>  <r_i_glide_hbond>  (348) 
0

>  <r_i_glide_metal>  (348) 
-0

>  <r_i_glide_rewards>  (348) 
-1.97218

>  <r_i_glide_evdw>  (348) 
-12.3382

>  <r_i_glide_ecoul>  (348) 
-0.754281

>  <r_i_glide_erotb>  (348) 
0

>  <r_i_glide_esite>  (348) 
0

>  <r_i_glide_emodel>  (348) 
-16.7125

>  <r_i_glide_energy>  (348) 
-13.0925

>  <r_i_glide_einternal>  (348) 
0

>  <r_i_glide_intrahb_reward>  (348) 
-0

>  <i_i_glide_confnum>  (348) 
1

>  <i_i_glide_posenum>  (348) 
19

>  <r_i_glide_eff_state_penalty>  (348) 
0

>  <ligand_id>  (348) 
118

>  <original_smiles>  (348) 
CC1=CC23C(=O)OC(C1)C1CC2C2CC1C23

>  <smiles>  (348) 
[H]C1=C(C([H])([H])[H])C([H])([H])C2([H])OC(=O)C13C1([H])C([H])([H])C2([H])C2([H])C([H])([H])C1([H])C32[H]

$$$$
120:0:0
     RDKit          3D

 24 25  0  0  1  0  0  0  0  0999 V2000
   -6.4475   -5.0045   -4.1592 C   0  0  0  0  0  0  0  0  0  0  0  0
   -7.0278   -5.6172   -5.3929 C   0  0  0  0  0  0  0  0  0  0  0  0
   -8.2319   -5.3294   -6.0879 C   0  0  0  0  0  0  0  0  0  0  0  0
   -8.2344   -6.2785   -7.1017 C   0  0  0  0  0  0  0  0  0  0  0  0
   -9.2377   -6.4950   -8.1808 C   0  0  0  0  0  0  0  0  0  0  0  0
   -7.1124   -7.0788   -6.9503 N   0  0  0  0  0  0  0  0  0  0  0  0
   -6.6395   -8.2456   -7.7479 C   0  0  0  0  0  0  0  0  0  0  0  0
   -5.7429   -9.2609   -7.0447 C   0  0  0  0  0  0  0  0  0  0  0  0
   -5.7341  -10.6345   -7.2209 C   0  0  0  0  0  0  0  0  0  0  0  0
   -4.6122  -11.4264   -6.1295 S   0  0  0  0  0  0  0  0  0  0  0  0
   -4.1684   -9.8456   -5.5289 C   0  0  0  0  0  0  0  0  0  0  0  0
   -4.7703   -8.8478   -6.1377 N   0  0  0  0  0  0  0  0  0  0  0  0
   -6.3730   -6.6208   -5.9286 N   0  0  0  0  0  0  0  0  0  0  0  0
   -7.0471   -4.1873   -3.7453 H   0  0  0  0  0  0  0  0  0  0  0  0
   -5.4511   -4.6205   -4.3563 H   0  0  0  0  0  0  0  0  0  0  0  0
   -6.3344   -5.7525   -3.3775 H   0  0  0  0  0  0  0  0  0  0  0  0
   -8.9980   -4.5734   -5.8945 H   0  0  0  0  0  0  0  0  0  0  0  0
  -10.0770   -5.8016   -8.0997 H   0  0  0  0  0  0  0  0  0  0  0  0
   -9.6368   -7.5123   -8.1389 H   0  0  0  0  0  0  0  0  0  0  0  0
   -8.7736   -6.3587   -9.1612 H   0  0  0  0  0  0  0  0  0  0  0  0
   -7.5189   -8.7416   -8.1565 H   0  0  0  0  0  0  0  0  0  0  0  0
   -6.1439   -7.8595   -8.6253 H   0  0  0  0  0  0  0  0  0  0  0  0
   -6.3557  -11.2191   -7.8980 H   0  0  0  0  0  0  0  0  0  0  0  0
   -3.4835   -9.6634   -4.7292 H   0  0  0  0  0  0  0  0  0  0  0  0
  1  2  1  0
  1 14  1  0
  1 15  1  0
  1 16  1  0
  2 13  2  0
  2  3  1  0
  3  4  2  0
  3 17  1  0
  4  5  1  0
  4  6  1  0
  5 18  1  0
  5 19  1  0
  5 20  1  0
  6  7  1  0
  6 13  1  0
  7  8  1  0
  7 21  1  0
  7 22  1  0
  8 12  1  0
  8  9  2  0
  9 10  1  0
  9 23  1  0
 10 11  1  0
 11 12  2  0
 11 24  1  0
M  END
>  <i_m_ct_stereo_status>  (349) 
1

>  <s_m_source_file>  (349) 
/var/tmp/pbs.5076255.sched01/tmpebi1rvwe/120qlbjc4nh.sdf

>  <i_m_source_file_index>  (349) 
37

>  <i_lp_mmshare_version>  (349) 
48012

>  <i_f3d_flags>  (349) 
0

>  <s_epik_input>  (349) 
W0NIM11jMVtjSF1jKFtDSDNdKW4objEpW0NIMl1jMltjSF1zW2NIXW4y

>  <s_epik_cmdline>  (349) 
J2VwaWtfcHl0aG9uJywgJy1waHQnLCAnMi4wJywgJy1waCcsICc3LjAnLCAnLXRuJywgJzgnLCAnLW1hJywgJzIwMCcsICctaW1hZScsICc8aW5maWxlLm1hZT4nLCAnLW9tYWUnLCAnPG91dGZpbGUubWFlPic=

>  <r_lp_tautomer_probability>  (349) 
1

>  <r_epik_Ionization_Penalty>  (349) 
0.00143122

>  <r_epik_Ionization_Penalty_Charging>  (349) 
0

>  <r_epik_Ionization_Penalty_Neutral>  (349) 
0.00143122

>  <r_epik_State_Penalty>  (349) 
-0

>  <r_epik_Charging_Adjusted_Penalty>  (349) 
0

>  <i_epik_Tot_Q>  (349) 
0

>  <i_epik_Tot_abs_Q>  (349) 
0

>  <s_lp_Force_Field>  (349) 
OPLS3e

>  <r_lp_Energy>  (349) 
-1.08157

>  <b_lp_Chiralities_Consistent>  (349) 
1

>  <s_lp_Variant>  (349) 
120:0-1

>  <s_i_glide_gridfile>  (349) 
pfpi4k_grid

>  <i_i_glide_lignum>  (349) 
37

>  <i_i_glide_rotatable_bonds>  (349) 
2

>  <r_i_docking_score>  (349) 
-5.25381

>  <r_i_glide_ligand_efficiency>  (349) 
-0.404139

>  <r_i_glide_ligand_efficiency_sa>  (349) 
-0.950266

>  <r_i_glide_ligand_efficiency_ln>  (349) 
-1.47374

>  <r_i_glide_gscore>  (349) 
-5.25381

>  <r_i_glide_lipo>  (349) 
-1.82086

>  <r_i_glide_hbond>  (349) 
0

>  <r_i_glide_metal>  (349) 
-0

>  <r_i_glide_rewards>  (349) 
-2.81836

>  <r_i_glide_evdw>  (349) 
-23.2412

>  <r_i_glide_ecoul>  (349) 
-2.11352

>  <r_i_glide_erotb>  (349) 
0.8645

>  <r_i_glide_esite>  (349) 
0

>  <r_i_glide_emodel>  (349) 
-30.2958

>  <r_i_glide_energy>  (349) 
-25.3548

>  <r_i_glide_einternal>  (349) 
4.62383

>  <r_i_glide_intrahb_reward>  (349) 
-0

>  <i_i_glide_confnum>  (349) 
5

>  <i_i_glide_posenum>  (349) 
37

>  <r_i_glide_eff_state_penalty>  (349) 
0

>  <ligand_id>  (349) 
120

>  <original_smiles>  (349) 
Cc1cc(C)n(Cc2cscn2)n1

>  <smiles>  (349) 
[H]c1nc(C([H])([H])n2nc(C([H])([H])[H])c([H])c2C([H])([H])[H])c([H])s1

$$$$
120:0:1
     RDKit          3D

 24 25  0  0  1  0  0  0  0  0999 V2000
    4.7852   -5.9506    1.8806 C   0  0  0  0  0  0  0  0  0  0  0  0
    5.1379   -4.6427    1.2423 C   0  0  0  0  0  0  0  0  0  0  0  0
    5.1435   -3.3416    1.8223 C   0  0  0  0  0  0  0  0  0  0  0  0
    5.5468   -2.5228    0.8070 C   0  0  0  0  0  0  0  0  0  0  0  0
    5.7418   -1.0435    0.8085 C   0  0  0  0  0  0  0  0  0  0  0  0
    5.7514   -3.3214   -0.3047 N   0  0  0  0  0  0  0  0  0  0  0  0
    6.1674   -2.9514   -1.6524 C   0  0  0  0  0  0  0  0  0  0  0  0
    5.0401   -2.3615   -2.4604 C   0  0  0  0  0  0  0  0  0  0  0  0
    4.6244   -1.0476   -2.5059 C   0  0  0  0  0  0  0  0  0  0  0  0
    3.3067   -0.8066   -3.6202 S   0  0  0  0  0  0  0  0  0  0  0  0
    3.3277   -2.5304   -3.9265 C   0  0  0  0  0  0  0  0  0  0  0  0
    4.3168   -3.1883   -3.3229 N   0  0  0  0  0  0  0  0  0  0  0  0
    5.5059   -4.6203   -0.0244 N   0  0  0  0  0  0  0  0  0  0  0  0
    4.4944   -5.8049    2.9229 H   0  0  0  0  0  0  0  0  0  0  0  0
    5.6294   -6.6417    1.8639 H   0  0  0  0  0  0  0  0  0  0  0  0
    3.9508   -6.4276    1.3652 H   0  0  0  0  0  0  0  0  0  0  0  0
    4.8960   -3.0464    2.8302 H   0  0  0  0  0  0  0  0  0  0  0  0
    5.5274   -0.6203    1.7905 H   0  0  0  0  0  0  0  0  0  0  0  0
    5.0540   -0.5726    0.1141 H   0  0  0  0  0  0  0  0  0  0  0  0
    6.7680   -0.7978    0.5332 H   0  0  0  0  0  0  0  0  0  0  0  0
    7.0088   -2.2651   -1.5763 H   0  0  0  0  0  0  0  0  0  0  0  0
    6.5642   -3.8391   -2.1555 H   0  0  0  0  0  0  0  0  0  0  0  0
    5.0270   -0.1940   -1.9811 H   0  0  0  0  0  0  0  0  0  0  0  0
    2.6730   -3.0252   -4.6330 H   0  0  0  0  0  0  0  0  0  0  0  0
  1  2  1  0
  1 14  1  0
  1 15  1  0
  1 16  1  0
  2 13  2  0
  2  3  1  0
  3  4  2  0
  3 17  1  0
  4  5  1  0
  4  6  1  0
  5 18  1  0
  5 19  1  0
  5 20  1  0
  6  7  1  0
  6 13  1  0
  7  8  1  0
  7 21  1  0
  7 22  1  0
  8 12  1  0
  8  9  2  0
  9 10  1  0
  9 23  1  0
 10 11  1  0
 11 12  2  0
 11 24  1  0
M  END
>  <i_m_ct_stereo_status>  (350) 
1

>  <s_m_source_file>  (350) 
/var/tmp/pbs.5076255.sched01/tmpebi1rvwe/120qlbjc4nh.sdf

>  <i_m_source_file_index>  (350) 
37

>  <i_lp_mmshare_version>  (350) 
48012

>  <i_f3d_flags>  (350) 
0

>  <s_epik_input>  (350) 
W0NIM11jMVtjSF1jKFtDSDNdKW4objEpW0NIMl1jMltjSF1zW2NIXW4y

>  <s_epik_cmdline>  (350) 
J2VwaWtfcHl0aG9uJywgJy1waHQnLCAnMi4wJywgJy1waCcsICc3LjAnLCAnLXRuJywgJzgnLCAnLW1hJywgJzIwMCcsICctaW1hZScsICc8aW5maWxlLm1hZT4nLCAnLW9tYWUnLCAnPG91dGZpbGUubWFlPic=

>  <r_lp_tautomer_probability>  (350) 
1

>  <r_epik_Ionization_Penalty>  (350) 
0.00143122

>  <r_epik_Ionization_Penalty_Charging>  (350) 
0

>  <r_epik_Ionization_Penalty_Neutral>  (350) 
0.00143122

>  <r_epik_State_Penalty>  (350) 
-0

>  <r_epik_Charging_Adjusted_Penalty>  (350) 
0

>  <i_epik_Tot_Q>  (350) 
0

>  <i_epik_Tot_abs_Q>  (350) 
0

>  <s_lp_Force_Field>  (350) 
OPLS3e

>  <r_lp_Energy>  (350) 
-1.08157

>  <b_lp_Chiralities_Consistent>  (350) 
1

>  <s_lp_Variant>  (350) 
120:0-1

>  <s_i_glide_gridfile>  (350) 
pfpi4k_grid

>  <i_i_glide_lignum>  (350) 
37

>  <i_i_glide_rotatable_bonds>  (350) 
2

>  <r_i_docking_score>  (350) 
-3.17639

>  <r_i_glide_ligand_efficiency>  (350) 
-0.244337

>  <r_i_glide_ligand_efficiency_sa>  (350) 
-0.574519

>  <r_i_glide_ligand_efficiency_ln>  (350) 
-0.891005

>  <r_i_glide_gscore>  (350) 
-3.17639

>  <r_i_glide_lipo>  (350) 
-0.802898

>  <r_i_glide_hbond>  (350) 
0

>  <r_i_glide_metal>  (350) 
-0

>  <r_i_glide_rewards>  (350) 
-2.18271

>  <r_i_glide_evdw>  (350) 
-22.6597

>  <r_i_glide_ecoul>  (350) 
0.518024

>  <r_i_glide_erotb>  (350) 
0.8645

>  <r_i_glide_esite>  (350) 
0

>  <r_i_glide_emodel>  (350) 
-26.9283

>  <r_i_glide_energy>  (350) 
-22.1417

>  <r_i_glide_einternal>  (350) 
0.0430445

>  <r_i_glide_intrahb_reward>  (350) 
-0

>  <i_i_glide_confnum>  (350) 
3

>  <i_i_glide_posenum>  (350) 
12

>  <r_i_glide_eff_state_penalty>  (350) 
0

>  <ligand_id>  (350) 
120

>  <original_smiles>  (350) 
Cc1cc(C)n(Cc2cscn2)n1

>  <smiles>  (350) 
[H]c1nc(C([H])([H])n2nc(C([H])([H])[H])c([H])c2C([H])([H])[H])c([H])s1

$$$$
120:0:2
     RDKit          3D

 24 25  0  0  1  0  0  0  0  0999 V2000
    4.5393   -6.8211    1.3390 C   0  0  0  0  0  0  0  0  0  0  0  0
    4.6942   -5.3830    0.9374 C   0  0  0  0  0  0  0  0  0  0  0  0
    4.2110   -4.2172    1.5974 C   0  0  0  0  0  0  0  0  0  0  0  0
    4.6262   -3.1851    0.8012 C   0  0  0  0  0  0  0  0  0  0  0  0
    4.4318   -1.7155    0.9716 C   0  0  0  0  0  0  0  0  0  0  0  0
    5.3069   -3.7391   -0.2672 N   0  0  0  0  0  0  0  0  0  0  0  0
    5.9636   -3.0877   -1.3965 C   0  0  0  0  0  0  0  0  0  0  0  0
    4.9833   -2.4052   -2.3106 C   0  0  0  0  0  0  0  0  0  0  0  0
    4.6436   -1.0687   -2.3355 C   0  0  0  0  0  0  0  0  0  0  0  0
    3.4221   -0.7191   -3.5350 S   0  0  0  0  0  0  0  0  0  0  0  0
    3.4048   -2.4314   -3.9321 C   0  0  0  0  0  0  0  0  0  0  0  0
    4.2984   -3.1593   -3.2658 N   0  0  0  0  0  0  0  0  0  0  0  0
    5.3610   -5.0835   -0.1614 N   0  0  0  0  0  0  0  0  0  0  0  0
    3.9677   -6.9106    2.2636 H   0  0  0  0  0  0  0  0  0  0  0  0
    5.5069   -7.2970    1.5051 H   0  0  0  0  0  0  0  0  0  0  0  0
    4.0135   -7.3924    0.5725 H   0  0  0  0  0  0  0  0  0  0  0  0
    3.6529   -4.1441    2.5197 H   0  0  0  0  0  0  0  0  0  0  0  0
    3.8560   -1.4909    1.8678 H   0  0  0  0  0  0  0  0  0  0  0  0
    3.8689   -1.3071    0.1381 H   0  0  0  0  0  0  0  0  0  0  0  0
    5.3944   -1.2090    1.0348 H   0  0  0  0  0  0  0  0  0  0  0  0
    6.7018   -2.3890   -1.0006 H   0  0  0  0  0  0  0  0  0  0  0  0
    6.5235   -3.8340   -1.9616 H   0  0  0  0  0  0  0  0  0  0  0  0
    5.0170   -0.2734   -1.7055 H   0  0  0  0  0  0  0  0  0  0  0  0
    2.7875   -2.8838   -4.7020 H   0  0  0  0  0  0  0  0  0  0  0  0
  1  2  1  0
  1 14  1  0
  1 15  1  0
  1 16  1  0
  2 13  2  0
  2  3  1  0
  3  4  2  0
  3 17  1  0
  4  5  1  0
  4  6  1  0
  5 18  1  0
  5 19  1  0
  5 20  1  0
  6  7  1  0
  6 13  1  0
  7  8  1  0
  7 21  1  0
  7 22  1  0
  8 12  1  0
  8  9  2  0
  9 10  1  0
  9 23  1  0
 10 11  1  0
 11 12  2  0
 11 24  1  0
M  END
>  <i_m_ct_stereo_status>  (351) 
1

>  <s_m_source_file>  (351) 
/var/tmp/pbs.5076255.sched01/tmpebi1rvwe/120qlbjc4nh.sdf

>  <i_m_source_file_index>  (351) 
37

>  <i_lp_mmshare_version>  (351) 
48012

>  <i_f3d_flags>  (351) 
0

>  <s_epik_input>  (351) 
W0NIM11jMVtjSF1jKFtDSDNdKW4objEpW0NIMl1jMltjSF1zW2NIXW4y

>  <s_epik_cmdline>  (351) 
J2VwaWtfcHl0aG9uJywgJy1waHQnLCAnMi4wJywgJy1waCcsICc3LjAnLCAnLXRuJywgJzgnLCAnLW1hJywgJzIwMCcsICctaW1hZScsICc8aW5maWxlLm1hZT4nLCAnLW9tYWUnLCAnPG91dGZpbGUubWFlPic=

>  <r_lp_tautomer_probability>  (351) 
1

>  <r_epik_Ionization_Penalty>  (351) 
0.00143122

>  <r_epik_Ionization_Penalty_Charging>  (351) 
0

>  <r_epik_Ionization_Penalty_Neutral>  (351) 
0.00143122

>  <r_epik_State_Penalty>  (351) 
-0

>  <r_epik_Charging_Adjusted_Penalty>  (351) 
0

>  <i_epik_Tot_Q>  (351) 
0

>  <i_epik_Tot_abs_Q>  (351) 
0

>  <s_lp_Force_Field>  (351) 
OPLS3e

>  <r_lp_Energy>  (351) 
-1.08157

>  <b_lp_Chiralities_Consistent>  (351) 
1

>  <s_lp_Variant>  (351) 
120:0-1

>  <s_i_glide_gridfile>  (351) 
pfpi4k_grid

>  <i_i_glide_lignum>  (351) 
37

>  <i_i_glide_rotatable_bonds>  (351) 
2

>  <r_i_docking_score>  (351) 
-2.96145

>  <r_i_glide_ligand_efficiency>  (351) 
-0.227804

>  <r_i_glide_ligand_efficiency_sa>  (351) 
-0.535644

>  <r_i_glide_ligand_efficiency_ln>  (351) 
-0.830714

>  <r_i_glide_gscore>  (351) 
-2.96145

>  <r_i_glide_lipo>  (351) 
-0.641242

>  <r_i_glide_hbond>  (351) 
0

>  <r_i_glide_metal>  (351) 
-0

>  <r_i_glide_rewards>  (351) 
-2.1673

>  <r_i_glide_evdw>  (351) 
-22.285

>  <r_i_glide_ecoul>  (351) 
0.645584

>  <r_i_glide_erotb>  (351) 
0.8645

>  <r_i_glide_esite>  (351) 
0

>  <r_i_glide_emodel>  (351) 
-26.0882

>  <r_i_glide_energy>  (351) 
-21.6394

>  <r_i_glide_einternal>  (351) 
0.150624

>  <r_i_glide_intrahb_reward>  (351) 
-0

>  <i_i_glide_confnum>  (351) 
5

>  <i_i_glide_posenum>  (351) 
3

>  <r_i_glide_eff_state_penalty>  (351) 
0

>  <ligand_id>  (351) 
120

>  <original_smiles>  (351) 
Cc1cc(C)n(Cc2cscn2)n1

>  <smiles>  (351) 
[H]c1nc(C([H])([H])n2nc(C([H])([H])[H])c([H])c2C([H])([H])[H])c([H])s1

$$$$
121:0:0
     RDKit          3D

 44 48  0  0  1  0  0  0  0  0999 V2000
    2.0671    1.5022    3.6039 C   0  0  0  0  0  0  0  0  0  0  0  0
    0.5927    1.1129    3.3673 C   0  0  0  0  0  0  0  0  0  0  0  0
   -0.2930    2.2947    3.8339 C   0  0  0  0  0  0  0  0  0  0  0  0
    0.3334    0.8961    1.8624 C   0  0  0  0  0  0  0  0  0  0  0  0
    0.2941   -0.1300    4.0966 N   0  0  0  0  0  0  0  0  0  0  0  0
   -0.6642   -0.1728    5.0798 N   0  0  0  0  0  0  0  0  0  0  0  0
   -0.6878   -1.4234    5.5372 C   0  0  0  0  0  0  0  0  0  0  0  0
    0.2600   -2.2045    4.8315 C   0  0  0  0  0  0  0  0  0  0  0  0
    0.6283   -3.6380    4.9363 C   0  0  0  0  0  0  0  0  0  0  0  0
    0.0646   -4.3703    5.7486 O   0  0  0  0  0  0  0  0  0  0  0  0
    1.6201   -4.0138    4.0821 N   0  0  0  0  0  0  0  0  0  0  0  0
    2.1348   -5.4064    4.0975 C   0  0  0  0  0  0  0  0  0  0  0  0
    1.2578   -6.2877    3.2381 C   0  0  0  0  0  0  0  0  0  0  0  0
    0.6583   -5.9057    2.0980 N   0  0  0  0  0  0  0  0  0  0  0  0
   -0.0859   -7.0035    1.6052 N   0  0  0  0  0  0  0  0  0  0  0  0
    0.1107   -7.9903    2.4365 C   0  0  0  0  0  0  0  0  0  0  0  0
   -0.2904   -9.6516    2.7777 S   0  0  0  0  0  0  0  0  0  0  0  0
    0.7628   -9.5661    4.2306 C   0  0  0  0  0  0  0  0  0  0  0  0
    0.9856  -10.7755    5.0914 C   0  0  0  0  0  0  0  0  0  0  0  0
    2.1230  -11.7310    4.8233 C   0  0  0  0  0  0  0  0  0  0  0  0
    0.7012  -12.1580    4.5335 C   0  0  0  0  0  0  0  0  0  0  0  0
    1.3320   -8.3615    4.4551 N   0  0  0  0  0  0  0  0  0  0  0  0
    0.9233   -7.5700    3.4285 N   0  0  0  0  0  0  0  0  0  0  0  0
    2.1989   -3.0566    3.1788 C   0  0  0  0  0  0  0  0  0  0  0  0
    3.5040   -3.4856    2.0259 Cl  0  0  0  0  0  0  0  0  0  0  0  0
    1.8662   -1.7955    3.0926 N   0  0  0  0  0  0  0  0  0  0  0  0
    0.8660   -1.3831    3.9541 C   0  0  0  0  0  0  0  0  0  0  0  0
    2.3243    2.4370    3.1037 H   0  0  0  0  0  0  0  0  0  0  0  0
    2.7544    0.7452    3.2286 H   0  0  0  0  0  0  0  0  0  0  0  0
    2.2741    1.6286    4.6671 H   0  0  0  0  0  0  0  0  0  0  0  0
   -0.1393    2.5196    4.8919 H   0  0  0  0  0  0  0  0  0  0  0  0
   -1.3543    2.0833    3.6836 H   0  0  0  0  0  0  0  0  0  0  0  0
   -0.0633    3.2041    3.2712 H   0  0  0  0  0  0  0  0  0  0  0  0
    0.4918    1.8075    1.2846 H   0  0  0  0  0  0  0  0  0  0  0  0
   -0.6924    0.5739    1.6822 H   0  0  0  0  0  0  0  0  0  0  0  0
    0.9896    0.1380    1.4369 H   0  0  0  0  0  0  0  0  0  0  0  0
   -1.3681   -1.7053    6.3268 H   0  0  0  0  0  0  0  0  0  0  0  0
    3.1535   -5.4850    3.7179 H   0  0  0  0  0  0  0  0  0  0  0  0
    2.1766   -5.7927    5.1206 H   0  0  0  0  0  0  0  0  0  0  0  0
    0.6715  -10.5999    6.1200 H   0  0  0  0  0  0  0  0  0  0  0  0
    2.7691  -11.5099    3.9726 H   0  0  0  0  0  0  0  0  0  0  0  0
    2.6162  -12.1905    5.6771 H   0  0  0  0  0  0  0  0  0  0  0  0
    0.2481  -12.8971    5.1850 H   0  0  0  0  0  0  0  0  0  0  0  0
    0.4352  -12.2792    3.4855 H   0  0  0  0  0  0  0  0  0  0  0  0
  1  2  1  0
  1 28  1  0
  1 29  1  0
  1 30  1  0
  2  3  1  0
  2  4  1  0
  2  5  1  0
  3 31  1  0
  3 32  1  0
  3 33  1  0
  4 34  1  0
  4 35  1  0
  4 36  1  0
  5 27  1  0
  5  6  1  0
  6  7  2  0
  7  8  1  0
  7 37  1  0
  8 27  2  0
  8  9  1  0
  9 10  2  0
  9 11  1  0
 11 12  1  0
 11 24  1  0
 12 13  1  0
 12 38  1  0
 12 39  1  0
 13 23  1  0
 13 14  2  0
 14 15  1  0
 15 16  2  0
 16 23  1  0
 16 17  1  0
 17 18  1  0
 18 19  1  0
 18 22  2  0
 19 21  1  0
 19 20  1  0
 19 40  1  0
 20 21  1  0
 20 41  1  0
 20 42  1  0
 21 43  1  0
 21 44  1  0
 22 23  1  0
 24 25  1  0
 24 26  2  0
 26 27  1  0
M  END
>  <i_m_ct_stereo_status>  (352) 
1

>  <s_m_source_file>  (352) 
/var/tmp/pbs.5076255.sched01/tmpebi1rvwe/120qlbjc4nh.sdf

>  <i_m_source_file_index>  (352) 
38

>  <i_lp_mmshare_version>  (352) 
48012

>  <i_f3d_flags>  (352) 
0

>  <s_epik_input>  (352) 
W0NIM11DKFtDSDNdKShbQ0gzXSluKG5bY0hdMSljKGMxMiluYyhDbCluKGMyPU8pW0NIMl1jKG5uMyluKGMzNCluYyhzNClbQ0hdNVtDSDJdW0NIMl01

>  <s_epik_cmdline>  (352) 
J2VwaWtfcHl0aG9uJywgJy1waHQnLCAnMi4wJywgJy1waCcsICc3LjAnLCAnLXRuJywgJzgnLCAnLW1hJywgJzIwMCcsICctaW1hZScsICc8aW5maWxlLm1hZT4nLCAnLW9tYWUnLCAnPG91dGZpbGUubWFlPic=

>  <r_lp_tautomer_probability>  (352) 
1

>  <r_epik_Ionization_Penalty>  (352) 
1.99752e-06

>  <r_epik_Ionization_Penalty_Charging>  (352) 
9.69532e-12

>  <r_epik_Ionization_Penalty_Neutral>  (352) 
1.99751e-06

>  <r_epik_State_Penalty>  (352) 
-0

>  <r_epik_Charging_Adjusted_Penalty>  (352) 
9.69532e-12

>  <i_epik_Tot_Q>  (352) 
0

>  <i_epik_Tot_abs_Q>  (352) 
0

>  <s_lp_Force_Field>  (352) 
OPLS3e

>  <r_lp_Energy>  (352) 
35.1755

>  <b_lp_Chiralities_Consistent>  (352) 
1

>  <s_lp_Variant>  (352) 
121:0-1

>  <s_i_glide_gridfile>  (352) 
pfpi4k_grid

>  <i_i_glide_lignum>  (352) 
38

>  <i_i_glide_rotatable_bonds>  (352) 
4

>  <r_i_docking_score>  (352) 
-2.89946

>  <r_i_glide_ligand_efficiency>  (352) 
-0.107387

>  <r_i_glide_ligand_efficiency_sa>  (352) 
-0.322162

>  <r_i_glide_ligand_efficiency_ln>  (352) 
-0.674947

>  <r_i_glide_gscore>  (352) 
-2.89946

>  <r_i_glide_lipo>  (352) 
-0.0226186

>  <r_i_glide_hbond>  (352) 
0

>  <r_i_glide_metal>  (352) 
-0

>  <r_i_glide_rewards>  (352) 
-0.652371

>  <r_i_glide_evdw>  (352) 
-28.9394

>  <r_i_glide_ecoul>  (352) 
-5.61818

>  <r_i_glide_erotb>  (352) 
0.359565

>  <r_i_glide_esite>  (352) 
-0.294341

>  <r_i_glide_emodel>  (352) 
-40.6623

>  <r_i_glide_energy>  (352) 
-34.5575

>  <r_i_glide_einternal>  (352) 
1.04862

>  <r_i_glide_intrahb_reward>  (352) 
-0

>  <i_i_glide_confnum>  (352) 
3

>  <i_i_glide_posenum>  (352) 
11

>  <r_i_glide_eff_state_penalty>  (352) 
0

>  <ligand_id>  (352) 
121

>  <original_smiles>  (352) 
CC(C)(C)n1ncc2c(=O)n(Cc3nnc4sc(C5CC5)nn34)c(Cl)nc21

>  <smiles>  (352) 
[H]c1nn(C(C([H])([H])[H])(C([H])([H])[H])C([H])([H])[H])c2nc(Cl)n(C([H])([H])c3nnc4sc(C5([H])C([H])([H])C5([H])[H])nn34)c(=O)c12

$$$$
121:0:1
     RDKit          3D

 44 48  0  0  1  0  0  0  0  0999 V2000
    2.4213   -2.9573   -3.0103 C   0  0  0  0  0  0  0  0  0  0  0  0
    3.8365   -2.3847   -2.7744 C   0  0  0  0  0  0  0  0  0  0  0  0
    4.8736   -3.4185   -3.2588 C   0  0  0  0  0  0  0  0  0  0  0  0
    4.0169   -1.0988   -3.6195 C   0  0  0  0  0  0  0  0  0  0  0  0
    4.0244   -2.1004   -1.3418 N   0  0  0  0  0  0  0  0  0  0  0  0
    4.2964   -0.8342   -0.8949 N   0  0  0  0  0  0  0  0  0  0  0  0
    4.3500   -0.8850    0.4349 C   0  0  0  0  0  0  0  0  0  0  0  0
    4.1532   -2.2238    0.8557 C   0  0  0  0  0  0  0  0  0  0  0  0
    4.1497   -2.8492    2.2020 C   0  0  0  0  0  0  0  0  0  0  0  0
    4.3547   -2.1723    3.2099 O   0  0  0  0  0  0  0  0  0  0  0  0
    3.9376   -4.1989    2.1686 N   0  0  0  0  0  0  0  0  0  0  0  0
    3.9462   -5.0359    3.3861 C   0  0  0  0  0  0  0  0  0  0  0  0
    2.5368   -5.2601    3.8835 C   0  0  0  0  0  0  0  0  0  0  0  0
    1.7689   -4.3205    4.4596 N   0  0  0  0  0  0  0  0  0  0  0  0
    0.5363   -4.9302    4.8170 N   0  0  0  0  0  0  0  0  0  0  0  0
    0.6026   -6.1756    4.4326 C   0  0  0  0  0  0  0  0  0  0  0  0
   -0.2735   -7.6901    4.3508 S   0  0  0  0  0  0  0  0  0  0  0  0
    1.1651   -8.4227    3.5513 C   0  0  0  0  0  0  0  0  0  0  0  0
    1.2161   -9.8640    3.1347 C   0  0  0  0  0  0  0  0  0  0  0  0
    0.7705  -10.9174    4.1264 C   0  0  0  0  0  0  0  0  0  0  0  0
    2.2222  -10.8169    3.7341 C   0  0  0  0  0  0  0  0  0  0  0  0
    2.2026   -7.5844    3.3716 N   0  0  0  0  0  0  0  0  0  0  0  0
    1.8098   -6.3865    3.8687 N   0  0  0  0  0  0  0  0  0  0  0  0
    3.7665   -4.8751    0.9198 C   0  0  0  0  0  0  0  0  0  0  0  0
    3.5917   -6.6481    0.8370 Cl  0  0  0  0  0  0  0  0  0  0  0  0
    3.7508   -4.3155   -0.2575 N   0  0  0  0  0  0  0  0  0  0  0  0
    3.9604   -2.9535   -0.2616 C   0  0  0  0  0  0  0  0  0  0  0  0
    2.2547   -3.2206   -4.0559 H   0  0  0  0  0  0  0  0  0  0  0  0
    1.6494   -2.2521   -2.7191 H   0  0  0  0  0  0  0  0  0  0  0  0
    2.2456   -3.8572   -2.4263 H   0  0  0  0  0  0  0  0  0  0  0  0
    4.7714   -4.3705   -2.7383 H   0  0  0  0  0  0  0  0  0  0  0  0
    5.8967   -3.0679   -3.1163 H   0  0  0  0  0  0  0  0  0  0  0  0
    4.7369   -3.6347   -4.3196 H   0  0  0  0  0  0  0  0  0  0  0  0
    3.9469   -1.2859   -4.6922 H   0  0  0  0  0  0  0  0  0  0  0  0
    4.9957   -0.6559   -3.4278 H   0  0  0  0  0  0  0  0  0  0  0  0
    3.2683   -0.3453   -3.3621 H   0  0  0  0  0  0  0  0  0  0  0  0
    4.5302    0.0120    1.0104 H   0  0  0  0  0  0  0  0  0  0  0  0
    4.4969   -5.9731    3.2563 H   0  0  0  0  0  0  0  0  0  0  0  0
    4.4710   -4.5190    4.1881 H   0  0  0  0  0  0  0  0  0  0  0  0
    0.8941  -10.0055    2.1025 H   0  0  0  0  0  0  0  0  0  0  0  0
    0.5037  -10.5966    5.1315 H   0  0  0  0  0  0  0  0  0  0  0  0
    0.2301  -11.7906    3.7760 H   0  0  0  0  0  0  0  0  0  0  0  0
    2.6218  -11.5955    3.0859 H   0  0  0  0  0  0  0  0  0  0  0  0
    2.9245  -10.3898    4.4489 H   0  0  0  0  0  0  0  0  0  0  0  0
  1  2  1  0
  1 28  1  0
  1 29  1  0
  1 30  1  0
  2  3  1  0
  2  4  1  0
  2  5  1  0
  3 31  1  0
  3 32  1  0
  3 33  1  0
  4 34  1  0
  4 35  1  0
  4 36  1  0
  5 27  1  0
  5  6  1  0
  6  7  2  0
  7  8  1  0
  7 37  1  0
  8 27  2  0
  8  9  1  0
  9 10  2  0
  9 11  1  0
 11 12  1  0
 11 24  1  0
 12 13  1  0
 12 38  1  0
 12 39  1  0
 13 23  1  0
 13 14  2  0
 14 15  1  0
 15 16  2  0
 16 23  1  0
 16 17  1  0
 17 18  1  0
 18 19  1  0
 18 22  2  0
 19 21  1  0
 19 20  1  0
 19 40  1  0
 20 21  1  0
 20 41  1  0
 20 42  1  0
 21 43  1  0
 21 44  1  0
 22 23  1  0
 24 25  1  0
 24 26  2  0
 26 27  1  0
M  END
>  <i_m_ct_stereo_status>  (353) 
1

>  <s_m_source_file>  (353) 
/var/tmp/pbs.5076255.sched01/tmpebi1rvwe/120qlbjc4nh.sdf

>  <i_m_source_file_index>  (353) 
38

>  <i_lp_mmshare_version>  (353) 
48012

>  <i_f3d_flags>  (353) 
0

>  <s_epik_input>  (353) 
W0NIM11DKFtDSDNdKShbQ0gzXSluKG5bY0hdMSljKGMxMiluYyhDbCluKGMyPU8pW0NIMl1jKG5uMyluKGMzNCluYyhzNClbQ0hdNVtDSDJdW0NIMl01

>  <s_epik_cmdline>  (353) 
J2VwaWtfcHl0aG9uJywgJy1waHQnLCAnMi4wJywgJy1waCcsICc3LjAnLCAnLXRuJywgJzgnLCAnLW1hJywgJzIwMCcsICctaW1hZScsICc8aW5maWxlLm1hZT4nLCAnLW9tYWUnLCAnPG91dGZpbGUubWFlPic=

>  <r_lp_tautomer_probability>  (353) 
1

>  <r_epik_Ionization_Penalty>  (353) 
1.99752e-06

>  <r_epik_Ionization_Penalty_Charging>  (353) 
9.69532e-12

>  <r_epik_Ionization_Penalty_Neutral>  (353) 
1.99751e-06

>  <r_epik_State_Penalty>  (353) 
-0

>  <r_epik_Charging_Adjusted_Penalty>  (353) 
9.69532e-12

>  <i_epik_Tot_Q>  (353) 
0

>  <i_epik_Tot_abs_Q>  (353) 
0

>  <s_lp_Force_Field>  (353) 
OPLS3e

>  <r_lp_Energy>  (353) 
35.1755

>  <b_lp_Chiralities_Consistent>  (353) 
1

>  <s_lp_Variant>  (353) 
121:0-1

>  <s_i_glide_gridfile>  (353) 
pfpi4k_grid

>  <i_i_glide_lignum>  (353) 
38

>  <i_i_glide_rotatable_bonds>  (353) 
4

>  <r_i_docking_score>  (353) 
-2.74452

>  <r_i_glide_ligand_efficiency>  (353) 
-0.101649

>  <r_i_glide_ligand_efficiency_sa>  (353) 
-0.304947

>  <r_i_glide_ligand_efficiency_ln>  (353) 
-0.638879

>  <r_i_glide_gscore>  (353) 
-2.74452

>  <r_i_glide_lipo>  (353) 
-0.821765

>  <r_i_glide_hbond>  (353) 
0

>  <r_i_glide_metal>  (353) 
-0

>  <r_i_glide_rewards>  (353) 
-0.663766

>  <r_i_glide_evdw>  (353) 
-32.6922

>  <r_i_glide_ecoul>  (353) 
0.549177

>  <r_i_glide_erotb>  (353) 
0.359565

>  <r_i_glide_esite>  (353) 
-0.0663212

>  <r_i_glide_emodel>  (353) 
-37.5395

>  <r_i_glide_energy>  (353) 
-32.143

>  <r_i_glide_einternal>  (353) 
1.69878

>  <r_i_glide_intrahb_reward>  (353) 
-0

>  <i_i_glide_confnum>  (353) 
1

>  <i_i_glide_posenum>  (353) 
15

>  <r_i_glide_eff_state_penalty>  (353) 
0

>  <ligand_id>  (353) 
121

>  <original_smiles>  (353) 
CC(C)(C)n1ncc2c(=O)n(Cc3nnc4sc(C5CC5)nn34)c(Cl)nc21

>  <smiles>  (353) 
[H]c1nn(C(C([H])([H])[H])(C([H])([H])[H])C([H])([H])[H])c2nc(Cl)n(C([H])([H])c3nnc4sc(C5([H])C([H])([H])C5([H])[H])nn34)c(=O)c12

$$$$
121:0:2
     RDKit          3D

 44 48  0  0  1  0  0  0  0  0999 V2000
    2.6028   -2.9186   -2.7073 C   0  0  0  0  0  0  0  0  0  0  0  0
    4.0182   -2.3690   -2.4343 C   0  0  0  0  0  0  0  0  0  0  0  0
    5.0578   -3.3636   -2.9968 C   0  0  0  0  0  0  0  0  0  0  0  0
    4.1881   -1.0269   -3.1800 C   0  0  0  0  0  0  0  0  0  0  0  0
    4.2098   -2.1917   -0.9855 N   0  0  0  0  0  0  0  0  0  0  0  0
    4.4391   -0.9534   -0.4406 N   0  0  0  0  0  0  0  0  0  0  0  0
    4.5201   -1.1075    0.8784 C   0  0  0  0  0  0  0  0  0  0  0  0
    4.3647   -2.4816    1.1904 C   0  0  0  0  0  0  0  0  0  0  0  0
    4.3870   -3.2073    2.4825 C   0  0  0  0  0  0  0  0  0  0  0  0
    4.5912   -2.6064    3.5377 O   0  0  0  0  0  0  0  0  0  0  0  0
    4.1834   -4.5514    2.3471 N   0  0  0  0  0  0  0  0  0  0  0  0
    4.1936   -5.4593    3.5057 C   0  0  0  0  0  0  0  0  0  0  0  0
    2.8852   -5.3790    4.2375 C   0  0  0  0  0  0  0  0  0  0  0  0
    2.6597   -4.5829    5.2927 N   0  0  0  0  0  0  0  0  0  0  0  0
    1.3323   -4.8155    5.7291 N   0  0  0  0  0  0  0  0  0  0  0  0
    0.8266   -5.7170    4.9327 C   0  0  0  0  0  0  0  0  0  0  0  0
   -0.5964   -6.6622    4.5927 S   0  0  0  0  0  0  0  0  0  0  0  0
    0.2809   -7.4189    3.2155 C   0  0  0  0  0  0  0  0  0  0  0  0
   -0.3554   -8.4857    2.3684 C   0  0  0  0  0  0  0  0  0  0  0  0
   -1.5579   -9.2461    2.8925 C   0  0  0  0  0  0  0  0  0  0  0  0
   -0.2274   -9.9447    2.7331 C   0  0  0  0  0  0  0  0  0  0  0  0
    1.5420   -6.9786    3.0373 N   0  0  0  0  0  0  0  0  0  0  0  0
    1.7528   -6.0595    4.0147 N   0  0  0  0  0  0  0  0  0  0  0  0
    4.0183   -5.1420    1.0576 C   0  0  0  0  0  0  0  0  0  0  0  0
    3.8477   -6.9102    0.8584 Cl  0  0  0  0  0  0  0  0  0  0  0  0
    3.9961   -4.4973   -0.0750 N   0  0  0  0  0  0  0  0  0  0  0  0
    4.1776   -3.1309    0.0235 C   0  0  0  0  0  0  0  0  0  0  0  0
    2.4401   -3.1202   -3.7679 H   0  0  0  0  0  0  0  0  0  0  0  0
    1.8241   -2.2378   -2.3684 H   0  0  0  0  0  0  0  0  0  0  0  0
    2.4334   -3.8554   -2.1788 H   0  0  0  0  0  0  0  0  0  0  0  0
    4.9628   -4.3544   -2.5517 H   0  0  0  0  0  0  0  0  0  0  0  0
    6.0814   -3.0236   -2.8327 H   0  0  0  0  0  0  0  0  0  0  0  0
    4.9221   -3.5001   -4.0702 H   0  0  0  0  0  0  0  0  0  0  0  0
    4.1302   -1.1353   -4.2646 H   0  0  0  0  0  0  0  0  0  0  0  0
    5.1572   -0.5983   -2.9370 H   0  0  0  0  0  0  0  0  0  0  0  0
    3.4354   -0.2980   -2.8715 H   0  0  0  0  0  0  0  0  0  0  0  0
    4.6867   -0.2529    1.5206 H   0  0  0  0  0  0  0  0  0  0  0  0
    4.4634   -6.4975    3.2994 H   0  0  0  0  0  0  0  0  0  0  0  0
    4.9654   -5.1225    4.1961 H   0  0  0  0  0  0  0  0  0  0  0  0
   -0.3862   -8.2075    1.3147 H   0  0  0  0  0  0  0  0  0  0  0  0
   -1.8957   -9.0660    3.9125 H   0  0  0  0  0  0  0  0  0  0  0  0
   -2.3505   -9.5252    2.2053 H   0  0  0  0  0  0  0  0  0  0  0  0
   -0.1496  -10.6741    1.9307 H   0  0  0  0  0  0  0  0  0  0  0  0
    0.3368  -10.1812    3.6345 H   0  0  0  0  0  0  0  0  0  0  0  0
  1  2  1  0
  1 28  1  0
  1 29  1  0
  1 30  1  0
  2  3  1  0
  2  4  1  0
  2  5  1  0
  3 31  1  0
  3 32  1  0
  3 33  1  0
  4 34  1  0
  4 35  1  0
  4 36  1  0
  5 27  1  0
  5  6  1  0
  6  7  2  0
  7  8  1  0
  7 37  1  0
  8 27  2  0
  8  9  1  0
  9 10  2  0
  9 11  1  0
 11 12  1  0
 11 24  1  0
 12 13  1  0
 12 38  1  0
 12 39  1  0
 13 23  1  0
 13 14  2  0
 14 15  1  0
 15 16  2  0
 16 23  1  0
 16 17  1  0
 17 18  1  0
 18 19  1  0
 18 22  2  0
 19 21  1  0
 19 20  1  0
 19 40  1  0
 20 21  1  0
 20 41  1  0
 20 42  1  0
 21 43  1  0
 21 44  1  0
 22 23  1  0
 24 25  1  0
 24 26  2  0
 26 27  1  0
M  END
>  <i_m_ct_stereo_status>  (354) 
1

>  <s_m_source_file>  (354) 
/var/tmp/pbs.5076255.sched01/tmpebi1rvwe/120qlbjc4nh.sdf

>  <i_m_source_file_index>  (354) 
38

>  <i_lp_mmshare_version>  (354) 
48012

>  <i_f3d_flags>  (354) 
0

>  <s_epik_input>  (354) 
W0NIM11DKFtDSDNdKShbQ0gzXSluKG5bY0hdMSljKGMxMiluYyhDbCluKGMyPU8pW0NIMl1jKG5uMyluKGMzNCluYyhzNClbQ0hdNVtDSDJdW0NIMl01

>  <s_epik_cmdline>  (354) 
J2VwaWtfcHl0aG9uJywgJy1waHQnLCAnMi4wJywgJy1waCcsICc3LjAnLCAnLXRuJywgJzgnLCAnLW1hJywgJzIwMCcsICctaW1hZScsICc8aW5maWxlLm1hZT4nLCAnLW9tYWUnLCAnPG91dGZpbGUubWFlPic=

>  <r_lp_tautomer_probability>  (354) 
1

>  <r_epik_Ionization_Penalty>  (354) 
1.99752e-06

>  <r_epik_Ionization_Penalty_Charging>  (354) 
9.69532e-12

>  <r_epik_Ionization_Penalty_Neutral>  (354) 
1.99751e-06

>  <r_epik_State_Penalty>  (354) 
-0

>  <r_epik_Charging_Adjusted_Penalty>  (354) 
9.69532e-12

>  <i_epik_Tot_Q>  (354) 
0

>  <i_epik_Tot_abs_Q>  (354) 
0

>  <s_lp_Force_Field>  (354) 
OPLS3e

>  <r_lp_Energy>  (354) 
35.1755

>  <b_lp_Chiralities_Consistent>  (354) 
1

>  <s_lp_Variant>  (354) 
121:0-1

>  <s_i_glide_gridfile>  (354) 
pfpi4k_grid

>  <i_i_glide_lignum>  (354) 
38

>  <i_i_glide_rotatable_bonds>  (354) 
4

>  <r_i_docking_score>  (354) 
-2.62563

>  <r_i_glide_ligand_efficiency>  (354) 
-0.0972457

>  <r_i_glide_ligand_efficiency_sa>  (354) 
-0.291737

>  <r_i_glide_ligand_efficiency_ln>  (354) 
-0.611204

>  <r_i_glide_gscore>  (354) 
-2.62563

>  <r_i_glide_lipo>  (354) 
-0.564866

>  <r_i_glide_hbond>  (354) 
0

>  <r_i_glide_metal>  (354) 
-0

>  <r_i_glide_rewards>  (354) 
-0.705257

>  <r_i_glide_evdw>  (354) 
-32.7856

>  <r_i_glide_ecoul>  (354) 
-0.258446

>  <r_i_glide_erotb>  (354) 
0.359565

>  <r_i_glide_esite>  (354) 
-0.0370289

>  <r_i_glide_emodel>  (354) 
-38.2091

>  <r_i_glide_energy>  (354) 
-33.0441

>  <r_i_glide_einternal>  (354) 
1.45795

>  <r_i_glide_intrahb_reward>  (354) 
-0

>  <i_i_glide_confnum>  (354) 
1

>  <i_i_glide_posenum>  (354) 
2

>  <r_i_glide_eff_state_penalty>  (354) 
0

>  <ligand_id>  (354) 
121

>  <original_smiles>  (354) 
CC(C)(C)n1ncc2c(=O)n(Cc3nnc4sc(C5CC5)nn34)c(Cl)nc21

>  <smiles>  (354) 
[H]c1nn(C(C([H])([H])[H])(C([H])([H])[H])C([H])([H])[H])c2nc(Cl)n(C([H])([H])c3nnc4sc(C5([H])C([H])([H])C5([H])[H])nn34)c(=O)c12

$$$$
122:0:0
     RDKit          3D

 47 53  0  0  1  0  0  0  0  0999 V2000
    4.8936  -10.0973    3.9510 C   0  0  0  0  0  0  0  0  0  0  0  0
    3.7456   -9.1869    3.4897 C   0  0  1  0  0  0  0  0  0  0  0  0
    2.8770   -8.9111    4.5730 O   0  0  0  0  0  0  0  0  0  0  0  0
    2.3509   -7.6618    4.3521 C   0  0  0  0  0  0  0  0  0  0  0  0
    3.2155   -6.8940    3.6719 C   0  0  0  0  0  0  0  0  0  0  0  0
    3.1721   -5.5404    3.1486 C   0  0  0  0  0  0  0  0  0  0  0  0
    4.2523   -5.1195    2.4470 C   0  0  0  0  0  0  0  0  0  0  0  0
    5.3641   -5.9382    2.1199 N   0  0  0  0  0  0  0  0  0  0  0  0
    6.5254   -5.4293    1.4621 C   0  0  0  0  0  0  0  0  0  0  0  0
    7.6394   -6.2432    1.1496 C   0  0  0  0  0  0  0  0  0  0  0  0
    8.7113   -5.6369    0.4819 C   0  0  0  0  0  0  0  0  0  0  0  0
    8.7151   -4.3333    0.1553 N   0  0  0  0  0  0  0  0  0  0  0  0
    7.6365   -3.6295    0.4863 C   0  0  0  0  0  0  0  0  0  0  0  0
    7.6521   -1.9561    0.0774 Cl  0  0  0  0  0  0  0  0  0  0  0  0
    6.5599   -4.1154    1.1141 N   0  0  0  0  0  0  0  0  0  0  0  0
    5.2198   -7.3079    2.4399 C   0  0  0  0  0  0  0  0  0  0  0  0
    4.1834   -7.7802    3.1556 C   0  0  0  0  0  0  0  0  0  0  0  0
    0.8672   -7.7489    4.0191 C   0  0  1  0  0  0  0  0  0  0  0  0
   -0.0067   -6.6018    4.4854 C   0  0  0  0  0  0  0  0  0  0  0  0
   -1.2643   -7.0428    4.4712 C   0  0  0  0  0  0  0  0  0  0  0  0
   -1.2572   -8.4402    3.9094 C   0  0  1  0  0  0  0  0  0  0  0  0
   -0.8874   -8.2928    2.4164 C   0  0  0  0  0  0  0  0  0  0  0  0
    0.6676   -8.1994    2.5266 C   0  0  2  0  0  0  0  0  0  0  0  0
    1.2471   -9.6554    2.4795 C   0  0  2  0  0  0  0  0  0  0  0  0
    0.6369  -10.1837    3.7725 C   0  0  0  0  0  0  0  0  0  0  0  0
    0.6513  -11.3494    4.1601 O   0  0  0  0  0  0  0  0  0  0  0  0
    0.0640   -8.9765    4.5180 C   0  0  1  0  0  0  0  0  0  0  0  0
    2.8107   -9.8440    2.3916 C   0  0  1  0  0  0  0  0  0  0  0  0
    3.2137   -9.4594    1.0895 O   0  0  0  0  0  0  0  0  0  0  0  0
    5.5840  -10.3472    3.1455 H   0  0  0  0  0  0  0  0  0  0  0  0
    4.4974  -11.0306    4.3394 H   0  0  0  0  0  0  0  0  0  0  0  0
    5.4660   -9.6373    4.7539 H   0  0  0  0  0  0  0  0  0  0  0  0
    2.3550   -4.8733    3.3759 H   0  0  0  0  0  0  0  0  0  0  0  0
    4.3138   -4.1011    2.0921 H   0  0  0  0  0  0  0  0  0  0  0  0
    7.7284   -7.2884    1.3776 H   0  0  0  0  0  0  0  0  0  0  0  0
    9.5764   -6.2179    0.1954 H   0  0  0  0  0  0  0  0  0  0  0  0
    5.9262   -7.9906    2.0024 H   0  0  0  0  0  0  0  0  0  0  0  0
    0.3522   -5.6337    4.8064 H   0  0  0  0  0  0  0  0  0  0  0  0
   -2.1592   -6.5114    4.7545 H   0  0  0  0  0  0  0  0  0  0  0  0
   -2.1559   -9.0181    4.1277 H   0  0  0  0  0  0  0  0  0  0  0  0
   -1.2222   -9.1420    1.8189 H   0  0  0  0  0  0  0  0  0  0  0  0
   -1.3230   -7.3943    1.9883 H   0  0  0  0  0  0  0  0  0  0  0  0
    1.1133   -7.5490    1.7742 H   0  0  0  0  0  0  0  0  0  0  0  0
    0.7906  -10.2246    1.6800 H   0  0  0  0  0  0  0  0  0  0  0  0
    0.0440   -9.0967    5.6015 H   0  0  0  0  0  0  0  0  0  0  0  0
    2.9793  -10.9203    2.4362 H   0  0  0  0  0  0  0  0  0  0  0  0
    3.6724  -10.2082    0.7028 H   0  0  0  0  0  0  0  0  0  0  0  0
  2  1  1  1
  1 30  1  0
  1 31  1  0
  1 32  1  0
  2 17  1  0
  2 28  1  0
  2  3  1  0
  3  4  1  0
  4  5  2  0
  4 18  1  0
  5 17  1  0
  5  6  1  0
  6  7  2  0
  6 33  1  0
  7  8  1  0
  7 34  1  0
  8  9  1  0
  8 16  1  0
  9 15  1  0
  9 10  2  0
 10 11  1  0
 10 35  1  0
 11 12  2  0
 11 36  1  0
 12 13  1  0
 13 14  1  0
 13 15  2  0
 16 17  2  0
 16 37  1  0
 18 23  1  0
 18 27  1  0
 18 19  1  6
 19 20  2  0
 19 38  1  0
 20 21  1  0
 20 39  1  0
 21 27  1  0
 21 22  1  0
 21 40  1  6
 22 23  1  0
 22 41  1  0
 22 42  1  0
 23 24  1  0
 23 43  1  6
 24 25  1  0
 24 28  1  0
 24 44  1  6
 25 26  2  0
 25 27  1  0
 27 45  1  1
 28 29  1  0
 28 46  1  6
 29 47  1  0
M  END
>  <i_m_ct_stereo_status>  (355) 
1

>  <s_m_source_file>  (355) 
/var/tmp/pbs.5076255.sched01/tmpebi1rvwe/120qlbjc4nh.sdf

>  <i_m_source_file_index>  (355) 
39

>  <i_lp_mmshare_version>  (355) 
48012

>  <i_f3d_flags>  (355) 
0

>  <s_epik_input>  (355) 
Tz1DMVtDQEBIXTJbQ0BASF0oW0NIXT1bQ0hdMylbQ0gyXVtDQEBIXTRbQ0BIXTFbQ0BASF0oW09IXSlbQ0BAXShPNSkoW0NIM10pQyhDNj1DNVtDQEBdMjM0KT1bQ0hdTihbQ0hdPVtDSF02KWM3W2NIXVtjSF1uYyhDbCluNw==

>  <s_epik_cmdline>  (355) 
J2VwaWtfcHl0aG9uJywgJy1waHQnLCAnMi4wJywgJy1waCcsICc3LjAnLCAnLXRuJywgJzgnLCAnLW1hJywgJzIwMCcsICctaW1hZScsICc8aW5maWxlLm1hZT4nLCAnLW9tYWUnLCAnPG91dGZpbGUubWFlPic=

>  <r_lp_tautomer_probability>  (355) 
1

>  <r_epik_Ionization_Penalty>  (355) 
0.010203

>  <r_epik_Ionization_Penalty_Charging>  (355) 
0

>  <r_epik_Ionization_Penalty_Neutral>  (355) 
0.010203

>  <r_epik_State_Penalty>  (355) 
0.000709308

>  <r_epik_Charging_Adjusted_Penalty>  (355) 
0.000709308

>  <i_epik_Tot_Q>  (355) 
0

>  <i_epik_Tot_abs_Q>  (355) 
0

>  <s_lp_Force_Field>  (355) 
OPLS3e

>  <r_lp_Energy>  (355) 
103.771

>  <b_lp_Chiralities_Consistent>  (355) 
1

>  <s_lp_Variant>  (355) 
122:0-1

>  <s_i_glide_gridfile>  (355) 
pfpi4k_grid

>  <i_i_glide_lignum>  (355) 
39

>  <i_i_glide_rotatable_bonds>  (355) 
2

>  <r_i_docking_score>  (355) 
-3.29122

>  <r_i_glide_ligand_efficiency>  (355) 
-0.11349

>  <r_i_glide_ligand_efficiency_sa>  (355) 
-0.348679

>  <r_i_glide_ligand_efficiency_ln>  (355) 
-0.753607

>  <r_i_glide_gscore>  (355) 
-3.29122

>  <r_i_glide_lipo>  (355) 
-0.195185

>  <r_i_glide_hbond>  (355) 
-0.171677

>  <r_i_glide_metal>  (355) 
-0

>  <r_i_glide_rewards>  (355) 
-0.896907

>  <r_i_glide_evdw>  (355) 
-32.7571

>  <r_i_glide_ecoul>  (355) 
-3.22057

>  <r_i_glide_erotb>  (355) 
0.118285

>  <r_i_glide_esite>  (355) 
-0.0248001

>  <r_i_glide_emodel>  (355) 
-42.4111

>  <r_i_glide_energy>  (355) 
-35.9777

>  <r_i_glide_einternal>  (355) 
1.85451

>  <r_i_glide_intrahb_reward>  (355) 
-0

>  <i_i_glide_confnum>  (355) 
2

>  <i_i_glide_posenum>  (355) 
7

>  <r_i_glide_eff_state_penalty>  (355) 
0

>  <ligand_id>  (355) 
122

>  <original_smiles>  (355) 
CC12OC(=C3C=CN(c4ccnc(Cl)n4)C=C31)C13C=CC4CC1C(C(=O)C43)C2O

>  <smiles>  (355) 
[H]OC1([H])C2([H])C(=O)C3([H])C4([H])C([H])=C([H])C3(C3=C5C([H])=C([H])N(c6nc(Cl)nc([H])c6[H])C([H])=C5C1(C([H])([H])[H])O3)C2([H])C4([H])[H]

$$$$
122:0:1
     RDKit          3D

 47 53  0  0  1  0  0  0  0  0999 V2000
    6.5647   -8.0473    3.1396 C   0  0  0  0  0  0  0  0  0  0  0  0
    5.0455   -8.1049    2.9562 C   0  0  1  0  0  0  0  0  0  0  0  0
    4.4096   -8.1129    4.2213 O   0  0  0  0  0  0  0  0  0  0  0  0
    3.1929   -7.4944    4.0571 C   0  0  0  0  0  0  0  0  0  0  0  0
    3.2564   -6.5852    3.0707 C   0  0  0  0  0  0  0  0  0  0  0  0
    2.2905   -5.6858    2.4777 C   0  0  0  0  0  0  0  0  0  0  0  0
    2.7256   -4.9106    1.4603 C   0  0  0  0  0  0  0  0  0  0  0  0
    4.0111   -4.9950    0.8803 N   0  0  0  0  0  0  0  0  0  0  0  0
    4.4232   -4.1171   -0.1622 C   0  0  0  0  0  0  0  0  0  0  0  0
    3.5031   -3.4552   -1.0058 C   0  0  0  0  0  0  0  0  0  0  0  0
    4.0234   -2.6090   -1.9978 C   0  0  0  0  0  0  0  0  0  0  0  0
    5.3486   -2.4144   -2.1347 N   0  0  0  0  0  0  0  0  0  0  0  0
    6.1425   -3.0756   -1.2981 C   0  0  0  0  0  0  0  0  0  0  0  0
    7.8332   -2.8193   -1.4733 Cl  0  0  0  0  0  0  0  0  0  0  0  0
    5.7486   -3.9015   -0.3290 N   0  0  0  0  0  0  0  0  0  0  0  0
    4.8302   -6.0434    1.3503 C   0  0  0  0  0  0  0  0  0  0  0  0
    4.4573   -6.8418    2.3727 C   0  0  0  0  0  0  0  0  0  0  0  0
    2.0468   -8.4882    4.2052 C   0  0  1  0  0  0  0  0  0  0  0  0
    0.7559   -7.9674    4.8093 C   0  0  0  0  0  0  0  0  0  0  0  0
    0.0602   -9.0279    5.2128 C   0  0  0  0  0  0  0  0  0  0  0  0
    0.8246  -10.2652    4.8108 C   0  0  1  0  0  0  0  0  0  0  0  0
    0.7405  -10.3253    3.2663 C   0  0  0  0  0  0  0  0  0  0  0  0
    1.8932   -9.3387    2.8906 C   0  0  2  0  0  0  0  0  0  0  0  0
    3.2271  -10.1587    2.8054 C   0  0  2  0  0  0  0  0  0  0  0  0
    3.3237  -10.5863    4.2673 C   0  0  0  0  0  0  0  0  0  0  0  0
    4.1401  -11.3688    4.7488 O   0  0  0  0  0  0  0  0  0  0  0  0
    2.2780   -9.7758    5.0365 C   0  0  1  0  0  0  0  0  0  0  0  0
    4.5279   -9.4388    2.2660 C   0  0  1  0  0  0  0  0  0  0  0  0
    4.3624   -9.2800    0.8703 O   0  0  0  0  0  0  0  0  0  0  0  0
    7.0963   -8.0495    2.1888 H   0  0  0  0  0  0  0  0  0  0  0  0
    6.9063   -8.9031    3.7131 H   0  0  0  0  0  0  0  0  0  0  0  0
    6.8582   -7.1546    3.6882 H   0  0  0  0  0  0  0  0  0  0  0  0
    1.3033   -5.5651    2.8952 H   0  0  0  0  0  0  0  0  0  0  0  0
    2.0972   -4.1408    1.0484 H   0  0  0  0  0  0  0  0  0  0  0  0
    2.4393   -3.5936   -0.9541 H   0  0  0  0  0  0  0  0  0  0  0  0
    3.3788   -2.0851   -2.6939 H   0  0  0  0  0  0  0  0  0  0  0  0
    5.7218   -6.2257    0.7704 H   0  0  0  0  0  0  0  0  0  0  0  0
    0.4842   -6.9256    4.9122 H   0  0  0  0  0  0  0  0  0  0  0  0
   -0.9139   -9.0494    5.6816 H   0  0  0  0  0  0  0  0  0  0  0  0
    0.5345  -11.1687    5.3495 H   0  0  0  0  0  0  0  0  0  0  0  0
    0.9007  -11.3316    2.8782 H   0  0  0  0  0  0  0  0  0  0  0  0
   -0.2279   -9.9814    2.9074 H   0  0  0  0  0  0  0  0  0  0  0  0
    1.6898   -8.7678    1.9840 H   0  0  0  0  0  0  0  0  0  0  0  0
    3.0712  -11.0683    2.2246 H   0  0  0  0  0  0  0  0  0  0  0  0
    2.5350   -9.6083    6.0808 H   0  0  0  0  0  0  0  0  0  0  0  0
    5.3304  -10.1701    2.3603 H   0  0  0  0  0  0  0  0  0  0  0  0
    4.2144  -10.1487    0.5053 H   0  0  0  0  0  0  0  0  0  0  0  0
  2  1  1  1
  1 30  1  0
  1 31  1  0
  1 32  1  0
  2 17  1  0
  2 28  1  0
  2  3  1  0
  3  4  1  0
  4  5  2  0
  4 18  1  0
  5 17  1  0
  5  6  1  0
  6  7  2  0
  6 33  1  0
  7  8  1  0
  7 34  1  0
  8  9  1  0
  8 16  1  0
  9 15  1  0
  9 10  2  0
 10 11  1  0
 10 35  1  0
 11 12  2  0
 11 36  1  0
 12 13  1  0
 13 14  1  0
 13 15  2  0
 16 17  2  0
 16 37  1  0
 18 23  1  0
 18 27  1  0
 18 19  1  1
 19 20  2  0
 19 38  1  0
 20 21  1  0
 20 39  1  0
 21 27  1  0
 21 22  1  0
 21 40  1  1
 22 23  1  0
 22 41  1  0
 22 42  1  0
 23 24  1  0
 23 43  1  6
 24 25  1  0
 24 28  1  0
 24 44  1  6
 25 26  2  0
 25 27  1  0
 27 45  1  1
 28 29  1  0
 28 46  1  6
 29 47  1  0
M  END
>  <i_m_ct_stereo_status>  (356) 
1

>  <s_m_source_file>  (356) 
/var/tmp/pbs.5076255.sched01/tmpebi1rvwe/120qlbjc4nh.sdf

>  <i_m_source_file_index>  (356) 
39

>  <i_lp_mmshare_version>  (356) 
48012

>  <i_f3d_flags>  (356) 
0

>  <s_epik_input>  (356) 
Tz1DMVtDQEBIXTJbQ0BASF0oW0NIXT1bQ0hdMylbQ0gyXVtDQEBIXTRbQ0BIXTFbQ0BASF0oW09IXSlbQ0BAXShPNSkoW0NIM10pQyhDNj1DNVtDQEBdMjM0KT1bQ0hdTihbQ0hdPVtDSF02KWM3W2NIXVtjSF1uYyhDbCluNw==

>  <s_epik_cmdline>  (356) 
J2VwaWtfcHl0aG9uJywgJy1waHQnLCAnMi4wJywgJy1waCcsICc3LjAnLCAnLXRuJywgJzgnLCAnLW1hJywgJzIwMCcsICctaW1hZScsICc8aW5maWxlLm1hZT4nLCAnLW9tYWUnLCAnPG91dGZpbGUubWFlPic=

>  <r_lp_tautomer_probability>  (356) 
1

>  <r_epik_Ionization_Penalty>  (356) 
0.010203

>  <r_epik_Ionization_Penalty_Charging>  (356) 
0

>  <r_epik_Ionization_Penalty_Neutral>  (356) 
0.010203

>  <r_epik_State_Penalty>  (356) 
0.000709308

>  <r_epik_Charging_Adjusted_Penalty>  (356) 
0.000709308

>  <i_epik_Tot_Q>  (356) 
0

>  <i_epik_Tot_abs_Q>  (356) 
0

>  <s_lp_Force_Field>  (356) 
OPLS3e

>  <r_lp_Energy>  (356) 
103.771

>  <b_lp_Chiralities_Consistent>  (356) 
1

>  <s_lp_Variant>  (356) 
122:0-1

>  <s_i_glide_gridfile>  (356) 
pfpi4k_grid

>  <i_i_glide_lignum>  (356) 
39

>  <i_i_glide_rotatable_bonds>  (356) 
2

>  <r_i_docking_score>  (356) 
-3.2541

>  <r_i_glide_ligand_efficiency>  (356) 
-0.11221

>  <r_i_glide_ligand_efficiency_sa>  (356) 
-0.344746

>  <r_i_glide_ligand_efficiency_ln>  (356) 
-0.745106

>  <r_i_glide_gscore>  (356) 
-3.2541

>  <r_i_glide_lipo>  (356) 
-0.203771

>  <r_i_glide_hbond>  (356) 
-0.16

>  <r_i_glide_metal>  (356) 
-0

>  <r_i_glide_rewards>  (356) 
-0.75539

>  <r_i_glide_evdw>  (356) 
-32.2686

>  <r_i_glide_ecoul>  (356) 
-4.17815

>  <r_i_glide_erotb>  (356) 
0.118285

>  <r_i_glide_esite>  (356) 
-0.0130706

>  <r_i_glide_emodel>  (356) 
-43.3654

>  <r_i_glide_energy>  (356) 
-36.4468

>  <r_i_glide_einternal>  (356) 
0.818994

>  <r_i_glide_intrahb_reward>  (356) 
-0

>  <i_i_glide_confnum>  (356) 
2

>  <i_i_glide_posenum>  (356) 
15

>  <r_i_glide_eff_state_penalty>  (356) 
0

>  <ligand_id>  (356) 
122

>  <original_smiles>  (356) 
CC12OC(=C3C=CN(c4ccnc(Cl)n4)C=C31)C13C=CC4CC1C(C(=O)C43)C2O

>  <smiles>  (356) 
[H]OC1([H])C2([H])C(=O)C3([H])C4([H])C([H])=C([H])C3(C3=C5C([H])=C([H])N(c6nc(Cl)nc([H])c6[H])C([H])=C5C1(C([H])([H])[H])O3)C2([H])C4([H])[H]

$$$$
122:0:2
     RDKit          3D

 47 53  0  0  1  0  0  0  0  0999 V2000
    6.5298   -8.0688    3.3370 C   0  0  0  0  0  0  0  0  0  0  0  0
    5.0339   -8.1090    3.0001 C   0  0  1  0  0  0  0  0  0  0  0  0
    4.2741   -8.0906    4.1951 O   0  0  0  0  0  0  0  0  0  0  0  0
    3.0895   -7.4567    3.9041 C   0  0  0  0  0  0  0  0  0  0  0  0
    3.2622   -6.5563    2.9221 C   0  0  0  0  0  0  0  0  0  0  0  0
    2.3720   -5.6549    2.2165 C   0  0  0  0  0  0  0  0  0  0  0  0
    2.9155   -4.9033    1.2316 C   0  0  0  0  0  0  0  0  0  0  0  0
    4.2586   -5.0041    0.8006 N   0  0  0  0  0  0  0  0  0  0  0  0
    4.8158   -4.1194   -0.1659 C   0  0  0  0  0  0  0  0  0  0  0  0
    6.2111   -3.9279   -0.2845 C   0  0  0  0  0  0  0  0  0  0  0  0
    6.6541   -3.0561   -1.2938 C   0  0  0  0  0  0  0  0  0  0  0  0
    5.7978   -2.4091   -2.0991 N   0  0  0  0  0  0  0  0  0  0  0  0
    4.4961   -2.6426   -1.9239 C   0  0  0  0  0  0  0  0  0  0  0  0
    3.4180   -1.8323   -3.0002 Cl  0  0  0  0  0  0  0  0  0  0  0  0
    3.9790   -3.4532   -0.9985 N   0  0  0  0  0  0  0  0  0  0  0  0
    5.0011   -6.0706    1.3543 C   0  0  0  0  0  0  0  0  0  0  0  0
    4.5197   -6.8458    2.3468 C   0  0  0  0  0  0  0  0  0  0  0  0
    1.9214   -8.4370    3.9462 C   0  0  1  0  0  0  0  0  0  0  0  0
    0.5832   -7.8929    4.4082 C   0  0  0  0  0  0  0  0  0  0  0  0
   -0.1658   -8.9400    4.7493 C   0  0  0  0  0  0  0  0  0  0  0  0
    0.6193  -10.1904    4.4409 C   0  0  1  0  0  0  0  0  0  0  0  0
    0.6917  -10.2667    2.8965 C   0  0  0  0  0  0  0  0  0  0  0  0
    1.8914   -9.3006    2.6320 C   0  0  2  0  0  0  0  0  0  0  0  0
    3.2140  -10.1399    2.6927 C   0  0  2  0  0  0  0  0  0  0  0  0
    3.1557  -10.5513    4.1598 C   0  0  0  0  0  0  0  0  0  0  0  0
    3.9101  -11.3381    4.7288 O   0  0  0  0  0  0  0  0  0  0  0  0
    2.0501   -9.7186    4.8088 C   0  0  1  0  0  0  0  0  0  0  0  0
    4.5709   -9.4463    2.2803 C   0  0  1  0  0  0  0  0  0  0  0  0
    4.5263   -9.2970    0.8755 O   0  0  0  0  0  0  0  0  0  0  0  0
    7.1569   -8.0904    2.4463 H   0  0  0  0  0  0  0  0  0  0  0  0
    6.8002   -8.9215    3.9508 H   0  0  0  0  0  0  0  0  0  0  0  0
    6.7816   -7.1745    3.9045 H   0  0  0  0  0  0  0  0  0  0  0  0
    1.3512   -5.5204    2.5344 H   0  0  0  0  0  0  0  0  0  0  0  0
    2.3402   -4.1478    0.7200 H   0  0  0  0  0  0  0  0  0  0  0  0
    6.9234   -4.4072    0.3603 H   0  0  0  0  0  0  0  0  0  0  0  0
    7.7063   -2.8525   -1.4507 H   0  0  0  0  0  0  0  0  0  0  0  0
    5.9338   -6.2946    0.8636 H   0  0  0  0  0  0  0  0  0  0  0  0
    0.3215   -6.8449    4.4784 H   0  0  0  0  0  0  0  0  0  0  0  0
   -1.1775   -8.9496    5.1279 H   0  0  0  0  0  0  0  0  0  0  0  0
    0.2637  -11.0842    4.9589 H   0  0  0  0  0  0  0  0  0  0  0  0
    0.8739  -11.2791    2.5362 H   0  0  0  0  0  0  0  0  0  0  0  0
   -0.2284   -9.9136    2.4352 H   0  0  0  0  0  0  0  0  0  0  0  0
    1.7895   -8.7387    1.7033 H   0  0  0  0  0  0  0  0  0  0  0  0
    3.1044  -11.0528    2.1080 H   0  0  0  0  0  0  0  0  0  0  0  0
    2.2029   -9.5428    5.8730 H   0  0  0  0  0  0  0  0  0  0  0  0
    5.3508  -10.1866    2.4563 H   0  0  0  0  0  0  0  0  0  0  0  0
    4.3142  -10.1515    0.5110 H   0  0  0  0  0  0  0  0  0  0  0  0
  2  1  1  1
  1 30  1  0
  1 31  1  0
  1 32  1  0
  2 17  1  0
  2 28  1  0
  2  3  1  0
  3  4  1  0
  4  5  2  0
  4 18  1  0
  5 17  1  0
  5  6  1  0
  6  7  2  0
  6 33  1  0
  7  8  1  0
  7 34  1  0
  8  9  1  0
  8 16  1  0
  9 15  1  0
  9 10  2  0
 10 11  1  0
 10 35  1  0
 11 12  2  0
 11 36  1  0
 12 13  1  0
 13 14  1  0
 13 15  2  0
 16 17  2  0
 16 37  1  0
 18 23  1  0
 18 27  1  0
 18 19  1  1
 19 20  2  0
 19 38  1  0
 20 21  1  0
 20 39  1  0
 21 27  1  0
 21 22  1  0
 21 40  1  1
 22 23  1  0
 22 41  1  0
 22 42  1  0
 23 24  1  0
 23 43  1  6
 24 25  1  0
 24 28  1  0
 24 44  1  6
 25 26  2  0
 25 27  1  0
 27 45  1  1
 28 29  1  0
 28 46  1  6
 29 47  1  0
M  END
>  <i_m_ct_stereo_status>  (357) 
1

>  <s_m_source_file>  (357) 
/var/tmp/pbs.5076255.sched01/tmpebi1rvwe/120qlbjc4nh.sdf

>  <i_m_source_file_index>  (357) 
39

>  <i_lp_mmshare_version>  (357) 
48012

>  <i_f3d_flags>  (357) 
0

>  <s_epik_input>  (357) 
Tz1DMVtDQEBIXTJbQ0BASF0oW0NIXT1bQ0hdMylbQ0gyXVtDQEBIXTRbQ0BIXTFbQ0BASF0oW09IXSlbQ0BAXShPNSkoW0NIM10pQyhDNj1DNVtDQEBdMjM0KT1bQ0hdTihbQ0hdPVtDSF02KWM3W2NIXVtjSF1uYyhDbCluNw==

>  <s_epik_cmdline>  (357) 
J2VwaWtfcHl0aG9uJywgJy1waHQnLCAnMi4wJywgJy1waCcsICc3LjAnLCAnLXRuJywgJzgnLCAnLW1hJywgJzIwMCcsICctaW1hZScsICc8aW5maWxlLm1hZT4nLCAnLW9tYWUnLCAnPG91dGZpbGUubWFlPic=

>  <r_lp_tautomer_probability>  (357) 
1

>  <r_epik_Ionization_Penalty>  (357) 
0.010203

>  <r_epik_Ionization_Penalty_Charging>  (357) 
0

>  <r_epik_Ionization_Penalty_Neutral>  (357) 
0.010203

>  <r_epik_State_Penalty>  (357) 
0.000709308

>  <r_epik_Charging_Adjusted_Penalty>  (357) 
0.000709308

>  <i_epik_Tot_Q>  (357) 
0

>  <i_epik_Tot_abs_Q>  (357) 
0

>  <s_lp_Force_Field>  (357) 
OPLS3e

>  <r_lp_Energy>  (357) 
103.771

>  <b_lp_Chiralities_Consistent>  (357) 
1

>  <s_lp_Variant>  (357) 
122:0-1

>  <s_i_glide_gridfile>  (357) 
pfpi4k_grid

>  <i_i_glide_lignum>  (357) 
39

>  <i_i_glide_rotatable_bonds>  (357) 
2

>  <r_i_docking_score>  (357) 
-3.16097

>  <r_i_glide_ligand_efficiency>  (357) 
-0.108999

>  <r_i_glide_ligand_efficiency_sa>  (357) 
-0.334879

>  <r_i_glide_ligand_efficiency_ln>  (357) 
-0.723781

>  <r_i_glide_gscore>  (357) 
-3.16097

>  <r_i_glide_lipo>  (357) 
-0.382618

>  <r_i_glide_hbond>  (357) 
-0.16

>  <r_i_glide_metal>  (357) 
-0

>  <r_i_glide_rewards>  (357) 
-0.679006

>  <r_i_glide_evdw>  (357) 
-33.3543

>  <r_i_glide_ecoul>  (357) 
-2.48407

>  <r_i_glide_erotb>  (357) 
0.118285

>  <r_i_glide_esite>  (357) 
-0.0173006

>  <r_i_glide_emodel>  (357) 
-42.7309

>  <r_i_glide_energy>  (357) 
-35.8384

>  <r_i_glide_einternal>  (357) 
0.421334

>  <r_i_glide_intrahb_reward>  (357) 
-0

>  <i_i_glide_confnum>  (357) 
2

>  <i_i_glide_posenum>  (357) 
1

>  <r_i_glide_eff_state_penalty>  (357) 
0

>  <ligand_id>  (357) 
122

>  <original_smiles>  (357) 
CC12OC(=C3C=CN(c4ccnc(Cl)n4)C=C31)C13C=CC4CC1C(C(=O)C43)C2O

>  <smiles>  (357) 
[H]OC1([H])C2([H])C(=O)C3([H])C4([H])C([H])=C([H])C3(C3=C5C([H])=C([H])N(c6nc(Cl)nc([H])c6[H])C([H])=C5C1(C([H])([H])[H])O3)C2([H])C4([H])[H]

$$$$
123:0:0
     RDKit          3D

 26 27  0  0  1  0  0  0  0  0999 V2000
    3.3573    0.1816   -5.6741 C   0  0  0  0  0  0  0  0  0  0  0  0
    3.7849   -0.7899   -4.5794 C   0  0  0  0  0  0  0  0  0  0  0  0
    3.4924   -0.1890   -3.1862 C   0  0  0  0  0  0  0  0  0  0  0  0
    3.8221   -1.1484   -2.0824 C   0  0  0  0  0  0  0  0  0  0  0  0
    3.0922   -2.5262   -2.0977 C   0  0  0  0  0  0  0  0  0  0  0  0
    3.2756   -3.4959   -0.5400 S   0  0  0  0  0  0  0  0  0  0  0  0
    5.0022   -3.7758   -0.2949 C   0  0  0  0  0  0  0  0  0  0  0  0
    5.5536   -4.4164    0.7222 N   0  0  0  0  0  0  0  0  0  0  0  0
    6.8910   -4.2393    0.5835 N   0  0  0  0  0  0  0  0  0  0  0  0
    7.8273   -4.7929    1.3475 C   0  0  0  0  0  0  0  0  0  0  0  0
    9.0204   -4.3389    0.8959 N   0  0  0  0  0  0  0  0  0  0  0  0
    8.7335   -3.4962   -0.2054 N   0  0  0  0  0  0  0  0  0  0  0  0
    7.4177   -3.5403   -0.3838 C   0  0  0  0  0  0  0  0  0  0  0  0
    6.1730   -3.1187   -1.4476 S   0  0  0  0  0  0  0  0  0  0  0  0
    3.4993   -0.2546   -6.6633 H   0  0  0  0  0  0  0  0  0  0  0  0
    3.9232    1.1092   -5.6004 H   0  0  0  0  0  0  0  0  0  0  0  0
    2.2992    0.4165   -5.5508 H   0  0  0  0  0  0  0  0  0  0  0  0
    3.2352   -1.7212   -4.7114 H   0  0  0  0  0  0  0  0  0  0  0  0
    4.8403   -1.0474   -4.7063 H   0  0  0  0  0  0  0  0  0  0  0  0
    4.1575    0.6743   -3.0523 H   0  0  0  0  0  0  0  0  0  0  0  0
    2.4640    0.1421   -3.0846 H   0  0  0  0  0  0  0  0  0  0  0  0
    4.8977   -1.1990   -2.3414 H   0  0  0  0  0  0  0  0  0  0  0  0
    3.7821   -0.7120   -1.0904 H   0  0  0  0  0  0  0  0  0  0  0  0
    2.0381   -2.3471   -2.3046 H   0  0  0  0  0  0  0  0  0  0  0  0
    3.4337   -3.1444   -2.9334 H   0  0  0  0  0  0  0  0  0  0  0  0
    7.6845   -5.4891    2.1839 H   0  0  0  0  0  0  0  0  0  0  0  0
  1  2  1  0
  1 15  1  0
  1 16  1  0
  1 17  1  0
  2  3  1  0
  2 18  1  0
  2 19  1  0
  3  4  1  0
  3 20  1  0
  3 21  1  0
  4  5  1  0
  4 22  1  0
  4 23  1  0
  5  6  1  0
  5 24  1  0
  5 25  1  0
  6  7  1  0
  7 14  1  0
  7  8  2  0
  8  9  1  0
  9 13  1  0
  9 10  1  0
 10 11  2  0
 10 26  1  0
 11 12  1  0
 12 13  2  0
 13 14  1  0
M  END
>  <i_m_ct_stereo_status>  (358) 
1

>  <s_m_source_file>  (358) 
/var/tmp/pbs.5076255.sched01/tmpebi1rvwe/120qlbjc4nh.sdf

>  <i_m_source_file_index>  (358) 
40

>  <i_lp_mmshare_version>  (358) 
48012

>  <i_f3d_flags>  (358) 
0

>  <s_epik_input>  (358) 
W0NIM11bQ0gyXVtDSDJdW0NIMl1bQ0gyXVNjKG4xKXNjKG4xMilubltjSF0y

>  <s_epik_cmdline>  (358) 
J2VwaWtfcHl0aG9uJywgJy1waHQnLCAnMi4wJywgJy1waCcsICc3LjAnLCAnLXRuJywgJzgnLCAnLW1hJywgJzIwMCcsICctaW1hZScsICc8aW5maWxlLm1hZT4nLCAnLW9tYWUnLCAnPG91dGZpbGUubWFlPic=

>  <r_lp_tautomer_probability>  (358) 
1

>  <r_epik_Ionization_Penalty>  (358) 
2.36293e-07

>  <r_epik_Ionization_Penalty_Charging>  (358) 
0

>  <r_epik_Ionization_Penalty_Neutral>  (358) 
2.36293e-07

>  <r_epik_State_Penalty>  (358) 
-0

>  <r_epik_Charging_Adjusted_Penalty>  (358) 
0

>  <i_epik_Tot_Q>  (358) 
0

>  <i_epik_Tot_abs_Q>  (358) 
0

>  <s_lp_Force_Field>  (358) 
OPLS3e

>  <r_lp_Energy>  (358) 
4.42071

>  <b_lp_Chiralities_Consistent>  (358) 
1

>  <s_lp_Variant>  (358) 
123:0-1

>  <s_i_glide_gridfile>  (358) 
pfpi4k_grid

>  <i_i_glide_lignum>  (358) 
40

>  <i_i_glide_rotatable_bonds>  (358) 
5

>  <r_i_docking_score>  (358) 
-3.38757

>  <r_i_glide_ligand_efficiency>  (358) 
-0.24197

>  <r_i_glide_ligand_efficiency_sa>  (358) 
-0.583181

>  <r_i_glide_ligand_efficiency_ln>  (358) 
-0.930893

>  <r_i_glide_gscore>  (358) 
-3.38757

>  <r_i_glide_lipo>  (358) 
-0.480385

>  <r_i_glide_hbond>  (358) 
0

>  <r_i_glide_metal>  (358) 
-0

>  <r_i_glide_rewards>  (358) 
-2.45766

>  <r_i_glide_evdw>  (358) 
-25.5209

>  <r_i_glide_ecoul>  (358) 
-0.941243

>  <r_i_glide_erotb>  (358) 
0.980353

>  <r_i_glide_esite>  (358) 
-0.0458011

>  <r_i_glide_emodel>  (358) 
-26.2545

>  <r_i_glide_energy>  (358) 
-26.4622

>  <r_i_glide_einternal>  (358) 
4.18483

>  <r_i_glide_intrahb_reward>  (358) 
-0

>  <i_i_glide_confnum>  (358) 
3

>  <i_i_glide_posenum>  (358) 
18

>  <r_i_glide_eff_state_penalty>  (358) 
0

>  <ligand_id>  (358) 
123

>  <original_smiles>  (358) 
CCCCCSc1nn2cnnc2s1

>  <smiles>  (358) 
[H]c1nnc2sc(SC([H])([H])C([H])([H])C([H])([H])C([H])([H])C([H])([H])[H])nn12

$$$$
123:0:1
     RDKit          3D

 26 27  0  0  1  0  0  0  0  0999 V2000
    3.3862    0.4534   -5.6870 C   0  0  0  0  0  0  0  0  0  0  0  0
    2.4737   -0.1946   -4.6521 C   0  0  0  0  0  0  0  0  0  0  0  0
    3.0329   -1.4679   -3.9971 C   0  0  0  0  0  0  0  0  0  0  0  0
    4.2403   -1.2170   -3.0951 C   0  0  0  0  0  0  0  0  0  0  0  0
    4.8581   -2.5040   -2.5553 C   0  0  0  0  0  0  0  0  0  0  0  0
    3.7507   -3.1882   -1.2787 S   0  0  0  0  0  0  0  0  0  0  0  0
    4.0896   -2.2720    0.1833 C   0  0  0  0  0  0  0  0  0  0  0  0
    3.1508   -1.9530    1.0725 N   0  0  0  0  0  0  0  0  0  0  0  0
    3.8085   -1.2253    1.9749 N   0  0  0  0  0  0  0  0  0  0  0  0
    3.2338   -0.6684    3.0092 C   0  0  0  0  0  0  0  0  0  0  0  0
    4.1781   -0.0377    3.7201 N   0  0  0  0  0  0  0  0  0  0  0  0
    5.4115   -0.2615    3.0294 N   0  0  0  0  0  0  0  0  0  0  0  0
    5.1456   -0.9695    1.9715 C   0  0  0  0  0  0  0  0  0  0  0  0
    5.7755   -1.7442    0.5395 S   0  0  0  0  0  0  0  0  0  0  0  0
    2.9035    1.3381   -6.0973 H   0  0  0  0  0  0  0  0  0  0  0  0
    3.5967   -0.2407   -6.5004 H   0  0  0  0  0  0  0  0  0  0  0  0
    4.3185    0.7862   -5.2354 H   0  0  0  0  0  0  0  0  0  0  0  0
    2.2349    0.5367   -3.8874 H   0  0  0  0  0  0  0  0  0  0  0  0
    1.5219   -0.4337   -5.1235 H   0  0  0  0  0  0  0  0  0  0  0  0
    2.2457   -1.9337   -3.4071 H   0  0  0  0  0  0  0  0  0  0  0  0
    3.3020   -2.2016   -4.7529 H   0  0  0  0  0  0  0  0  0  0  0  0
    4.9823   -0.7147   -3.6903 H   0  0  0  0  0  0  0  0  0  0  0  0
    3.9927   -0.5154   -2.2969 H   0  0  0  0  0  0  0  0  0  0  0  0
    5.0700   -3.2132   -3.3613 H   0  0  0  0  0  0  0  0  0  0  0  0
    5.8454   -2.2703   -2.1644 H   0  0  0  0  0  0  0  0  0  0  0  0
    2.1727   -0.7441    3.2430 H   0  0  0  0  0  0  0  0  0  0  0  0
  1  2  1  0
  1 15  1  0
  1 16  1  0
  1 17  1  0
  2  3  1  0
  2 18  1  0
  2 19  1  0
  3  4  1  0
  3 20  1  0
  3 21  1  0
  4  5  1  0
  4 22  1  0
  4 23  1  0
  5  6  1  0
  5 24  1  0
  5 25  1  0
  6  7  1  0
  7 14  1  0
  7  8  2  0
  8  9  1  0
  9 13  1  0
  9 10  1  0
 10 11  2  0
 10 26  1  0
 11 12  1  0
 12 13  2  0
 13 14  1  0
M  END
>  <i_m_ct_stereo_status>  (359) 
1

>  <s_m_source_file>  (359) 
/var/tmp/pbs.5076255.sched01/tmpebi1rvwe/120qlbjc4nh.sdf

>  <i_m_source_file_index>  (359) 
40

>  <i_lp_mmshare_version>  (359) 
48012

>  <i_f3d_flags>  (359) 
0

>  <s_epik_input>  (359) 
W0NIM11bQ0gyXVtDSDJdW0NIMl1bQ0gyXVNjKG4xKXNjKG4xMilubltjSF0y

>  <s_epik_cmdline>  (359) 
J2VwaWtfcHl0aG9uJywgJy1waHQnLCAnMi4wJywgJy1waCcsICc3LjAnLCAnLXRuJywgJzgnLCAnLW1hJywgJzIwMCcsICctaW1hZScsICc8aW5maWxlLm1hZT4nLCAnLW9tYWUnLCAnPG91dGZpbGUubWFlPic=

>  <r_lp_tautomer_probability>  (359) 
1

>  <r_epik_Ionization_Penalty>  (359) 
2.36293e-07

>  <r_epik_Ionization_Penalty_Charging>  (359) 
0

>  <r_epik_Ionization_Penalty_Neutral>  (359) 
2.36293e-07

>  <r_epik_State_Penalty>  (359) 
-0

>  <r_epik_Charging_Adjusted_Penalty>  (359) 
0

>  <i_epik_Tot_Q>  (359) 
0

>  <i_epik_Tot_abs_Q>  (359) 
0

>  <s_lp_Force_Field>  (359) 
OPLS3e

>  <r_lp_Energy>  (359) 
4.42071

>  <b_lp_Chiralities_Consistent>  (359) 
1

>  <s_lp_Variant>  (359) 
123:0-1

>  <s_i_glide_gridfile>  (359) 
pfpi4k_grid

>  <i_i_glide_lignum>  (359) 
40

>  <i_i_glide_rotatable_bonds>  (359) 
5

>  <r_i_docking_score>  (359) 
-2.76328

>  <r_i_glide_ligand_efficiency>  (359) 
-0.197377

>  <r_i_glide_ligand_efficiency_sa>  (359) 
-0.475708

>  <r_i_glide_ligand_efficiency_ln>  (359) 
-0.759341

>  <r_i_glide_gscore>  (359) 
-2.76328

>  <r_i_glide_lipo>  (359) 
-0.662759

>  <r_i_glide_hbond>  (359) 
0

>  <r_i_glide_metal>  (359) 
-0

>  <r_i_glide_rewards>  (359) 
-2.06746

>  <r_i_glide_evdw>  (359) 
-22.6005

>  <r_i_glide_ecoul>  (359) 
0.812702

>  <r_i_glide_erotb>  (359) 
0.980353

>  <r_i_glide_esite>  (359) 
-0.00529168

>  <r_i_glide_emodel>  (359) 
-24.9084

>  <r_i_glide_energy>  (359) 
-21.7878

>  <r_i_glide_einternal>  (359) 
2.93843

>  <r_i_glide_intrahb_reward>  (359) 
-0

>  <i_i_glide_confnum>  (359) 
4

>  <i_i_glide_posenum>  (359) 
14

>  <r_i_glide_eff_state_penalty>  (359) 
0

>  <ligand_id>  (359) 
123

>  <original_smiles>  (359) 
CCCCCSc1nn2cnnc2s1

>  <smiles>  (359) 
[H]c1nnc2sc(SC([H])([H])C([H])([H])C([H])([H])C([H])([H])C([H])([H])[H])nn12

$$$$
123:0:2
     RDKit          3D

 26 27  0  0  1  0  0  0  0  0999 V2000
    2.6892    0.5947   -5.1829 C   0  0  0  0  0  0  0  0  0  0  0  0
    3.7127    0.1092   -4.1540 C   0  0  0  0  0  0  0  0  0  0  0  0
    3.2194   -1.0691   -3.3011 C   0  0  0  0  0  0  0  0  0  0  0  0
    4.1574   -1.4318   -2.1336 C   0  0  0  0  0  0  0  0  0  0  0  0
    3.7058   -2.7363   -1.4389 C   0  0  0  0  0  0  0  0  0  0  0  0
    4.4575   -3.0536    0.1846 S   0  0  0  0  0  0  0  0  0  0  0  0
    3.3911   -2.2356    1.3317 C   0  0  0  0  0  0  0  0  0  0  0  0
    2.6390   -2.8934    2.2159 N   0  0  0  0  0  0  0  0  0  0  0  0
    1.9321   -1.9297    2.8186 N   0  0  0  0  0  0  0  0  0  0  0  0
    1.0529   -2.1627    3.7704 C   0  0  0  0  0  0  0  0  0  0  0  0
    0.5373   -0.9933    4.1463 N   0  0  0  0  0  0  0  0  0  0  0  0
    1.1687    0.0079    3.3447 N   0  0  0  0  0  0  0  0  0  0  0  0
    2.0176   -0.6004    2.5557 C   0  0  0  0  0  0  0  0  0  0  0  0
    3.2451   -0.4350    1.3072 S   0  0  0  0  0  0  0  0  0  0  0  0
    3.0837    1.4244   -5.7680 H   0  0  0  0  0  0  0  0  0  0  0  0
    1.7707    0.9403   -4.7089 H   0  0  0  0  0  0  0  0  0  0  0  0
    2.4330   -0.2024   -5.8770 H   0  0  0  0  0  0  0  0  0  0  0  0
    4.6081   -0.2061   -4.6945 H   0  0  0  0  0  0  0  0  0  0  0  0
    3.9969    0.9437   -3.5159 H   0  0  0  0  0  0  0  0  0  0  0  0
    2.2453   -0.8314   -2.8737 H   0  0  0  0  0  0  0  0  0  0  0  0
    3.0667   -1.9338   -3.9495 H   0  0  0  0  0  0  0  0  0  0  0  0
    5.1806   -1.5339   -2.4959 H   0  0  0  0  0  0  0  0  0  0  0  0
    4.1647   -0.5925   -1.4394 H   0  0  0  0  0  0  0  0  0  0  0  0
    2.6302   -2.7165   -1.2705 H   0  0  0  0  0  0  0  0  0  0  0  0
    3.9236   -3.5846   -2.0873 H   0  0  0  0  0  0  0  0  0  0  0  0
    0.7955   -3.1295    4.1844 H   0  0  0  0  0  0  0  0  0  0  0  0
  1  2  1  0
  1 15  1  0
  1 16  1  0
  1 17  1  0
  2  3  1  0
  2 18  1  0
  2 19  1  0
  3  4  1  0
  3 20  1  0
  3 21  1  0
  4  5  1  0
  4 22  1  0
  4 23  1  0
  5  6  1  0
  5 24  1  0
  5 25  1  0
  6  7  1  0
  7 14  1  0
  7  8  2  0
  8  9  1  0
  9 13  1  0
  9 10  1  0
 10 11  2  0
 10 26  1  0
 11 12  1  0
 12 13  2  0
 13 14  1  0
M  END
>  <i_m_ct_stereo_status>  (360) 
1

>  <s_m_source_file>  (360) 
/var/tmp/pbs.5076255.sched01/tmpebi1rvwe/120qlbjc4nh.sdf

>  <i_m_source_file_index>  (360) 
40

>  <i_lp_mmshare_version>  (360) 
48012

>  <i_f3d_flags>  (360) 
0

>  <s_epik_input>  (360) 
W0NIM11bQ0gyXVtDSDJdW0NIMl1bQ0gyXVNjKG4xKXNjKG4xMilubltjSF0y

>  <s_epik_cmdline>  (360) 
J2VwaWtfcHl0aG9uJywgJy1waHQnLCAnMi4wJywgJy1waCcsICc3LjAnLCAnLXRuJywgJzgnLCAnLW1hJywgJzIwMCcsICctaW1hZScsICc8aW5maWxlLm1hZT4nLCAnLW9tYWUnLCAnPG91dGZpbGUubWFlPic=

>  <r_lp_tautomer_probability>  (360) 
1

>  <r_epik_Ionization_Penalty>  (360) 
2.36293e-07

>  <r_epik_Ionization_Penalty_Charging>  (360) 
0

>  <r_epik_Ionization_Penalty_Neutral>  (360) 
2.36293e-07

>  <r_epik_State_Penalty>  (360) 
-0

>  <r_epik_Charging_Adjusted_Penalty>  (360) 
0

>  <i_epik_Tot_Q>  (360) 
0

>  <i_epik_Tot_abs_Q>  (360) 
0

>  <s_lp_Force_Field>  (360) 
OPLS3e

>  <r_lp_Energy>  (360) 
4.42071

>  <b_lp_Chiralities_Consistent>  (360) 
1

>  <s_lp_Variant>  (360) 
123:0-1

>  <s_i_glide_gridfile>  (360) 
pfpi4k_grid

>  <i_i_glide_lignum>  (360) 
40

>  <i_i_glide_rotatable_bonds>  (360) 
5

>  <r_i_docking_score>  (360) 
-2.54

>  <r_i_glide_ligand_efficiency>  (360) 
-0.181428

>  <r_i_glide_ligand_efficiency_sa>  (360) 
-0.437268

>  <r_i_glide_ligand_efficiency_ln>  (360) 
-0.697982

>  <r_i_glide_gscore>  (360) 
-2.54

>  <r_i_glide_lipo>  (360) 
-0.289248

>  <r_i_glide_hbond>  (360) 
0

>  <r_i_glide_metal>  (360) 
-0

>  <r_i_glide_rewards>  (360) 
-1.89662

>  <r_i_glide_evdw>  (360) 
-21.1657

>  <r_i_glide_ecoul>  (360) 
-1.49336

>  <r_i_glide_erotb>  (360) 
0.980353

>  <r_i_glide_esite>  (360) 
-0.0521942

>  <r_i_glide_emodel>  (360) 
-25.3878

>  <r_i_glide_energy>  (360) 
-22.6591

>  <r_i_glide_einternal>  (360) 
3.18545

>  <r_i_glide_intrahb_reward>  (360) 
-0

>  <i_i_glide_confnum>  (360) 
6

>  <i_i_glide_posenum>  (360) 
2

>  <r_i_glide_eff_state_penalty>  (360) 
0

>  <ligand_id>  (360) 
123

>  <original_smiles>  (360) 
CCCCCSc1nn2cnnc2s1

>  <smiles>  (360) 
[H]c1nnc2sc(SC([H])([H])C([H])([H])C([H])([H])C([H])([H])C([H])([H])[H])nn12

$$$$
