0:0:0
     RDKit          3D

 25 27  0  0  1  0  0  0  0  0999 V2000
    0.4036   -1.3355    3.6840 O   0  0  0  0  0  0  0  0  0  0  0  0
    1.1515   -0.6766    2.9572 C   0  0  0  0  0  0  0  0  0  0  0  0
    0.8334    0.6907    2.4845 C   0  0  0  0  0  0  0  0  0  0  0  0
   -0.3958    1.3118    2.8447 C   0  0  0  0  0  0  0  0  0  0  0  0
   -0.7966    2.4917    2.4917 N   0  0  0  0  0  0  0  0  0  0  0  0
   -2.0955    3.0275    2.9009 C   0  0  0  0  0  0  0  0  0  0  0  0
   -2.1878    4.5296    2.8806 C   0  0  0  0  0  0  0  0  0  0  0  0
   -2.0796    3.7904    4.1990 C   0  0  0  0  0  0  0  0  0  0  0  0
    1.7391    1.3379    1.7159 C   0  0  0  0  0  0  0  0  0  0  0  0
    2.9568    0.7726    1.3479 N   0  0  0  0  0  0  0  0  0  0  0  0
    3.2366   -0.4247    1.7325 C   0  0  0  0  0  0  0  0  0  0  0  0
    4.7212   -1.4226    1.4047 S   0  0  0  0  0  0  0  0  0  0  0  0
    4.0490   -2.7243    2.3665 C   0  0  0  0  0  0  0  0  0  0  0  0
    2.8442   -2.4342    2.8688 C   0  0  0  0  0  0  0  0  0  0  0  0
    2.3536   -1.1674    2.5341 N   0  0  0  0  0  0  0  0  0  0  0  0
   -1.0976    0.7718    3.4785 H   0  0  0  0  0  0  0  0  0  0  0  0
   -2.9263    2.3941    2.5961 H   0  0  0  0  0  0  0  0  0  0  0  0
   -1.3235    5.1049    2.5521 H   0  0  0  0  0  0  0  0  0  0  0  0
   -3.1522    4.9577    2.6057 H   0  0  0  0  0  0  0  0  0  0  0  0
   -2.9700    3.7335    4.8250 H   0  0  0  0  0  0  0  0  0  0  0  0
   -1.1419    3.8887    4.7435 H   0  0  0  0  0  0  0  0  0  0  0  0
    1.5599    2.3363    1.3435 H   0  0  0  0  0  0  0  0  0  0  0  0
    4.6040   -3.6445    2.5013 H   0  0  0  0  0  0  0  0  0  0  0  0
    2.2368   -3.0763    3.4928 H   0  0  0  0  0  0  0  0  0  0  0  0
   -0.2441    3.0935    1.8566 H   0  0  0  0  0  0  0  0  0  0  0  0
  1  2  2  0
  2 15  1  0
  2  3  1  0
  3  4  1  0
  3  9  2  0
  4  5  2  3
  4 16  1  0
  5  6  1  0
  5 25  1  0
  6  8  1  0
  6  7  1  0
  6 17  1  0
  7  8  1  0
  7 18  1  0
  7 19  1  0
  8 20  1  0
  8 21  1  0
  9 10  1  0
  9 22  1  0
 10 11  2  0
 11 15  1  0
 11 12  1  0
 12 13  1  0
 13 14  2  0
 13 23  1  0
 14 15  1  0
 14 24  1  0
M  CHG  1   5   1
M  END
>  <i_m_ct_stereo_status>  (1) 
1

>  <s_m_source_file>  (1) 
/var/tmp/pbs.5076255.sched01/tmpj20d55gn/0_c3see42.sdf

>  <i_m_source_file_index>  (1) 
1

>  <i_lp_mmshare_version>  (1) 
48012

>  <i_f3d_flags>  (1) 
0

>  <s_epik_input>  (1) 
czFbY0hdW2NIXW4oYzEyKWMoPU8pYyhbY0hdbjIpL1tDSF09Ti9bQ0hdM1tDSDJdW0NIMl0z

>  <s_epik_cmdline>  (1) 
J2VwaWtfcHl0aG9uJywgJy1waHQnLCAnMi4wJywgJy1waCcsICc3LjAnLCAnLXRuJywgJzgnLCAnLW1hJywgJzIwMCcsICctaW1hZScsICc8aW5maWxlLm1hZT4nLCAnLW9tYWUnLCAnPG91dGZpbGUubWFlPic=

>  <r_epik_Ionization_Penalty>  (1) 
0.154311

>  <r_epik_Ionization_Penalty_Charging>  (1) 
0.154311

>  <r_epik_Ionization_Penalty_Neutral>  (1) 
2.54407e-08

>  <r_epik_State_Penalty>  (1) 
0.0175406

>  <r_epik_Charging_Adjusted_Penalty>  (1) 
0.171851

>  <i_epik_Tot_Q>  (1) 
1

>  <i_epik_Tot_abs_Q>  (1) 
1

>  <s_epik_Chemistry_Notes>  (1) 
This compound has an imine and may undergo hydrolysis.

>  <s_lp_Force_Field>  (1) 
OPLS3e

>  <r_lp_Energy>  (1) 
51.0631

>  <b_lp_Chiralities_Consistent>  (1) 
1

>  <s_lp_Variant>  (1) 
0:0-1

>  <s_i_glide_gridfile>  (1) 
pfpi4k_grid

>  <i_i_glide_lignum>  (1) 
1

>  <i_i_glide_rotatable_bonds>  (1) 
2

>  <r_i_docking_score>  (1) 
-3.63242

>  <r_i_glide_ligand_efficiency>  (1) 
-0.242161

>  <r_i_glide_ligand_efficiency_sa>  (1) 
-0.597221

>  <r_i_glide_ligand_efficiency_ln>  (1) 
-0.979603

>  <r_i_glide_gscore>  (1) 
-3.63242

>  <r_i_glide_lipo>  (1) 
-0.0444667

>  <r_i_glide_hbond>  (1) 
-0.2

>  <r_i_glide_metal>  (1) 
-0

>  <r_i_glide_rewards>  (1) 
-1.90724

>  <r_i_glide_evdw>  (1) 
-16.5235

>  <r_i_glide_ecoul>  (1) 
-7.76215

>  <r_i_glide_erotb>  (1) 
0.694573

>  <r_i_glide_esite>  (1) 
-0.184788

>  <r_i_glide_emodel>  (1) 
-30.9602

>  <r_i_glide_energy>  (1) 
-24.2857

>  <r_i_glide_einternal>  (1) 
2.30811

>  <r_i_glide_intrahb_reward>  (1) 
-0

>  <i_i_glide_confnum>  (1) 
4

>  <i_i_glide_posenum>  (1) 
30

>  <r_i_glide_eff_state_penalty>  (1) 
0

>  <ligand_id>  (1) 
0

>  <original_smiles>  (1) 
O=c1c(C=NC2CC2)cnc2sccn12

>  <smiles>  (1) 
[H]C(c1c([H])nc2sc([H])c([H])n2c1=O)=[N+]([H])C1([H])C([H])([H])C1([H])[H]

$$$$
0:0:1
     RDKit          3D

 25 27  0  0  1  0  0  0  0  0999 V2000
    2.1074   -4.6934   -0.1819 O   0  0  0  0  0  0  0  0  0  0  0  0
    3.2584   -4.9913    0.1415 C   0  0  0  0  0  0  0  0  0  0  0  0
    4.4598   -4.3095   -0.3809 C   0  0  0  0  0  0  0  0  0  0  0  0
    4.3616   -3.2586   -1.3117 C   0  0  0  0  0  0  0  0  0  0  0  0
    3.2883   -2.7165   -1.7937 N   0  0  0  0  0  0  0  0  0  0  0  0
    3.2284   -1.5871   -2.7460 C   0  0  0  0  0  0  0  0  0  0  0  0
    4.2186   -1.6181   -3.8827 C   0  0  0  0  0  0  0  0  0  0  0  0
    4.3786   -0.6059   -2.7470 C   0  0  0  0  0  0  0  0  0  0  0  0
    5.6836   -4.6967    0.0427 C   0  0  0  0  0  0  0  0  0  0  0  0
    5.8739   -5.7385    0.9431 N   0  0  0  0  0  0  0  0  0  0  0  0
    4.8260   -6.3575    1.3977 C   0  0  0  0  0  0  0  0  0  0  0  0
    4.7066   -7.7424    2.5708 S   0  0  0  0  0  0  0  0  0  0  0  0
    2.9554   -7.7072    2.4299 C   0  0  0  0  0  0  0  0  0  0  0  0
    2.5184   -6.7651    1.5946 C   0  0  0  0  0  0  0  0  0  0  0  0
    3.5252   -6.0002    1.0085 N   0  0  0  0  0  0  0  0  0  0  0  0
    5.2951   -2.8521   -1.6789 H   0  0  0  0  0  0  0  0  0  0  0  0
    2.2146   -1.2402   -2.8897 H   0  0  0  0  0  0  0  0  0  0  0  0
    4.9090   -2.4607   -3.9342 H   0  0  0  0  0  0  0  0  0  0  0  0
    3.8920   -1.2400   -4.8479 H   0  0  0  0  0  0  0  0  0  0  0  0
    4.1348    0.4336   -2.9646 H   0  0  0  0  0  0  0  0  0  0  0  0
    5.1804   -0.7231   -2.0192 H   0  0  0  0  0  0  0  0  0  0  0  0
    6.5825   -4.2122   -0.3215 H   0  0  0  0  0  0  0  0  0  0  0  0
    2.3377   -8.4043    2.9790 H   0  0  0  0  0  0  0  0  0  0  0  0
    1.4912   -6.5528    1.3295 H   0  0  0  0  0  0  0  0  0  0  0  0
    2.3843   -3.0663   -1.4609 H   0  0  0  0  0  0  0  0  0  0  0  0
  1  2  2  0
  2 15  1  0
  2  3  1  0
  3  4  1  0
  3  9  2  0
  4  5  2  3
  4 16  1  0
  5  6  1  0
  5 25  1  0
  6  8  1  0
  6  7  1  0
  6 17  1  0
  7  8  1  0
  7 18  1  0
  7 19  1  0
  8 20  1  0
  8 21  1  0
  9 10  1  0
  9 22  1  0
 10 11  2  0
 11 15  1  0
 11 12  1  0
 12 13  1  0
 13 14  2  0
 13 23  1  0
 14 15  1  0
 14 24  1  0
M  CHG  1   5   1
M  END
>  <i_m_ct_stereo_status>  (2) 
1

>  <s_m_source_file>  (2) 
/var/tmp/pbs.5076255.sched01/tmpj20d55gn/0_c3see42.sdf

>  <i_m_source_file_index>  (2) 
1

>  <i_lp_mmshare_version>  (2) 
48012

>  <i_f3d_flags>  (2) 
0

>  <s_epik_input>  (2) 
czFbY0hdW2NIXW4oYzEyKWMoPU8pYyhbY0hdbjIpL1tDSF09Ti9bQ0hdM1tDSDJdW0NIMl0z

>  <s_epik_cmdline>  (2) 
J2VwaWtfcHl0aG9uJywgJy1waHQnLCAnMi4wJywgJy1waCcsICc3LjAnLCAnLXRuJywgJzgnLCAnLW1hJywgJzIwMCcsICctaW1hZScsICc8aW5maWxlLm1hZT4nLCAnLW9tYWUnLCAnPG91dGZpbGUubWFlPic=

>  <r_epik_Ionization_Penalty>  (2) 
0.154311

>  <r_epik_Ionization_Penalty_Charging>  (2) 
0.154311

>  <r_epik_Ionization_Penalty_Neutral>  (2) 
2.54407e-08

>  <r_epik_State_Penalty>  (2) 
0.0175406

>  <r_epik_Charging_Adjusted_Penalty>  (2) 
0.171851

>  <i_epik_Tot_Q>  (2) 
1

>  <i_epik_Tot_abs_Q>  (2) 
1

>  <s_epik_Chemistry_Notes>  (2) 
This compound has an imine and may undergo hydrolysis.

>  <s_lp_Force_Field>  (2) 
OPLS3e

>  <r_lp_Energy>  (2) 
51.0631

>  <b_lp_Chiralities_Consistent>  (2) 
1

>  <s_lp_Variant>  (2) 
0:0-1

>  <s_i_glide_gridfile>  (2) 
pfpi4k_grid

>  <i_i_glide_lignum>  (2) 
1

>  <i_i_glide_rotatable_bonds>  (2) 
2

>  <r_i_docking_score>  (2) 
-3.5245

>  <r_i_glide_ligand_efficiency>  (2) 
-0.234967

>  <r_i_glide_ligand_efficiency_sa>  (2) 
-0.579478

>  <r_i_glide_ligand_efficiency_ln>  (2) 
-0.9505

>  <r_i_glide_gscore>  (2) 
-3.5245

>  <r_i_glide_lipo>  (2) 
-0.21556

>  <r_i_glide_hbond>  (2) 
-0.00911764

>  <r_i_glide_metal>  (2) 
-0

>  <r_i_glide_rewards>  (2) 
-2.54908

>  <r_i_glide_evdw>  (2) 
-19.1151

>  <r_i_glide_ecoul>  (2) 
-3.04811

>  <r_i_glide_erotb>  (2) 
0.694573

>  <r_i_glide_esite>  (2) 
-0.0323502

>  <r_i_glide_emodel>  (2) 
-32.2105

>  <r_i_glide_energy>  (2) 
-22.1632

>  <r_i_glide_einternal>  (2) 
4.98095

>  <r_i_glide_intrahb_reward>  (2) 
-0.5

>  <i_i_glide_confnum>  (2) 
3

>  <i_i_glide_posenum>  (2) 
7

>  <r_i_glide_eff_state_penalty>  (2) 
0

>  <ligand_id>  (2) 
0

>  <original_smiles>  (2) 
O=c1c(C=NC2CC2)cnc2sccn12

>  <smiles>  (2) 
[H]C(c1c([H])nc2sc([H])c([H])n2c1=O)=[N+]([H])C1([H])C([H])([H])C1([H])[H]

$$$$
0:0:2
     RDKit          3D

 25 27  0  0  1  0  0  0  0  0999 V2000
    2.2145   -3.8706   -0.5238 O   0  0  0  0  0  0  0  0  0  0  0  0
    3.3420   -4.2711   -0.2275 C   0  0  0  0  0  0  0  0  0  0  0  0
    4.5871   -3.6635   -0.7489 C   0  0  0  0  0  0  0  0  0  0  0  0
    4.5414   -2.5613   -1.6404 C   0  0  0  0  0  0  0  0  0  0  0  0
    3.4838   -1.9583   -2.0836 N   0  0  0  0  0  0  0  0  0  0  0  0
    3.5317   -0.7973   -2.9729 C   0  0  0  0  0  0  0  0  0  0  0  0
    2.6535   -0.8907   -4.1953 C   0  0  0  0  0  0  0  0  0  0  0  0
    4.1424   -1.0563   -4.3225 C   0  0  0  0  0  0  0  0  0  0  0  0
    5.7770   -4.1759   -0.3578 C   0  0  0  0  0  0  0  0  0  0  0  0
    5.8858   -5.2686    0.5026 N   0  0  0  0  0  0  0  0  0  0  0  0
    4.8004   -5.8149    0.9555 C   0  0  0  0  0  0  0  0  0  0  0  0
    4.5757   -7.2354    2.0820 S   0  0  0  0  0  0  0  0  0  0  0  0
    2.8333   -7.0457    1.9748 C   0  0  0  0  0  0  0  0  0  0  0  0
    2.4701   -6.0376    1.1813 C   0  0  0  0  0  0  0  0  0  0  0  0
    3.5298   -5.3343    0.6037 N   0  0  0  0  0  0  0  0  0  0  0  0
    5.4730   -2.1529   -2.0169 H   0  0  0  0  0  0  0  0  0  0  0  0
    3.6956    0.1346   -2.4412 H   0  0  0  0  0  0  0  0  0  0  0  0
    2.0346   -1.7807   -4.3160 H   0  0  0  0  0  0  0  0  0  0  0  0
    2.2152    0.0372   -4.5585 H   0  0  0  0  0  0  0  0  0  0  0  0
    4.6635   -0.2328   -4.7854 H   0  0  0  0  0  0  0  0  0  0  0  0
    4.5118   -2.0557   -4.5412 H   0  0  0  0  0  0  0  0  0  0  0  0
    6.7155   -3.7707   -0.7144 H   0  0  0  0  0  0  0  0  0  0  0  0
    2.1698   -7.7093    2.5129 H   0  0  0  0  0  0  0  0  0  0  0  0
    1.4599   -5.7317    0.9487 H   0  0  0  0  0  0  0  0  0  0  0  0
    2.5640   -2.2296   -1.7205 H   0  0  0  0  0  0  0  0  0  0  0  0
  1  2  2  0
  2 15  1  0
  2  3  1  0
  3  4  1  0
  3  9  2  0
  4  5  2  3
  4 16  1  0
  5  6  1  0
  5 25  1  0
  6  8  1  0
  6  7  1  0
  6 17  1  0
  7  8  1  0
  7 18  1  0
  7 19  1  0
  8 20  1  0
  8 21  1  0
  9 10  1  0
  9 22  1  0
 10 11  2  0
 11 15  1  0
 11 12  1  0
 12 13  1  0
 13 14  2  0
 13 23  1  0
 14 15  1  0
 14 24  1  0
M  CHG  1   5   1
M  END
>  <i_m_ct_stereo_status>  (3) 
1

>  <s_m_source_file>  (3) 
/var/tmp/pbs.5076255.sched01/tmpj20d55gn/0_c3see42.sdf

>  <i_m_source_file_index>  (3) 
1

>  <i_lp_mmshare_version>  (3) 
48012

>  <i_f3d_flags>  (3) 
0

>  <s_epik_input>  (3) 
czFbY0hdW2NIXW4oYzEyKWMoPU8pYyhbY0hdbjIpL1tDSF09Ti9bQ0hdM1tDSDJdW0NIMl0z

>  <s_epik_cmdline>  (3) 
J2VwaWtfcHl0aG9uJywgJy1waHQnLCAnMi4wJywgJy1waCcsICc3LjAnLCAnLXRuJywgJzgnLCAnLW1hJywgJzIwMCcsICctaW1hZScsICc8aW5maWxlLm1hZT4nLCAnLW9tYWUnLCAnPG91dGZpbGUubWFlPic=

>  <r_epik_Ionization_Penalty>  (3) 
0.154311

>  <r_epik_Ionization_Penalty_Charging>  (3) 
0.154311

>  <r_epik_Ionization_Penalty_Neutral>  (3) 
2.54407e-08

>  <r_epik_State_Penalty>  (3) 
0.0175406

>  <r_epik_Charging_Adjusted_Penalty>  (3) 
0.171851

>  <i_epik_Tot_Q>  (3) 
1

>  <i_epik_Tot_abs_Q>  (3) 
1

>  <s_epik_Chemistry_Notes>  (3) 
This compound has an imine and may undergo hydrolysis.

>  <s_lp_Force_Field>  (3) 
OPLS3e

>  <r_lp_Energy>  (3) 
51.0631

>  <b_lp_Chiralities_Consistent>  (3) 
1

>  <s_lp_Variant>  (3) 
0:0-1

>  <s_i_glide_gridfile>  (3) 
pfpi4k_grid

>  <i_i_glide_lignum>  (3) 
1

>  <i_i_glide_rotatable_bonds>  (3) 
2

>  <r_i_docking_score>  (3) 
-3.37726

>  <r_i_glide_ligand_efficiency>  (3) 
-0.22515

>  <r_i_glide_ligand_efficiency_sa>  (3) 
-0.555269

>  <r_i_glide_ligand_efficiency_ln>  (3) 
-0.91079

>  <r_i_glide_gscore>  (3) 
-3.37726

>  <r_i_glide_lipo>  (3) 
-0.200113

>  <r_i_glide_hbond>  (3) 
-0.0180675

>  <r_i_glide_metal>  (3) 
-0

>  <r_i_glide_rewards>  (3) 
-2.52043

>  <r_i_glide_evdw>  (3) 
-17.7829

>  <r_i_glide_ecoul>  (3) 
-2.44175

>  <r_i_glide_erotb>  (3) 
0.694573

>  <r_i_glide_esite>  (3) 
-0.0778159

>  <r_i_glide_emodel>  (3) 
-32.0749

>  <r_i_glide_energy>  (3) 
-20.2247

>  <r_i_glide_einternal>  (3) 
0.768495

>  <r_i_glide_intrahb_reward>  (3) 
-0.5

>  <i_i_glide_confnum>  (3) 
5

>  <i_i_glide_posenum>  (3) 
2

>  <r_i_glide_eff_state_penalty>  (3) 
0

>  <ligand_id>  (3) 
0

>  <original_smiles>  (3) 
O=c1c(C=NC2CC2)cnc2sccn12

>  <smiles>  (3) 
[H]C(c1c([H])nc2sc([H])c([H])n2c1=O)=[N+]([H])C1([H])C([H])([H])C1([H])[H]

$$$$
0:1:0
     RDKit          3D

 25 27  0  0  1  0  0  0  0  0999 V2000
   -2.9559    3.2230    5.5134 O   0  0  0  0  0  0  0  0  0  0  0  0
   -1.8854    3.3457    6.1123 C   0  0  0  0  0  0  0  0  0  0  0  0
   -0.5983    3.6439    5.4528 C   0  0  0  0  0  0  0  0  0  0  0  0
   -0.5275    3.7395    4.0016 C   0  0  0  0  0  0  0  0  0  0  0  0
    0.4390    4.1697    3.2940 N   0  0  0  0  0  0  0  0  0  0  0  0
    1.6494    4.8942    3.7540 C   0  0  0  0  0  0  0  0  0  0  0  0
    2.8279    4.9882    2.8022 C   0  0  0  0  0  0  0  0  0  0  0  0
    2.8495    4.0053    3.9478 C   0  0  0  0  0  0  0  0  0  0  0  0
    0.5080    3.6384    6.2513 C   0  0  0  0  0  0  0  0  0  0  0  0
    0.4917    3.4984    7.6271 N   0  0  0  0  0  0  0  0  0  0  0  0
   -0.6220    3.2996    8.2199 C   0  0  0  0  0  0  0  0  0  0  0  0
   -0.9600    3.1239    9.9956 S   0  0  0  0  0  0  0  0  0  0  0  0
   -2.6415    2.9384    9.6040 C   0  0  0  0  0  0  0  0  0  0  0  0
   -2.9190    3.0027    8.2914 C   0  0  0  0  0  0  0  0  0  0  0  0
   -1.8115    3.1959    7.4781 N   0  0  0  0  0  0  0  0  0  0  0  0
   -1.3790    3.4608    3.3715 H   0  0  0  0  0  0  0  0  0  0  0  0
    1.3803    5.6890    4.4553 H   0  0  0  0  0  0  0  0  0  0  0  0
    2.7226    4.5587    1.7937 H   0  0  0  0  0  0  0  0  0  0  0  0
    3.4916    5.8538    2.9028 H   0  0  0  0  0  0  0  0  0  0  0  0
    3.4737    4.2055    4.8080 H   0  0  0  0  0  0  0  0  0  0  0  0
    2.7078    2.9478    3.7446 H   0  0  0  0  0  0  0  0  0  0  0  0
    1.5374    3.6714    5.9568 H   0  0  0  0  0  0  0  0  0  0  0  0
   -3.3235    2.7882   10.4196 H   0  0  0  0  0  0  0  0  0  0  0  0
   -3.8974    2.9340    7.8373 H   0  0  0  0  0  0  0  0  0  0  0  0
    0.2561    4.2155    2.2694 H   0  0  0  0  0  0  0  0  0  0  0  0
  1  2  2  0
  2 15  1  0
  2  3  1  0
  3  4  1  0
  3  9  2  0
  4  5  2  3
  4 16  1  0
  5  6  1  0
  5 25  1  0
  6  8  1  0
  6  7  1  0
  6 17  1  0
  7  8  1  0
  7 18  1  0
  7 19  1  0
  8 20  1  0
  8 21  1  0
  9 10  1  0
  9 22  1  0
 10 11  2  0
 11 15  1  0
 11 12  1  0
 12 13  1  0
 13 14  2  0
 13 23  1  0
 14 15  1  0
 14 24  1  0
M  CHG  1   5   1
M  END
>  <i_m_ct_stereo_status>  (4) 
1

>  <s_m_source_file>  (4) 
/var/tmp/pbs.5076255.sched01/tmpj20d55gn/0_c3see42.sdf

>  <i_m_source_file_index>  (4) 
2

>  <i_lp_mmshare_version>  (4) 
48012

>  <i_f3d_flags>  (4) 
0

>  <s_epik_input>  (4) 
czFbY0hdW2NIXW4oYzEyKWMoPU8pYyhbY0hdbjIpL1tDSF09Ti9bQ0hdM1tDSDJdW0NIMl0z

>  <s_epik_cmdline>  (4) 
J2VwaWtfcHl0aG9uJywgJy1waHQnLCAnMi4wJywgJy1waCcsICc3LjAnLCAnLXRuJywgJzgnLCAnLW1hJywgJzIwMCcsICctaW1hZScsICc8aW5maWxlLm1hZT4nLCAnLW9tYWUnLCAnPG91dGZpbGUubWFlPic=

>  <r_epik_Ionization_Penalty>  (4) 
0.154311

>  <r_epik_Ionization_Penalty_Charging>  (4) 
0.154311

>  <r_epik_Ionization_Penalty_Neutral>  (4) 
2.54407e-08

>  <r_epik_State_Penalty>  (4) 
0.0175406

>  <r_epik_Charging_Adjusted_Penalty>  (4) 
0.171851

>  <i_epik_Tot_Q>  (4) 
1

>  <i_epik_Tot_abs_Q>  (4) 
1

>  <s_epik_Chemistry_Notes>  (4) 
This compound has an imine and may undergo hydrolysis.

>  <s_lp_Force_Field>  (4) 
OPLS3e

>  <r_lp_Energy>  (4) 
54.7784

>  <b_lp_Chiralities_Consistent>  (4) 
1

>  <s_lp_Variant>  (4) 
0:0-2

>  <s_i_glide_gridfile>  (4) 
pfpi4k_grid

>  <i_i_glide_lignum>  (4) 
2

>  <i_i_glide_rotatable_bonds>  (4) 
2

>  <r_i_docking_score>  (4) 
-4.07754

>  <r_i_glide_ligand_efficiency>  (4) 
-0.271836

>  <r_i_glide_ligand_efficiency_sa>  (4) 
-0.670405

>  <r_i_glide_ligand_efficiency_ln>  (4) 
-1.09964

>  <r_i_glide_gscore>  (4) 
-4.07754

>  <r_i_glide_lipo>  (4) 
-0.175251

>  <r_i_glide_hbond>  (4) 
-0.196303

>  <r_i_glide_metal>  (4) 
-0

>  <r_i_glide_rewards>  (4) 
-1.95623

>  <r_i_glide_evdw>  (4) 
-16.893

>  <r_i_glide_ecoul>  (4) 
-9.53056

>  <r_i_glide_erotb>  (4) 
0.694573

>  <r_i_glide_esite>  (4) 
-0.170099

>  <r_i_glide_emodel>  (4) 
-35.093

>  <r_i_glide_energy>  (4) 
-26.4236

>  <r_i_glide_einternal>  (4) 
0.498478

>  <r_i_glide_intrahb_reward>  (4) 
-0

>  <i_i_glide_confnum>  (4) 
6

>  <i_i_glide_posenum>  (4) 
20

>  <r_i_glide_eff_state_penalty>  (4) 
0

>  <ligand_id>  (4) 
0

>  <original_smiles>  (4) 
O=c1c(C=NC2CC2)cnc2sccn12

>  <smiles>  (4) 
[H]C(c1c([H])nc2sc([H])c([H])n2c1=O)=[N+]([H])C1([H])C([H])([H])C1([H])[H]

$$$$
0:1:1
     RDKit          3D

 25 27  0  0  1  0  0  0  0  0999 V2000
   -2.9631    3.3104    5.4746 O   0  0  0  0  0  0  0  0  0  0  0  0
   -1.8892    3.2229    6.0731 C   0  0  0  0  0  0  0  0  0  0  0  0
   -0.5698    3.3745    5.4207 C   0  0  0  0  0  0  0  0  0  0  0  0
   -0.5068    3.5997    3.9954 C   0  0  0  0  0  0  0  0  0  0  0  0
    0.5037    4.0018    3.2947 N   0  0  0  0  0  0  0  0  0  0  0  0
    1.8500    4.3799    3.7998 C   0  0  0  0  0  0  0  0  0  0  0  0
    1.9635    5.8310    4.2431 C   0  0  0  0  0  0  0  0  0  0  0  0
    2.6557    5.3469    2.9871 C   0  0  0  0  0  0  0  0  0  0  0  0
    0.5526    3.1435    6.1704 C   0  0  0  0  0  0  0  0  0  0  0  0
    0.5049    2.9116    7.5478 N   0  0  0  0  0  0  0  0  0  0  0  0
   -0.6347    2.8387    8.1291 C   0  0  0  0  0  0  0  0  0  0  0  0
   -0.9641    2.5638    9.8883 S   0  0  0  0  0  0  0  0  0  0  0  0
   -2.6661    2.6617    9.5411 C   0  0  0  0  0  0  0  0  0  0  0  0
   -2.9532    2.8723    8.2470 C   0  0  0  0  0  0  0  0  0  0  0  0
   -1.8391    2.9788    7.4153 N   0  0  0  0  0  0  0  0  0  0  0  0
   -1.3983    3.4709    3.3755 H   0  0  0  0  0  0  0  0  0  0  0  0
    2.4495    3.5141    4.1033 H   0  0  0  0  0  0  0  0  0  0  0  0
    1.1241    6.5123    4.1004 H   0  0  0  0  0  0  0  0  0  0  0  0
    2.5685    6.0268    5.1276 H   0  0  0  0  0  0  0  0  0  0  0  0
    3.7302    5.1602    3.0314 H   0  0  0  0  0  0  0  0  0  0  0  0
    2.2724    5.6294    2.0160 H   0  0  0  0  0  0  0  0  0  0  0  0
    1.5634    3.0847    5.8130 H   0  0  0  0  0  0  0  0  0  0  0  0
   -3.3562    2.5397   10.3496 H   0  0  0  0  0  0  0  0  0  0  0  0
   -3.9297    2.9557    7.7993 H   0  0  0  0  0  0  0  0  0  0  0  0
    0.3398    4.1437    2.2702 H   0  0  0  0  0  0  0  0  0  0  0  0
  1  2  2  0
  2 15  1  0
  2  3  1  0
  3  4  1  0
  3  9  2  0
  4  5  2  3
  4 16  1  0
  5  6  1  0
  5 25  1  0
  6  8  1  0
  6  7  1  0
  6 17  1  0
  7  8  1  0
  7 18  1  0
  7 19  1  0
  8 20  1  0
  8 21  1  0
  9 10  1  0
  9 22  1  0
 10 11  2  0
 11 15  1  0
 11 12  1  0
 12 13  1  0
 13 14  2  0
 13 23  1  0
 14 15  1  0
 14 24  1  0
M  CHG  1   5   1
M  END
>  <i_m_ct_stereo_status>  (5) 
1

>  <s_m_source_file>  (5) 
/var/tmp/pbs.5076255.sched01/tmpj20d55gn/0_c3see42.sdf

>  <i_m_source_file_index>  (5) 
2

>  <i_lp_mmshare_version>  (5) 
48012

>  <i_f3d_flags>  (5) 
0

>  <s_epik_input>  (5) 
czFbY0hdW2NIXW4oYzEyKWMoPU8pYyhbY0hdbjIpL1tDSF09Ti9bQ0hdM1tDSDJdW0NIMl0z

>  <s_epik_cmdline>  (5) 
J2VwaWtfcHl0aG9uJywgJy1waHQnLCAnMi4wJywgJy1waCcsICc3LjAnLCAnLXRuJywgJzgnLCAnLW1hJywgJzIwMCcsICctaW1hZScsICc8aW5maWxlLm1hZT4nLCAnLW9tYWUnLCAnPG91dGZpbGUubWFlPic=

>  <r_epik_Ionization_Penalty>  (5) 
0.154311

>  <r_epik_Ionization_Penalty_Charging>  (5) 
0.154311

>  <r_epik_Ionization_Penalty_Neutral>  (5) 
2.54407e-08

>  <r_epik_State_Penalty>  (5) 
0.0175406

>  <r_epik_Charging_Adjusted_Penalty>  (5) 
0.171851

>  <i_epik_Tot_Q>  (5) 
1

>  <i_epik_Tot_abs_Q>  (5) 
1

>  <s_epik_Chemistry_Notes>  (5) 
This compound has an imine and may undergo hydrolysis.

>  <s_lp_Force_Field>  (5) 
OPLS3e

>  <r_lp_Energy>  (5) 
54.7784

>  <b_lp_Chiralities_Consistent>  (5) 
1

>  <s_lp_Variant>  (5) 
0:0-2

>  <s_i_glide_gridfile>  (5) 
pfpi4k_grid

>  <i_i_glide_lignum>  (5) 
2

>  <i_i_glide_rotatable_bonds>  (5) 
2

>  <r_i_docking_score>  (5) 
-4.02746

>  <r_i_glide_ligand_efficiency>  (5) 
-0.268497

>  <r_i_glide_ligand_efficiency_sa>  (5) 
-0.662171

>  <r_i_glide_ligand_efficiency_ln>  (5) 
-1.08614

>  <r_i_glide_gscore>  (5) 
-4.02746

>  <r_i_glide_lipo>  (5) 
-0.151766

>  <r_i_glide_hbond>  (5) 
-0.2

>  <r_i_glide_metal>  (5) 
-0

>  <r_i_glide_rewards>  (5) 
-1.95746

>  <r_i_glide_evdw>  (5) 
-16.3804

>  <r_i_glide_ecoul>  (5) 
-9.51407

>  <r_i_glide_erotb>  (5) 
0.694573

>  <r_i_glide_esite>  (5) 
-0.166672

>  <r_i_glide_emodel>  (5) 
-34.6987

>  <r_i_glide_energy>  (5) 
-25.8945

>  <r_i_glide_einternal>  (5) 
0.464981

>  <r_i_glide_intrahb_reward>  (5) 
-0

>  <i_i_glide_confnum>  (5) 
6

>  <i_i_glide_posenum>  (5) 
2

>  <r_i_glide_eff_state_penalty>  (5) 
0

>  <ligand_id>  (5) 
0

>  <original_smiles>  (5) 
O=c1c(C=NC2CC2)cnc2sccn12

>  <smiles>  (5) 
[H]C(c1c([H])nc2sc([H])c([H])n2c1=O)=[N+]([H])C1([H])C([H])([H])C1([H])[H]

$$$$
0:1:2
     RDKit          3D

 25 27  0  0  1  0  0  0  0  0999 V2000
   -2.2487    3.2369    3.5005 O   0  0  0  0  0  0  0  0  0  0  0  0
   -1.6546    2.4280    4.2219 C   0  0  0  0  0  0  0  0  0  0  0  0
   -0.7263    1.3792    3.7129 C   0  0  0  0  0  0  0  0  0  0  0  0
   -0.5126    1.2387    2.3160 C   0  0  0  0  0  0  0  0  0  0  0  0
    0.4249    0.5611    1.6826 N   0  0  0  0  0  0  0  0  0  0  0  0
    1.5383   -0.1808    2.3115 C   0  0  0  0  0  0  0  0  0  0  0  0
    2.8100    0.6391    2.5110 C   0  0  0  0  0  0  0  0  0  0  0  0
    2.7446   -0.4688    1.4698 C   0  0  0  0  0  0  0  0  0  0  0  0
   -0.2591    0.4578    4.6114 C   0  0  0  0  0  0  0  0  0  0  0  0
   -0.4705    0.5459    5.9889 N   0  0  0  0  0  0  0  0  0  0  0  0
   -1.1980    1.5156    6.4271 C   0  0  0  0  0  0  0  0  0  0  0  0
   -1.6014    1.8975    8.1629 S   0  0  0  0  0  0  0  0  0  0  0  0
   -2.5857    3.2181    7.6076 C   0  0  0  0  0  0  0  0  0  0  0  0
   -2.5855    3.3488    6.2691 C   0  0  0  0  0  0  0  0  0  0  0  0
   -1.8045    2.4371    5.5695 N   0  0  0  0  0  0  0  0  0  0  0  0
   -1.1556    1.7611    1.6059 H   0  0  0  0  0  0  0  0  0  0  0  0
    1.2276   -1.0771    2.8189 H   0  0  0  0  0  0  0  0  0  0  0  0
    2.8631    1.6638    2.1374 H   0  0  0  0  0  0  0  0  0  0  0  0
    3.3626    0.4620    3.4316 H   0  0  0  0  0  0  0  0  0  0  0  0
    3.2011   -1.4207    1.7149 H   0  0  0  0  0  0  0  0  0  0  0  0
    2.6903   -0.2426    0.4126 H   0  0  0  0  0  0  0  0  0  0  0  0
    0.2715   -0.4152    4.4130 H   0  0  0  0  0  0  0  0  0  0  0  0
   -3.0842    3.8304    8.3221 H   0  0  0  0  0  0  0  0  0  0  0  0
   -3.0794    4.1277    5.6939 H   0  0  0  0  0  0  0  0  0  0  0  0
    0.3598    0.5230    0.6678 H   0  0  0  0  0  0  0  0  0  0  0  0
  1  2  2  0
  2 15  1  0
  2  3  1  0
  3  4  1  0
  3  9  2  0
  4  5  2  3
  4 16  1  0
  5  6  1  0
  5 25  1  0
  6  8  1  0
  6  7  1  0
  6 17  1  0
  7  8  1  0
  7 18  1  0
  7 19  1  0
  8 20  1  0
  8 21  1  0
  9 10  1  0
  9 22  1  0
 10 11  2  0
 11 15  1  0
 11 12  1  0
 12 13  1  0
 13 14  2  0
 13 23  1  0
 14 15  1  0
 14 24  1  0
M  CHG  1   5   1
M  END
>  <i_m_ct_stereo_status>  (6) 
1

>  <s_m_source_file>  (6) 
/var/tmp/pbs.5076255.sched01/tmpj20d55gn/0_c3see42.sdf

>  <i_m_source_file_index>  (6) 
2

>  <i_lp_mmshare_version>  (6) 
48012

>  <i_f3d_flags>  (6) 
0

>  <s_epik_input>  (6) 
czFbY0hdW2NIXW4oYzEyKWMoPU8pYyhbY0hdbjIpL1tDSF09Ti9bQ0hdM1tDSDJdW0NIMl0z

>  <s_epik_cmdline>  (6) 
J2VwaWtfcHl0aG9uJywgJy1waHQnLCAnMi4wJywgJy1waCcsICc3LjAnLCAnLXRuJywgJzgnLCAnLW1hJywgJzIwMCcsICctaW1hZScsICc8aW5maWxlLm1hZT4nLCAnLW9tYWUnLCAnPG91dGZpbGUubWFlPic=

>  <r_epik_Ionization_Penalty>  (6) 
0.154311

>  <r_epik_Ionization_Penalty_Charging>  (6) 
0.154311

>  <r_epik_Ionization_Penalty_Neutral>  (6) 
2.54407e-08

>  <r_epik_State_Penalty>  (6) 
0.0175406

>  <r_epik_Charging_Adjusted_Penalty>  (6) 
0.171851

>  <i_epik_Tot_Q>  (6) 
1

>  <i_epik_Tot_abs_Q>  (6) 
1

>  <s_epik_Chemistry_Notes>  (6) 
This compound has an imine and may undergo hydrolysis.

>  <s_lp_Force_Field>  (6) 
OPLS3e

>  <r_lp_Energy>  (6) 
54.7784

>  <b_lp_Chiralities_Consistent>  (6) 
1

>  <s_lp_Variant>  (6) 
0:0-2

>  <s_i_glide_gridfile>  (6) 
pfpi4k_grid

>  <i_i_glide_lignum>  (6) 
2

>  <i_i_glide_rotatable_bonds>  (6) 
2

>  <r_i_docking_score>  (6) 
-3.87348

>  <r_i_glide_ligand_efficiency>  (6) 
-0.258232

>  <r_i_glide_ligand_efficiency_sa>  (6) 
-0.636855

>  <r_i_glide_ligand_efficiency_ln>  (6) 
-1.04461

>  <r_i_glide_gscore>  (6) 
-3.87348

>  <r_i_glide_lipo>  (6) 
-0.261742

>  <r_i_glide_hbond>  (6) 
-0.270907

>  <r_i_glide_metal>  (6) 
-0

>  <r_i_glide_rewards>  (6) 
-1.94625

>  <r_i_glide_evdw>  (6) 
-19.5286

>  <r_i_glide_ecoul>  (6) 
-6.19884

>  <r_i_glide_erotb>  (6) 
0.694573

>  <r_i_glide_esite>  (6) 
-0.182897

>  <r_i_glide_emodel>  (6) 
-33.8586

>  <r_i_glide_energy>  (6) 
-25.7275

>  <r_i_glide_einternal>  (6) 
0.418584

>  <r_i_glide_intrahb_reward>  (6) 
-0

>  <i_i_glide_confnum>  (6) 
1

>  <i_i_glide_posenum>  (6) 
1

>  <r_i_glide_eff_state_penalty>  (6) 
0

>  <ligand_id>  (6) 
0

>  <original_smiles>  (6) 
O=c1c(C=NC2CC2)cnc2sccn12

>  <smiles>  (6) 
[H]C(c1c([H])nc2sc([H])c([H])n2c1=O)=[N+]([H])C1([H])C([H])([H])C1([H])[H]

$$$$
0:2:0
     RDKit          3D

 24 26  0  0  1  0  0  0  0  0999 V2000
    1.1435   -5.8558    0.2887 O   0  0  0  0  0  0  0  0  0  0  0  0
    2.3429   -5.8280    0.5875 C   0  0  0  0  0  0  0  0  0  0  0  0
    3.0055   -6.8353    1.4526 C   0  0  0  0  0  0  0  0  0  0  0  0
    2.2390   -7.9143    2.1407 C   0  0  0  0  0  0  0  0  0  0  0  0
    0.9759   -8.0239    2.1323 N   0  0  0  0  0  0  0  0  0  0  0  0
    0.4007   -9.1683    2.7798 C   0  0  0  0  0  0  0  0  0  0  0  0
   -1.1000   -9.0536    2.8717 C   0  0  0  0  0  0  0  0  0  0  0  0
   -0.2317   -8.8112    4.0930 C   0  0  0  0  0  0  0  0  0  0  0  0
    4.3512   -6.7708    1.6200 C   0  0  0  0  0  0  0  0  0  0  0  0
    5.1384   -5.7785    1.0282 N   0  0  0  0  0  0  0  0  0  0  0  0
    4.5609   -4.8698    0.3081 C   0  0  0  0  0  0  0  0  0  0  0  0
    5.2652   -3.4350   -0.6150 S   0  0  0  0  0  0  0  0  0  0  0  0
    3.6610   -2.9981   -1.1667 C   0  0  0  0  0  0  0  0  0  0  0  0
    2.7169   -3.8218   -0.7156 C   0  0  0  0  0  0  0  0  0  0  0  0
    3.1663   -4.8617    0.0956 N   0  0  0  0  0  0  0  0  0  0  0  0
    2.8562   -8.6389    2.6812 H   0  0  0  0  0  0  0  0  0  0  0  0
    0.8721  -10.1346    2.5718 H   0  0  0  0  0  0  0  0  0  0  0  0
   -1.6139   -8.1858    2.4550 H   0  0  0  0  0  0  0  0  0  0  0  0
   -1.6708   -9.9720    2.8427 H   0  0  0  0  0  0  0  0  0  0  0  0
   -0.1975   -9.5757    4.8605 H   0  0  0  0  0  0  0  0  0  0  0  0
   -0.1658   -7.7818    4.4494 H   0  0  0  0  0  0  0  0  0  0  0  0
    4.8863   -7.4837    2.2372 H   0  0  0  0  0  0  0  0  0  0  0  0
    3.5066   -2.1505   -1.8168 H   0  0  0  0  0  0  0  0  0  0  0  0
    1.6605   -3.7697   -0.9564 H   0  0  0  0  0  0  0  0  0  0  0  0
  1  2  2  0
  2 15  1  0
  2  3  1  0
  3  4  1  0
  3  9  2  0
  4  5  2  3
  4 16  1  0
  5  6  1  0
  6  8  1  0
  6  7  1  0
  6 17  1  0
  7  8  1  0
  7 18  1  0
  7 19  1  0
  8 20  1  0
  8 21  1  0
  9 10  1  0
  9 22  1  0
 10 11  2  0
 11 15  1  0
 11 12  1  0
 12 13  1  0
 13 14  2  0
 13 23  1  0
 14 15  1  0
 14 24  1  0
M  END
>  <i_m_ct_stereo_status>  (7) 
1

>  <s_m_source_file>  (7) 
/var/tmp/pbs.5076255.sched01/tmpj20d55gn/0_c3see42.sdf

>  <i_m_source_file_index>  (7) 
3

>  <i_lp_mmshare_version>  (7) 
48012

>  <i_f3d_flags>  (7) 
0

>  <s_epik_input>  (7) 
czFbY0hdW2NIXW4oYzEyKWMoPU8pYyhbY0hdbjIpL1tDSF09Ti9bQ0hdM1tDSDJdW0NIMl0z

>  <s_epik_cmdline>  (7) 
J2VwaWtfcHl0aG9uJywgJy1waHQnLCAnMi4wJywgJy1waCcsICc3LjAnLCAnLXRuJywgJzgnLCAnLW1hJywgJzIwMCcsICctaW1hZScsICc8aW5maWxlLm1hZT4nLCAnLW9tYWUnLCAnPG91dGZpbGUubWFlPic=

>  <r_epik_Ionization_Penalty>  (7) 
3.17671

>  <r_epik_Ionization_Penalty_Charging>  (7) 
0

>  <r_epik_Ionization_Penalty_Neutral>  (7) 
3.17671

>  <r_epik_State_Penalty>  (7) 
2.09419

>  <r_epik_Charging_Adjusted_Penalty>  (7) 
2.09419

>  <i_epik_Tot_Q>  (7) 
0

>  <i_epik_Tot_abs_Q>  (7) 
0

>  <s_epik_Chemistry_Notes>  (7) 
This compound has an imine and may undergo hydrolysis.

>  <s_lp_Force_Field>  (7) 
OPLS3e

>  <r_lp_Energy>  (7) 
44.5857

>  <b_lp_Chiralities_Consistent>  (7) 
1

>  <s_lp_Variant>  (7) 
0:0-3

>  <s_i_glide_gridfile>  (7) 
pfpi4k_grid

>  <i_i_glide_lignum>  (7) 
3

>  <i_i_glide_rotatable_bonds>  (7) 
2

>  <r_i_docking_score>  (7) 
-3.37472

>  <r_i_glide_ligand_efficiency>  (7) 
-0.224982

>  <r_i_glide_ligand_efficiency_sa>  (7) 
-0.554852

>  <r_i_glide_ligand_efficiency_ln>  (7) 
-0.910107

>  <r_i_glide_gscore>  (7) 
-3.37472

>  <r_i_glide_lipo>  (7) 
-0.16053

>  <r_i_glide_hbond>  (7) 
-0.205927

>  <r_i_glide_metal>  (7) 
-0

>  <r_i_glide_rewards>  (7) 
-1.97388

>  <r_i_glide_evdw>  (7) 
-21.1613

>  <r_i_glide_ecoul>  (7) 
-4.21675

>  <r_i_glide_erotb>  (7) 
0.699969

>  <r_i_glide_esite>  (7) 
-0.0437779

>  <r_i_glide_emodel>  (7) 
-31.2975

>  <r_i_glide_energy>  (7) 
-25.378

>  <r_i_glide_einternal>  (7) 
0.188454

>  <r_i_glide_intrahb_reward>  (7) 
-0

>  <i_i_glide_confnum>  (7) 
4

>  <i_i_glide_posenum>  (7) 
31

>  <r_i_glide_eff_state_penalty>  (7) 
0

>  <ligand_id>  (7) 
0

>  <original_smiles>  (7) 
O=c1c(C=NC2CC2)cnc2sccn12

>  <smiles>  (7) 
[H]C(=NC1([H])C([H])([H])C1([H])[H])c1c([H])nc2sc([H])c([H])n2c1=O

$$$$
0:2:1
     RDKit          3D

 24 26  0  0  1  0  0  0  0  0999 V2000
    0.6014   -6.2698    0.7711 O   0  0  0  0  0  0  0  0  0  0  0  0
    1.3701   -7.0432    1.3571 C   0  0  0  0  0  0  0  0  0  0  0  0
    2.8426   -6.9082    1.3352 C   0  0  0  0  0  0  0  0  0  0  0  0
    3.4805   -5.8290    0.5408 C   0  0  0  0  0  0  0  0  0  0  0  0
    4.7361   -5.6272    0.5068 N   0  0  0  0  0  0  0  0  0  0  0  0
    5.1771   -4.5693   -0.3694 C   0  0  0  0  0  0  0  0  0  0  0  0
    6.4728   -3.9342    0.0835 C   0  0  0  0  0  0  0  0  0  0  0  0
    5.1614   -3.1990    0.2651 C   0  0  0  0  0  0  0  0  0  0  0  0
    3.5962   -7.8111    2.0114 C   0  0  0  0  0  0  0  0  0  0  0  0
    3.0480   -8.8571    2.7468 N   0  0  0  0  0  0  0  0  0  0  0  0
    1.7603   -8.9845    2.7769 C   0  0  0  0  0  0  0  0  0  0  0  0
    0.7388  -10.2265    3.6315 S   0  0  0  0  0  0  0  0  0  0  0  0
   -0.7046   -9.4421    3.0224 C   0  0  0  0  0  0  0  0  0  0  0  0
   -0.4467   -8.3730    2.2664 C   0  0  0  0  0  0  0  0  0  0  0  0
    0.9092   -8.0914    2.0993 N   0  0  0  0  0  0  0  0  0  0  0  0
    2.7927   -5.1997   -0.0326 H   0  0  0  0  0  0  0  0  0  0  0  0
    4.9863   -4.7229   -1.4327 H   0  0  0  0  0  0  0  0  0  0  0  0
    6.9601   -4.3026    0.9852 H   0  0  0  0  0  0  0  0  0  0  0  0
    7.1468   -3.5687   -0.6873 H   0  0  0  0  0  0  0  0  0  0  0  0
    4.9472   -2.3625   -0.3950 H   0  0  0  0  0  0  0  0  0  0  0  0
    4.7801   -3.1025    1.2806 H   0  0  0  0  0  0  0  0  0  0  0  0
    4.6767   -7.7671    2.0093 H   0  0  0  0  0  0  0  0  0  0  0  0
   -1.6779   -9.8470    3.2644 H   0  0  0  0  0  0  0  0  0  0  0  0
   -1.1738   -7.7531    1.7609 H   0  0  0  0  0  0  0  0  0  0  0  0
  1  2  2  0
  2 15  1  0
  2  3  1  0
  3  4  1  0
  3  9  2  0
  4  5  2  3
  4 16  1  0
  5  6  1  0
  6  8  1  0
  6  7  1  0
  6 17  1  0
  7  8  1  0
  7 18  1  0
  7 19  1  0
  8 20  1  0
  8 21  1  0
  9 10  1  0
  9 22  1  0
 10 11  2  0
 11 15  1  0
 11 12  1  0
 12 13  1  0
 13 14  2  0
 13 23  1  0
 14 15  1  0
 14 24  1  0
M  END
>  <i_m_ct_stereo_status>  (8) 
1

>  <s_m_source_file>  (8) 
/var/tmp/pbs.5076255.sched01/tmpj20d55gn/0_c3see42.sdf

>  <i_m_source_file_index>  (8) 
3

>  <i_lp_mmshare_version>  (8) 
48012

>  <i_f3d_flags>  (8) 
0

>  <s_epik_input>  (8) 
czFbY0hdW2NIXW4oYzEyKWMoPU8pYyhbY0hdbjIpL1tDSF09Ti9bQ0hdM1tDSDJdW0NIMl0z

>  <s_epik_cmdline>  (8) 
J2VwaWtfcHl0aG9uJywgJy1waHQnLCAnMi4wJywgJy1waCcsICc3LjAnLCAnLXRuJywgJzgnLCAnLW1hJywgJzIwMCcsICctaW1hZScsICc8aW5maWxlLm1hZT4nLCAnLW9tYWUnLCAnPG91dGZpbGUubWFlPic=

>  <r_epik_Ionization_Penalty>  (8) 
3.17671

>  <r_epik_Ionization_Penalty_Charging>  (8) 
0

>  <r_epik_Ionization_Penalty_Neutral>  (8) 
3.17671

>  <r_epik_State_Penalty>  (8) 
2.09419

>  <r_epik_Charging_Adjusted_Penalty>  (8) 
2.09419

>  <i_epik_Tot_Q>  (8) 
0

>  <i_epik_Tot_abs_Q>  (8) 
0

>  <s_epik_Chemistry_Notes>  (8) 
This compound has an imine and may undergo hydrolysis.

>  <s_lp_Force_Field>  (8) 
OPLS3e

>  <r_lp_Energy>  (8) 
44.5857

>  <b_lp_Chiralities_Consistent>  (8) 
1

>  <s_lp_Variant>  (8) 
0:0-3

>  <s_i_glide_gridfile>  (8) 
pfpi4k_grid

>  <i_i_glide_lignum>  (8) 
3

>  <i_i_glide_rotatable_bonds>  (8) 
2

>  <r_i_docking_score>  (8) 
-3.37006

>  <r_i_glide_ligand_efficiency>  (8) 
-0.22467

>  <r_i_glide_ligand_efficiency_sa>  (8) 
-0.554085

>  <r_i_glide_ligand_efficiency_ln>  (8) 
-0.908849

>  <r_i_glide_gscore>  (8) 
-3.37006

>  <r_i_glide_lipo>  (8) 
-0.193827

>  <r_i_glide_hbond>  (8) 
-0.16

>  <r_i_glide_metal>  (8) 
-0

>  <r_i_glide_rewards>  (8) 
-1.91715

>  <r_i_glide_evdw>  (8) 
-21.7218

>  <r_i_glide_ecoul>  (8) 
-4.46786

>  <r_i_glide_erotb>  (8) 
0.699969

>  <r_i_glide_esite>  (8) 
-0.04278

>  <r_i_glide_emodel>  (8) 
-31.7154

>  <r_i_glide_energy>  (8) 
-26.1897

>  <r_i_glide_einternal>  (8) 
1.19026

>  <r_i_glide_intrahb_reward>  (8) 
-0

>  <i_i_glide_confnum>  (8) 
6

>  <i_i_glide_posenum>  (8) 
29

>  <r_i_glide_eff_state_penalty>  (8) 
0

>  <ligand_id>  (8) 
0

>  <original_smiles>  (8) 
O=c1c(C=NC2CC2)cnc2sccn12

>  <smiles>  (8) 
[H]C(=NC1([H])C([H])([H])C1([H])[H])c1c([H])nc2sc([H])c([H])n2c1=O

$$$$
0:2:2
     RDKit          3D

 24 26  0  0  1  0  0  0  0  0999 V2000
    0.5181   -6.3022    0.9447 O   0  0  0  0  0  0  0  0  0  0  0  0
    1.2931   -7.0569    1.5577 C   0  0  0  0  0  0  0  0  0  0  0  0
    2.7679   -6.9066    1.5867 C   0  0  0  0  0  0  0  0  0  0  0  0
    3.4800   -5.8061    0.8823 C   0  0  0  0  0  0  0  0  0  0  0  0
    2.9236   -4.8842    0.2132 N   0  0  0  0  0  0  0  0  0  0  0  0
    3.7740   -3.9383   -0.4627 C   0  0  0  0  0  0  0  0  0  0  0  0
    3.4380   -2.5238   -0.0847 C   0  0  0  0  0  0  0  0  0  0  0  0
    2.9980   -3.0748   -1.4258 C   0  0  0  0  0  0  0  0  0  0  0  0
    3.5069   -7.7936    2.2997 C   0  0  0  0  0  0  0  0  0  0  0  0
    2.9349   -8.8505    3.0056 N   0  0  0  0  0  0  0  0  0  0  0  0
    1.6524   -8.9971    2.9731 C   0  0  0  0  0  0  0  0  0  0  0  0
    0.5749  -10.2535    3.7470 S   0  0  0  0  0  0  0  0  0  0  0  0
   -0.8397   -9.4546    3.0616 C   0  0  0  0  0  0  0  0  0  0  0  0
   -0.5402   -8.3909    2.3362 C   0  0  0  0  0  0  0  0  0  0  0  0
    0.8163   -8.1059    2.2592 N   0  0  0  0  0  0  0  0  0  0  0  0
    4.5715   -5.8499    0.9654 H   0  0  0  0  0  0  0  0  0  0  0  0
    4.7893   -4.2596   -0.7127 H   0  0  0  0  0  0  0  0  0  0  0  0
    2.6433   -2.3395    0.6391 H   0  0  0  0  0  0  0  0  0  0  0  0
    4.2581   -1.8164   -0.0661 H   0  0  0  0  0  0  0  0  0  0  0  0
    3.5168   -2.7296   -2.3128 H   0  0  0  0  0  0  0  0  0  0  0  0
    1.9262   -3.2323   -1.5561 H   0  0  0  0  0  0  0  0  0  0  0  0
    4.5875   -7.7346    2.3723 H   0  0  0  0  0  0  0  0  0  0  0  0
   -1.8311   -9.8531    3.2279 H   0  0  0  0  0  0  0  0  0  0  0  0
   -1.2344   -7.7692    1.7871 H   0  0  0  0  0  0  0  0  0  0  0  0
  1  2  2  0
  2 15  1  0
  2  3  1  0
  3  4  1  0
  3  9  2  0
  4  5  2  3
  4 16  1  0
  5  6  1  0
  6  8  1  0
  6  7  1  0
  6 17  1  0
  7  8  1  0
  7 18  1  0
  7 19  1  0
  8 20  1  0
  8 21  1  0
  9 10  1  0
  9 22  1  0
 10 11  2  0
 11 15  1  0
 11 12  1  0
 12 13  1  0
 13 14  2  0
 13 23  1  0
 14 15  1  0
 14 24  1  0
M  END
>  <i_m_ct_stereo_status>  (9) 
1

>  <s_m_source_file>  (9) 
/var/tmp/pbs.5076255.sched01/tmpj20d55gn/0_c3see42.sdf

>  <i_m_source_file_index>  (9) 
3

>  <i_lp_mmshare_version>  (9) 
48012

>  <i_f3d_flags>  (9) 
0

>  <s_epik_input>  (9) 
czFbY0hdW2NIXW4oYzEyKWMoPU8pYyhbY0hdbjIpL1tDSF09Ti9bQ0hdM1tDSDJdW0NIMl0z

>  <s_epik_cmdline>  (9) 
J2VwaWtfcHl0aG9uJywgJy1waHQnLCAnMi4wJywgJy1waCcsICc3LjAnLCAnLXRuJywgJzgnLCAnLW1hJywgJzIwMCcsICctaW1hZScsICc8aW5maWxlLm1hZT4nLCAnLW9tYWUnLCAnPG91dGZpbGUubWFlPic=

>  <r_epik_Ionization_Penalty>  (9) 
3.17671

>  <r_epik_Ionization_Penalty_Charging>  (9) 
0

>  <r_epik_Ionization_Penalty_Neutral>  (9) 
3.17671

>  <r_epik_State_Penalty>  (9) 
2.09419

>  <r_epik_Charging_Adjusted_Penalty>  (9) 
2.09419

>  <i_epik_Tot_Q>  (9) 
0

>  <i_epik_Tot_abs_Q>  (9) 
0

>  <s_epik_Chemistry_Notes>  (9) 
This compound has an imine and may undergo hydrolysis.

>  <s_lp_Force_Field>  (9) 
OPLS3e

>  <r_lp_Energy>  (9) 
44.5857

>  <b_lp_Chiralities_Consistent>  (9) 
1

>  <s_lp_Variant>  (9) 
0:0-3

>  <s_i_glide_gridfile>  (9) 
pfpi4k_grid

>  <i_i_glide_lignum>  (9) 
3

>  <i_i_glide_rotatable_bonds>  (9) 
2

>  <r_i_docking_score>  (9) 
-3.02671

>  <r_i_glide_ligand_efficiency>  (9) 
-0.201781

>  <r_i_glide_ligand_efficiency_sa>  (9) 
-0.497634

>  <r_i_glide_ligand_efficiency_ln>  (9) 
-0.816254

>  <r_i_glide_gscore>  (9) 
-3.02671

>  <r_i_glide_lipo>  (9) 
-0.0271754

>  <r_i_glide_hbond>  (9) 
-0.16

>  <r_i_glide_metal>  (9) 
-0

>  <r_i_glide_rewards>  (9) 
-1.92598

>  <r_i_glide_evdw>  (9) 
-21.7731

>  <r_i_glide_ecoul>  (9) 
-3.22806

>  <r_i_glide_erotb>  (9) 
0.699969

>  <r_i_glide_esite>  (9) 
-0.0406625

>  <r_i_glide_emodel>  (9) 
-30.2572

>  <r_i_glide_energy>  (9) 
-25.0012

>  <r_i_glide_einternal>  (9) 
0.457065

>  <r_i_glide_intrahb_reward>  (9) 
-0

>  <i_i_glide_confnum>  (9) 
1

>  <i_i_glide_posenum>  (9) 
26

>  <r_i_glide_eff_state_penalty>  (9) 
0

>  <ligand_id>  (9) 
0

>  <original_smiles>  (9) 
O=c1c(C=NC2CC2)cnc2sccn12

>  <smiles>  (9) 
[H]C(=NC1([H])C([H])([H])C1([H])[H])c1c([H])nc2sc([H])c([H])n2c1=O

$$$$
0:3:0
     RDKit          3D

 24 26  0  0  1  0  0  0  0  0999 V2000
    2.3881   -3.8141   -0.5194 O   0  0  0  0  0  0  0  0  0  0  0  0
    3.2914   -2.9767   -0.5817 C   0  0  0  0  0  0  0  0  0  0  0  0
    3.8257   -2.4176   -1.8491 C   0  0  0  0  0  0  0  0  0  0  0  0
    3.2467   -2.8771   -3.1597 C   0  0  0  0  0  0  0  0  0  0  0  0
    3.3293   -2.3176   -4.3090 N   0  0  0  0  0  0  0  0  0  0  0  0
    3.9552   -1.0265   -4.5105 C   0  0  0  0  0  0  0  0  0  0  0  0
    3.3866    0.0905   -3.6903 C   0  0  0  0  0  0  0  0  0  0  0  0
    3.0527    0.0169   -5.1553 C   0  0  0  0  0  0  0  0  0  0  0  0
    4.9250   -1.6116   -1.7646 C   0  0  0  0  0  0  0  0  0  0  0  0
    5.4409   -1.1350   -0.5747 N   0  0  0  0  0  0  0  0  0  0  0  0
    4.9156   -1.5409    0.5299 C   0  0  0  0  0  0  0  0  0  0  0  0
    5.3711   -1.1087    2.2217 S   0  0  0  0  0  0  0  0  0  0  0  0
    4.1784   -2.2391    2.8085 C   0  0  0  0  0  0  0  0  0  0  0  0
    3.4859   -2.8393    1.8350 C   0  0  0  0  0  0  0  0  0  0  0  0
    3.8565   -2.4695    0.5504 N   0  0  0  0  0  0  0  0  0  0  0  0
    2.6214   -3.7814   -3.1112 H   0  0  0  0  0  0  0  0  0  0  0  0
    5.0061   -1.0530   -4.7952 H   0  0  0  0  0  0  0  0  0  0  0  0
    2.5867   -0.1427   -3.0013 H   0  0  0  0  0  0  0  0  0  0  0  0
    4.0945    0.8492   -3.3532 H   0  0  0  0  0  0  0  0  0  0  0  0
    3.5018    0.7809   -5.7953 H   0  0  0  0  0  0  0  0  0  0  0  0
    2.0243   -0.2346   -5.4131 H   0  0  0  0  0  0  0  0  0  0  0  0
    5.4712   -1.2645   -2.6305 H   0  0  0  0  0  0  0  0  0  0  0  0
    4.0452   -2.3914    3.8661 H   0  0  0  0  0  0  0  0  0  0  0  0
    2.6895   -3.5564    1.9395 H   0  0  0  0  0  0  0  0  0  0  0  0
  1  2  2  0
  2 15  1  0
  2  3  1  0
  3  4  1  0
  3  9  2  0
  4  5  2  3
  4 16  1  0
  5  6  1  0
  6  8  1  0
  6  7  1  0
  6 17  1  0
  7  8  1  0
  7 18  1  0
  7 19  1  0
  8 20  1  0
  8 21  1  0
  9 10  1  0
  9 22  1  0
 10 11  2  0
 11 15  1  0
 11 12  1  0
 12 13  1  0
 13 14  2  0
 13 23  1  0
 14 15  1  0
 14 24  1  0
M  END
>  <i_m_ct_stereo_status>  (10) 
1

>  <s_m_source_file>  (10) 
/var/tmp/pbs.5076255.sched01/tmpj20d55gn/0_c3see42.sdf

>  <i_m_source_file_index>  (10) 
4

>  <i_lp_mmshare_version>  (10) 
48012

>  <i_f3d_flags>  (10) 
0

>  <s_epik_input>  (10) 
czFbY0hdW2NIXW4oYzEyKWMoPU8pYyhbY0hdbjIpL1tDSF09Ti9bQ0hdM1tDSDJdW0NIMl0z

>  <s_epik_cmdline>  (10) 
J2VwaWtfcHl0aG9uJywgJy1waHQnLCAnMi4wJywgJy1waCcsICc3LjAnLCAnLXRuJywgJzgnLCAnLW1hJywgJzIwMCcsICctaW1hZScsICc8aW5maWxlLm1hZT4nLCAnLW9tYWUnLCAnPG91dGZpbGUubWFlPic=

>  <r_epik_Ionization_Penalty>  (10) 
3.17671

>  <r_epik_Ionization_Penalty_Charging>  (10) 
0

>  <r_epik_Ionization_Penalty_Neutral>  (10) 
3.17671

>  <r_epik_State_Penalty>  (10) 
2.09419

>  <r_epik_Charging_Adjusted_Penalty>  (10) 
2.09419

>  <i_epik_Tot_Q>  (10) 
0

>  <i_epik_Tot_abs_Q>  (10) 
0

>  <s_epik_Chemistry_Notes>  (10) 
This compound has an imine and may undergo hydrolysis.

>  <s_lp_Force_Field>  (10) 
OPLS3e

>  <r_lp_Energy>  (10) 
50.7004

>  <b_lp_Chiralities_Consistent>  (10) 
1

>  <s_lp_Variant>  (10) 
0:0-4

>  <s_i_glide_gridfile>  (10) 
pfpi4k_grid

>  <i_i_glide_lignum>  (10) 
4

>  <i_i_glide_rotatable_bonds>  (10) 
2

>  <r_i_docking_score>  (10) 
-3.49121

>  <r_i_glide_ligand_efficiency>  (10) 
-0.232747

>  <r_i_glide_ligand_efficiency_sa>  (10) 
-0.574005

>  <r_i_glide_ligand_efficiency_ln>  (10) 
-0.941522

>  <r_i_glide_gscore>  (10) 
-3.49121

>  <r_i_glide_lipo>  (10) 
-0.262435

>  <r_i_glide_hbond>  (10) 
-0.32

>  <r_i_glide_metal>  (10) 
-0

>  <r_i_glide_rewards>  (10) 
-2.06303

>  <r_i_glide_evdw>  (10) 
-23.9023

>  <r_i_glide_ecoul>  (10) 
-2.23833

>  <r_i_glide_erotb>  (10) 
0.699969

>  <r_i_glide_esite>  (10) 
-0.01485

>  <r_i_glide_emodel>  (10) 
-31.2189

>  <r_i_glide_energy>  (10) 
-26.1407

>  <r_i_glide_einternal>  (10) 
1.16257

>  <r_i_glide_intrahb_reward>  (10) 
-0

>  <i_i_glide_confnum>  (10) 
2

>  <i_i_glide_posenum>  (10) 
14

>  <r_i_glide_eff_state_penalty>  (10) 
0

>  <ligand_id>  (10) 
0

>  <original_smiles>  (10) 
O=c1c(C=NC2CC2)cnc2sccn12

>  <smiles>  (10) 
[H]C(=NC1([H])C([H])([H])C1([H])[H])c1c([H])nc2sc([H])c([H])n2c1=O

$$$$
0:3:1
     RDKit          3D

 24 26  0  0  1  0  0  0  0  0999 V2000
    0.9903   -6.0999    1.1428 O   0  0  0  0  0  0  0  0  0  0  0  0
    1.6667   -7.0464    1.5092 C   0  0  0  0  0  0  0  0  0  0  0  0
    3.1431   -7.1628    1.3632 C   0  0  0  0  0  0  0  0  0  0  0  0
    3.9050   -6.0647    0.6380 C   0  0  0  0  0  0  0  0  0  0  0  0
    5.1716   -5.8344    0.6249 N   0  0  0  0  0  0  0  0  0  0  0  0
    6.1065   -6.6024    1.4570 C   0  0  0  0  0  0  0  0  0  0  0  0
    6.5683   -5.8869    2.7059 C   0  0  0  0  0  0  0  0  0  0  0  0
    7.5011   -6.0573    1.5036 C   0  0  0  0  0  0  0  0  0  0  0  0
    3.7012   -8.3489    1.6760 C   0  0  0  0  0  0  0  0  0  0  0  0
    3.0624   -9.3925    2.3183 N   0  0  0  0  0  0  0  0  0  0  0  0
    1.7987   -9.2866    2.5068 C   0  0  0  0  0  0  0  0  0  0  0  0
    0.7014  -10.5002    3.2823 S   0  0  0  0  0  0  0  0  0  0  0  0
   -0.6096   -9.3982    2.9914 C   0  0  0  0  0  0  0  0  0  0  0  0
   -0.2696   -8.2482    2.3994 C   0  0  0  0  0  0  0  0  0  0  0  0
    1.0972   -8.1471    2.1043 N   0  0  0  0  0  0  0  0  0  0  0  0
    3.2366   -5.3709    0.0818 H   0  0  0  0  0  0  0  0  0  0  0  0
    6.2191   -7.6697    1.2504 H   0  0  0  0  0  0  0  0  0  0  0  0
    6.2004   -4.9004    2.9212 H   0  0  0  0  0  0  0  0  0  0  0  0
    6.7014   -6.5602    3.5516 H   0  0  0  0  0  0  0  0  0  0  0  0
    8.2313   -6.8670    1.5570 H   0  0  0  0  0  0  0  0  0  0  0  0
    7.7557   -5.2198    0.8849 H   0  0  0  0  0  0  0  0  0  0  0  0
    4.6963   -8.7199    1.4561 H   0  0  0  0  0  0  0  0  0  0  0  0
   -1.5864   -9.6968    3.2913 H   0  0  0  0  0  0  0  0  0  0  0  0
   -0.9064   -7.4313    2.1212 H   0  0  0  0  0  0  0  0  0  0  0  0
  1  2  2  0
  2 15  1  0
  2  3  1  0
  3  4  1  0
  3  9  2  0
  4  5  2  3
  4 16  1  0
  5  6  1  0
  6  8  1  0
  6  7  1  0
  6 17  1  0
  7  8  1  0
  7 18  1  0
  7 19  1  0
  8 20  1  0
  8 21  1  0
  9 10  1  0
  9 22  1  0
 10 11  2  0
 11 15  1  0
 11 12  1  0
 12 13  1  0
 13 14  2  0
 13 23  1  0
 14 15  1  0
 14 24  1  0
M  END
>  <i_m_ct_stereo_status>  (11) 
1

>  <s_m_source_file>  (11) 
/var/tmp/pbs.5076255.sched01/tmpj20d55gn/0_c3see42.sdf

>  <i_m_source_file_index>  (11) 
4

>  <i_lp_mmshare_version>  (11) 
48012

>  <i_f3d_flags>  (11) 
0

>  <s_epik_input>  (11) 
czFbY0hdW2NIXW4oYzEyKWMoPU8pYyhbY0hdbjIpL1tDSF09Ti9bQ0hdM1tDSDJdW0NIMl0z

>  <s_epik_cmdline>  (11) 
J2VwaWtfcHl0aG9uJywgJy1waHQnLCAnMi4wJywgJy1waCcsICc3LjAnLCAnLXRuJywgJzgnLCAnLW1hJywgJzIwMCcsICctaW1hZScsICc8aW5maWxlLm1hZT4nLCAnLW9tYWUnLCAnPG91dGZpbGUubWFlPic=

>  <r_epik_Ionization_Penalty>  (11) 
3.17671

>  <r_epik_Ionization_Penalty_Charging>  (11) 
0

>  <r_epik_Ionization_Penalty_Neutral>  (11) 
3.17671

>  <r_epik_State_Penalty>  (11) 
2.09419

>  <r_epik_Charging_Adjusted_Penalty>  (11) 
2.09419

>  <i_epik_Tot_Q>  (11) 
0

>  <i_epik_Tot_abs_Q>  (11) 
0

>  <s_epik_Chemistry_Notes>  (11) 
This compound has an imine and may undergo hydrolysis.

>  <s_lp_Force_Field>  (11) 
OPLS3e

>  <r_lp_Energy>  (11) 
50.7004

>  <b_lp_Chiralities_Consistent>  (11) 
1

>  <s_lp_Variant>  (11) 
0:0-4

>  <s_i_glide_gridfile>  (11) 
pfpi4k_grid

>  <i_i_glide_lignum>  (11) 
4

>  <i_i_glide_rotatable_bonds>  (11) 
2

>  <r_i_docking_score>  (11) 
-3.43027

>  <r_i_glide_ligand_efficiency>  (11) 
-0.228685

>  <r_i_glide_ligand_efficiency_sa>  (11) 
-0.563985

>  <r_i_glide_ligand_efficiency_ln>  (11) 
-0.925087

>  <r_i_glide_gscore>  (11) 
-3.43027

>  <r_i_glide_lipo>  (11) 
-0.275134

>  <r_i_glide_hbond>  (11) 
-0.16

>  <r_i_glide_metal>  (11) 
-0

>  <r_i_glide_rewards>  (11) 
-2.08454

>  <r_i_glide_evdw>  (11) 
-22.3645

>  <r_i_glide_ecoul>  (11) 
-3.04054

>  <r_i_glide_erotb>  (11) 
0.699969

>  <r_i_glide_esite>  (11) 
-0.036257

>  <r_i_glide_emodel>  (11) 
-28.9348

>  <r_i_glide_energy>  (11) 
-25.405

>  <r_i_glide_einternal>  (11) 
0.159895

>  <r_i_glide_intrahb_reward>  (11) 
-0

>  <i_i_glide_confnum>  (11) 
6

>  <i_i_glide_posenum>  (11) 
17

>  <r_i_glide_eff_state_penalty>  (11) 
0

>  <ligand_id>  (11) 
0

>  <original_smiles>  (11) 
O=c1c(C=NC2CC2)cnc2sccn12

>  <smiles>  (11) 
[H]C(=NC1([H])C([H])([H])C1([H])[H])c1c([H])nc2sc([H])c([H])n2c1=O

$$$$
0:3:2
     RDKit          3D

 24 26  0  0  1  0  0  0  0  0999 V2000
    2.3978   -4.0157   -0.5990 O   0  0  0  0  0  0  0  0  0  0  0  0
    3.0464   -2.9717   -0.5295 C   0  0  0  0  0  0  0  0  0  0  0  0
    3.5758   -2.2027   -1.6869 C   0  0  0  0  0  0  0  0  0  0  0  0
    3.3265   -2.6726   -3.0876 C   0  0  0  0  0  0  0  0  0  0  0  0
    3.3975   -1.9772   -4.1645 N   0  0  0  0  0  0  0  0  0  0  0  0
    3.4116   -0.5151   -4.1952 C   0  0  0  0  0  0  0  0  0  0  0  0
    2.2211    0.1420   -4.8761 C   0  0  0  0  0  0  0  0  0  0  0  0
    3.5662    0.0628   -5.5733 C   0  0  0  0  0  0  0  0  0  0  0  0
    4.4623   -1.2071   -1.4099 C   0  0  0  0  0  0  0  0  0  0  0  0
    4.6862   -0.6947   -0.1394 N   0  0  0  0  0  0  0  0  0  0  0  0
    4.1690   -1.3180    0.8730 C   0  0  0  0  0  0  0  0  0  0  0  0
    4.3309   -0.9158    2.6345 S   0  0  0  0  0  0  0  0  0  0  0  0
    3.4105   -2.3527    3.0013 C   0  0  0  0  0  0  0  0  0  0  0  0
    3.0024   -3.0335    1.9186 C   0  0  0  0  0  0  0  0  0  0  0  0
    3.3900   -2.4615    0.7002 N   0  0  0  0  0  0  0  0  0  0  0  0
    3.0722   -3.7553   -3.1477 H   0  0  0  0  0  0  0  0  0  0  0  0
    3.7521    0.0301   -3.3239 H   0  0  0  0  0  0  0  0  0  0  0  0
    1.3817   -0.4692   -5.2059 H   0  0  0  0  0  0  0  0  0  0  0  0
    1.9576    1.0477   -4.3768 H   0  0  0  0  0  0  0  0  0  0  0  0
    4.2192    0.9349   -5.5470 H   0  0  0  0  0  0  0  0  0  0  0  0
    3.6776   -0.5992   -6.4280 H   0  0  0  0  0  0  0  0  0  0  0  0
    5.1042   -0.7387   -2.1536 H   0  0  0  0  0  0  0  0  0  0  0  0
    3.2210   -2.5985    4.0287 H   0  0  0  0  0  0  0  0  0  0  0  0
    2.4105   -3.9355    1.8977 H   0  0  0  0  0  0  0  0  0  0  0  0
  1  2  2  0
  2 15  1  0
  2  3  1  0
  3  4  1  0
  3  9  2  0
  4  5  2  3
  4 16  1  0
  5  6  1  0
  6  8  1  0
  6  7  1  0
  6 17  1  0
  7  8  1  0
  7 18  1  0
  7 19  1  0
  8 20  1  0
  8 21  1  0
  9 10  1  0
  9 22  1  0
 10 11  2  0
 11 15  1  0
 11 12  1  0
 12 13  1  0
 13 14  2  0
 13 23  1  0
 14 15  1  0
 14 24  1  0
M  END
>  <i_m_ct_stereo_status>  (12) 
1

>  <s_m_source_file>  (12) 
/var/tmp/pbs.5076255.sched01/tmpj20d55gn/0_c3see42.sdf

>  <i_m_source_file_index>  (12) 
4

>  <i_lp_mmshare_version>  (12) 
48012

>  <i_f3d_flags>  (12) 
0

>  <s_epik_input>  (12) 
czFbY0hdW2NIXW4oYzEyKWMoPU8pYyhbY0hdbjIpL1tDSF09Ti9bQ0hdM1tDSDJdW0NIMl0z

>  <s_epik_cmdline>  (12) 
J2VwaWtfcHl0aG9uJywgJy1waHQnLCAnMi4wJywgJy1waCcsICc3LjAnLCAnLXRuJywgJzgnLCAnLW1hJywgJzIwMCcsICctaW1hZScsICc8aW5maWxlLm1hZT4nLCAnLW9tYWUnLCAnPG91dGZpbGUubWFlPic=

>  <r_epik_Ionization_Penalty>  (12) 
3.17671

>  <r_epik_Ionization_Penalty_Charging>  (12) 
0

>  <r_epik_Ionization_Penalty_Neutral>  (12) 
3.17671

>  <r_epik_State_Penalty>  (12) 
2.09419

>  <r_epik_Charging_Adjusted_Penalty>  (12) 
2.09419

>  <i_epik_Tot_Q>  (12) 
0

>  <i_epik_Tot_abs_Q>  (12) 
0

>  <s_epik_Chemistry_Notes>  (12) 
This compound has an imine and may undergo hydrolysis.

>  <s_lp_Force_Field>  (12) 
OPLS3e

>  <r_lp_Energy>  (12) 
50.7004

>  <b_lp_Chiralities_Consistent>  (12) 
1

>  <s_lp_Variant>  (12) 
0:0-4

>  <s_i_glide_gridfile>  (12) 
pfpi4k_grid

>  <i_i_glide_lignum>  (12) 
4

>  <i_i_glide_rotatable_bonds>  (12) 
2

>  <r_i_docking_score>  (12) 
-3.27309

>  <r_i_glide_ligand_efficiency>  (12) 
-0.218206

>  <r_i_glide_ligand_efficiency_sa>  (12) 
-0.538142

>  <r_i_glide_ligand_efficiency_ln>  (12) 
-0.882698

>  <r_i_glide_gscore>  (12) 
-3.27309

>  <r_i_glide_lipo>  (12) 
-0.361269

>  <r_i_glide_hbond>  (12) 
-0.205825

>  <r_i_glide_metal>  (12) 
-0

>  <r_i_glide_rewards>  (12) 
-1.99523

>  <r_i_glide_evdw>  (12) 
-21.017

>  <r_i_glide_ecoul>  (12) 
-2.13664

>  <r_i_glide_erotb>  (12) 
0.699969

>  <r_i_glide_esite>  (12) 
-0.0393896

>  <r_i_glide_emodel>  (12) 
-27.4284

>  <r_i_glide_energy>  (12) 
-23.1537

>  <r_i_glide_einternal>  (12) 
0.891122

>  <r_i_glide_intrahb_reward>  (12) 
-0

>  <i_i_glide_confnum>  (12) 
6

>  <i_i_glide_posenum>  (12) 
23

>  <r_i_glide_eff_state_penalty>  (12) 
0

>  <ligand_id>  (12) 
0

>  <original_smiles>  (12) 
O=c1c(C=NC2CC2)cnc2sccn12

>  <smiles>  (12) 
[H]C(=NC1([H])C([H])([H])C1([H])[H])c1c([H])nc2sc([H])c([H])n2c1=O

$$$$
2:0:0
     RDKit          3D

 69 74  0  0  1  0  0  0  0  0999 V2000
   -0.5325    0.2764    3.5646 C   0  0  0  0  0  0  0  0  0  0  0  0
    0.8406    0.9564    3.5537 C   0  0  0  0  0  0  0  0  0  0  0  0
    1.2192    1.3576    2.1076 C   0  0  0  0  0  0  0  0  0  0  0  0
    0.8100    2.2545    4.3916 C   0  0  0  0  0  0  0  0  0  0  0  0
    2.1599    2.4936    4.7777 O   0  0  0  0  0  0  0  0  0  0  0  0
    2.8538    1.3223    4.6768 C   0  0  0  0  0  0  0  0  0  0  0  0
    4.1814    1.2538    4.7015 C   0  0  0  0  0  0  0  0  0  0  0  0
    4.9081   -0.0182    4.3524 C   0  0  0  0  0  0  0  0  0  0  0  0
    4.0588   -1.3141    4.5363 C   0  0  2  0  0  0  0  0  0  0  0  0
    4.0839   -1.5657    6.0752 C   0  0  0  0  0  0  0  0  0  0  0  0
    4.7338   -2.4403    3.6815 C   0  0  1  0  0  0  0  0  0  0  0  0
    4.5382   -3.8544    4.2614 C   0  0  0  0  0  0  0  0  0  0  0  0
    4.3970   -4.7585    3.0663 C   0  0  1  0  0  0  0  0  0  0  0  0
    3.6016   -5.8870    3.3580 O   0  0  0  0  0  0  0  0  0  0  0  0
    3.8068   -3.9238    1.9059 C   0  0  2  0  0  0  0  0  0  0  0  0
    4.5026   -4.3105    0.5579 C   0  0  1  0  0  0  0  0  0  0  0  0
    4.8864   -5.8064    0.3970 C   0  0  0  0  0  0  0  0  0  0  0  0
    3.6806   -3.9549   -0.7048 C   0  0  0  0  0  0  0  0  0  0  0  0
    3.3745   -2.4726   -0.9005 C   0  0  0  0  0  0  0  0  0  0  0  0
    4.3911   -1.5149   -0.2598 C   0  0  0  0  0  0  0  0  0  0  0  0
    5.1134   -2.0522    1.0116 C   0  0  2  0  0  0  0  0  0  0  0  0
    6.2482   -1.0565    1.2812 C   0  0  0  0  0  0  0  0  0  0  0  0
    5.7245   -3.4007    0.6003 C   0  0  0  0  0  0  0  0  0  0  0  0
    4.1382   -2.4115    2.2218 C   0  0  2  0  0  0  0  0  0  0  0  0
    2.9476   -1.3887    2.4006 C   0  0  1  0  0  0  0  0  0  0  0  0
    1.7843   -1.7675    1.6945 O   0  0  0  0  0  0  0  0  0  0  0  0
    2.6166   -1.1772    3.9124 C   0  0  1  0  0  0  0  0  0  0  0  0
    1.6447   -2.3019    4.3944 C   0  0  0  0  0  0  0  0  0  0  0  0
    1.9307    0.1912    4.3393 C   0  0  2  0  0  0  0  0  0  0  0  0
   -1.3128    0.9430    3.1952 H   0  0  0  0  0  0  0  0  0  0  0  0
   -0.8265   -0.0606    4.5580 H   0  0  0  0  0  0  0  0  0  0  0  0
   -0.5146   -0.5881    2.9088 H   0  0  0  0  0  0  0  0  0  0  0  0
    2.2520    1.7031    2.0372 H   0  0  0  0  0  0  0  0  0  0  0  0
    0.5900    2.1767    1.7585 H   0  0  0  0  0  0  0  0  0  0  0  0
    1.0734    0.5591    1.3827 H   0  0  0  0  0  0  0  0  0  0  0  0
    0.3955    3.1039    3.8483 H   0  0  0  0  0  0  0  0  0  0  0  0
    0.2122    2.1207    5.2934 H   0  0  0  0  0  0  0  0  0  0  0  0
    4.7648    2.1441    4.8680 H   0  0  0  0  0  0  0  0  0  0  0  0
    5.1955    0.1164    3.3195 H   0  0  0  0  0  0  0  0  0  0  0  0
    5.8336   -0.0649    4.9257 H   0  0  0  0  0  0  0  0  0  0  0  0
    3.5299   -2.4387    6.4083 H   0  0  0  0  0  0  0  0  0  0  0  0
    3.6683   -0.7147    6.6146 H   0  0  0  0  0  0  0  0  0  0  0  0
    5.1062   -1.6928    6.4302 H   0  0  0  0  0  0  0  0  0  0  0  0
    5.8118   -2.3070    3.6700 H   0  0  0  0  0  0  0  0  0  0  0  0
    5.3890   -4.1547    4.8758 H   0  0  0  0  0  0  0  0  0  0  0  0
    3.6700   -3.9707    4.9013 H   0  0  0  0  0  0  0  0  0  0  0  0
    5.4120   -5.0891    2.8597 H   0  0  0  0  0  0  0  0  0  0  0  0
    3.7092   -6.5185    2.6595 H   0  0  0  0  0  0  0  0  0  0  0  0
    2.7322   -4.0959    1.8518 H   0  0  0  0  0  0  0  0  0  0  0  0
    5.2481   -6.0038   -0.6115 H   0  0  0  0  0  0  0  0  0  0  0  0
    4.0259   -6.4576    0.5601 H   0  0  0  0  0  0  0  0  0  0  0  0
    5.6920   -6.1260    1.0550 H   0  0  0  0  0  0  0  0  0  0  0  0
    4.2335   -4.2767   -1.5895 H   0  0  0  0  0  0  0  0  0  0  0  0
    2.7442   -4.5192   -0.7183 H   0  0  0  0  0  0  0  0  0  0  0  0
    3.2858   -2.2536   -1.9651 H   0  0  0  0  0  0  0  0  0  0  0  0
    2.3829   -2.3031   -0.5143 H   0  0  0  0  0  0  0  0  0  0  0  0
    5.1452   -1.3024   -1.0199 H   0  0  0  0  0  0  0  0  0  0  0  0
    3.9113   -0.5535   -0.0745 H   0  0  0  0  0  0  0  0  0  0  0  0
    6.8240   -1.2697    2.1731 H   0  0  0  0  0  0  0  0  0  0  0  0
    5.8744   -0.0341    1.3347 H   0  0  0  0  0  0  0  0  0  0  0  0
    6.9655   -1.0655    0.4606 H   0  0  0  0  0  0  0  0  0  0  0  0
    6.4488   -3.7376    1.3412 H   0  0  0  0  0  0  0  0  0  0  0  0
    6.2389   -3.3581   -0.3607 H   0  0  0  0  0  0  0  0  0  0  0  0
    3.2828   -0.4209    2.0308 H   0  0  0  0  0  0  0  0  0  0  0  0
    1.8094   -1.4201    0.8063 H   0  0  0  0  0  0  0  0  0  0  0  0
    0.6315   -2.1362    4.0393 H   0  0  0  0  0  0  0  0  0  0  0  0
    1.5672   -2.3539    5.4780 H   0  0  0  0  0  0  0  0  0  0  0  0
    1.9035   -3.2898    4.0261 H   0  0  0  0  0  0  0  0  0  0  0  0
    1.4986   -0.0240    5.3195 H   0  0  0  0  0  0  0  0  0  0  0  0
  1  2  1  0
  1 30  1  0
  1 31  1  0
  1 32  1  0
  2 29  1  0
  2  3  1  0
  2  4  1  0
  3 33  1  0
  3 34  1  0
  3 35  1  0
  4  5  1  0
  4 36  1  0
  4 37  1  0
  5  6  1  0
  6 29  1  0
  6  7  2  0
  7  8  1  0
  7 38  1  0
  8  9  1  0
  8 39  1  0
  8 40  1  0
  9 27  1  0
  9 10  1  1
  9 11  1  0
 10 41  1  0
 10 42  1  0
 10 43  1  0
 11 24  1  0
 11 12  1  0
 11 44  1  6
 12 13  1  0
 12 45  1  0
 12 46  1  0
 13 14  1  0
 13 15  1  0
 13 47  1  6
 14 48  1  0
 15 24  1  0
 15 16  1  0
 15 49  1  6
 16 23  1  0
 16 17  1  1
 16 18  1  0
 17 50  1  0
 17 51  1  0
 17 52  1  0
 18 19  1  0
 18 53  1  0
 18 54  1  0
 19 20  1  0
 19 55  1  0
 19 56  1  0
 20 21  1  0
 20 57  1  0
 20 58  1  0
 21 22  1  1
 21 23  1  0
 24 21  1  6
 22 59  1  0
 22 60  1  0
 22 61  1  0
 23 62  1  0
 23 63  1  0
 24 25  1  0
 25 26  1  0
 25 27  1  0
 25 64  1  6
 26 65  1  0
 27 28  1  1
 27 29  1  0
 28 66  1  0
 28 67  1  0
 28 68  1  0
 29 69  1  1
M  END
>  <i_m_ct_stereo_status>  (13) 
1

>  <s_m_source_file>  (13) 
/var/tmp/pbs.5076255.sched01/tmpj20d55gn/0_c3see42.sdf

>  <i_m_source_file_index>  (13) 
6

>  <i_lp_mmshare_version>  (13) 
48012

>  <i_f3d_flags>  (13) 
0

>  <s_epik_input>  (13) 
W0NIM11DMShbQ0gzXSlbQ0gyXU9DKD1bQ0hdW0NIMl0yKVtDQEBIXTFbQ0BAXShbQ0gzXSkoW0NAQEhdM1tPSF0pW0NAQF0yKFtDSDNdKVtDQEhdKFtDQF0zNDUpW0NIMl1bQ0BASF0oW09IXSlbQ0BASF00W0NAQF02KFtDSDNdKVtDSDJdW0NIMl1bQ0gyXVtDQF01KFtDSDNdKVtDSDJdNg==

>  <s_epik_cmdline>  (13) 
J2VwaWtfcHl0aG9uJywgJy1waHQnLCAnMi4wJywgJy1waCcsICc3LjAnLCAnLXRuJywgJzgnLCAnLW1hJywgJzIwMCcsICctaW1hZScsICc8aW5maWxlLm1hZT4nLCAnLW9tYWUnLCAnPG91dGZpbGUubWFlPic=

>  <r_lp_tautomer_probability>  (13) 
1

>  <r_epik_Ionization_Penalty>  (13) 
2.3817e-06

>  <r_epik_Ionization_Penalty_Charging>  (13) 
0

>  <r_epik_Ionization_Penalty_Neutral>  (13) 
2.3817e-06

>  <r_epik_State_Penalty>  (13) 
-0

>  <r_epik_Charging_Adjusted_Penalty>  (13) 
0

>  <i_epik_Tot_Q>  (13) 
0

>  <i_epik_Tot_abs_Q>  (13) 
0

>  <s_lp_Force_Field>  (13) 
OPLS3e

>  <r_lp_Energy>  (13) 
73.9904

>  <b_lp_Chiralities_Consistent>  (13) 
1

>  <s_lp_Variant>  (13) 
2:0-1

>  <s_i_glide_gridfile>  (13) 
pfpi4k_grid

>  <i_i_glide_lignum>  (13) 
6

>  <i_i_glide_rotatable_bonds>  (13) 
2

>  <r_i_docking_score>  (13) 
-2.66519

>  <r_i_glide_ligand_efficiency>  (13) 
-0.0919032

>  <r_i_glide_ligand_efficiency_sa>  (13) 
-0.282356

>  <r_i_glide_ligand_efficiency_ln>  (13) 
-0.610262

>  <r_i_glide_gscore>  (13) 
-2.66519

>  <r_i_glide_lipo>  (13) 
-0.508628

>  <r_i_glide_hbond>  (13) 
-0.140297

>  <r_i_glide_metal>  (13) 
-0

>  <r_i_glide_rewards>  (13) 
-0.677768

>  <r_i_glide_evdw>  (13) 
-23.8083

>  <r_i_glide_ecoul>  (13) 
-0.987236

>  <r_i_glide_erotb>  (13) 
0

>  <r_i_glide_esite>  (13) 
0

>  <r_i_glide_emodel>  (13) 
-28.4207

>  <r_i_glide_energy>  (13) 
-24.7955

>  <r_i_glide_einternal>  (13) 
1.1422

>  <r_i_glide_intrahb_reward>  (13) 
-0

>  <i_i_glide_confnum>  (13) 
2

>  <i_i_glide_posenum>  (13) 
13

>  <r_i_glide_eff_state_penalty>  (13) 
0

>  <ligand_id>  (13) 
2

>  <original_smiles>  (13) 
CC1(C)COC2=CCC3(C)C4CC(O)C5C6(C)CCCC(C)(C6)C54C(O)C3(C)C21

>  <smiles>  (13) 
[H]OC1([H])C([H])([H])C2([H])C3(C([H])([H])[H])C([H])([H])C([H])=C4OC([H])([H])C(C([H])([H])[H])(C([H])([H])[H])C4([H])C3(C([H])([H])[H])C([H])(O[H])C23C1([H])C1(C([H])([H])[H])C([H])([H])C([H])([H])C([H])([H])C3(C([H])([H])[H])C1([H])[H]

$$$$
2:0:1
     RDKit          3D

 69 74  0  0  1  0  0  0  0  0999 V2000
   -1.6910    1.5657    6.8736 C   0  0  0  0  0  0  0  0  0  0  0  0
   -1.1352    2.1676    5.5714 C   0  0  0  0  0  0  0  0  0  0  0  0
   -1.5242    1.2824    4.3667 C   0  0  0  0  0  0  0  0  0  0  0  0
   -1.7366    3.5690    5.3158 C   0  0  0  0  0  0  0  0  0  0  0  0
   -0.8142    4.2372    4.4598 O   0  0  0  0  0  0  0  0  0  0  0  0
    0.3950    3.6105    4.5552 C   0  0  0  0  0  0  0  0  0  0  0  0
    1.3895    3.7910    3.6874 C   0  0  0  0  0  0  0  0  0  0  0  0
    2.6143    2.9136    3.7115 C   0  0  0  0  0  0  0  0  0  0  0  0
    2.8897    2.2126    5.0821 C   0  0  2  0  0  0  0  0  0  0  0  0
    3.5228    3.3299    5.9646 C   0  0  0  0  0  0  0  0  0  0  0  0
    3.8337    0.9912    4.8065 C   0  0  1  0  0  0  0  0  0  0  0  0
    4.7606    0.6429    5.9848 C   0  0  0  0  0  0  0  0  0  0  0  0
    4.8766   -0.8590    5.9734 C   0  0  1  0  0  0  0  0  0  0  0  0
    5.1143   -1.3742    7.2663 O   0  0  0  0  0  0  0  0  0  0  0  0
    3.5817   -1.4322    5.3524 C   0  0  2  0  0  0  0  0  0  0  0  0
    3.9167   -2.6414    4.4158 C   0  0  1  0  0  0  0  0  0  0  0  0
    5.0890   -3.5500    4.8783 C   0  0  0  0  0  0  0  0  0  0  0  0
    2.7227   -3.6001    4.1693 C   0  0  0  0  0  0  0  0  0  0  0  0
    1.4993   -2.9733    3.4906 C   0  0  0  0  0  0  0  0  0  0  0  0
    1.8245   -1.7599    2.5924 C   0  0  0  0  0  0  0  0  0  0  0  0
    3.0642   -0.9077    3.0090 C   0  0  2  0  0  0  0  0  0  0  0  0
    3.3353    0.0454    1.8229 C   0  0  0  0  0  0  0  0  0  0  0  0
    4.2283   -1.9071    3.1142 C   0  0  0  0  0  0  0  0  0  0  0  0
    2.9583   -0.2752    4.4721 C   0  0  2  0  0  0  0  0  0  0  0  0
    1.5151    0.2600    4.8327 C   0  0  1  0  0  0  0  0  0  0  0  0
    0.7123   -0.7061    5.4784 O   0  0  0  0  0  0  0  0  0  0  0  0
    1.5897    1.5610    5.6873 C   0  0  1  0  0  0  0  0  0  0  0  0
    1.7480    1.1741    7.1926 C   0  0  0  0  0  0  0  0  0  0  0  0
    0.3585    2.5631    5.6302 C   0  0  2  0  0  0  0  0  0  0  0  0
   -2.7812    1.5369    6.8627 H   0  0  0  0  0  0  0  0  0  0  0  0
   -1.3919    2.1445    7.7478 H   0  0  0  0  0  0  0  0  0  0  0  0
   -1.3419    0.5447    7.0135 H   0  0  0  0  0  0  0  0  0  0  0  0
   -1.0155    1.5773    3.4475 H   0  0  0  0  0  0  0  0  0  0  0  0
   -2.5833    1.3762    4.1572 H   0  0  0  0  0  0  0  0  0  0  0  0
   -1.3534    0.2215    4.5348 H   0  0  0  0  0  0  0  0  0  0  0  0
   -2.7296    3.5357    4.8681 H   0  0  0  0  0  0  0  0  0  0  0  0
   -1.8156    4.1367    6.2435 H   0  0  0  0  0  0  0  0  0  0  0  0
    1.2909    4.5027    2.8790 H   0  0  0  0  0  0  0  0  0  0  0  0
    2.4354    2.1888    2.9303 H   0  0  0  0  0  0  0  0  0  0  0  0
    3.4699    3.5048    3.3900 H   0  0  0  0  0  0  0  0  0  0  0  0
    3.7752    3.0263    6.9763 H   0  0  0  0  0  0  0  0  0  0  0  0
    2.8457    4.1783    6.0600 H   0  0  0  0  0  0  0  0  0  0  0  0
    4.4396    3.7062    5.5141 H   0  0  0  0  0  0  0  0  0  0  0  0
    4.5137    1.2265    3.9934 H   0  0  0  0  0  0  0  0  0  0  0  0
    5.7414    1.1074    5.8721 H   0  0  0  0  0  0  0  0  0  0  0  0
    4.3997    0.9686    6.9549 H   0  0  0  0  0  0  0  0  0  0  0  0
    5.7486   -1.0562    5.3565 H   0  0  0  0  0  0  0  0  0  0  0  0
    5.2944   -2.2987    7.1925 H   0  0  0  0  0  0  0  0  0  0  0  0
    2.9053   -1.7401    6.1498 H   0  0  0  0  0  0  0  0  0  0  0  0
    5.1943   -4.4224    4.2328 H   0  0  0  0  0  0  0  0  0  0  0  0
    4.9323   -3.9167    5.8937 H   0  0  0  0  0  0  0  0  0  0  0  0
    6.0580   -3.0594    4.8480 H   0  0  0  0  0  0  0  0  0  0  0  0
    3.0601   -4.4150    3.5249 H   0  0  0  0  0  0  0  0  0  0  0  0
    2.4182   -4.0770    5.1047 H   0  0  0  0  0  0  0  0  0  0  0  0
    1.0155   -3.7366    2.8812 H   0  0  0  0  0  0  0  0  0  0  0  0
    0.7546   -2.7413    4.2414 H   0  0  0  0  0  0  0  0  0  0  0  0
    2.0096   -2.1508    1.5899 H   0  0  0  0  0  0  0  0  0  0  0  0
    0.9338   -1.1438    2.4751 H   0  0  0  0  0  0  0  0  0  0  0  0
    4.1628    0.7253    1.9904 H   0  0  0  0  0  0  0  0  0  0  0  0
    2.4505    0.6150    1.5462 H   0  0  0  0  0  0  0  0  0  0  0  0
    3.6029   -0.5236    0.9320 H   0  0  0  0  0  0  0  0  0  0  0  0
    5.1810   -1.3819    3.1717 H   0  0  0  0  0  0  0  0  0  0  0  0
    4.2891   -2.5834    2.2605 H   0  0  0  0  0  0  0  0  0  0  0  0
    1.0282    0.5348    3.8994 H   0  0  0  0  0  0  0  0  0  0  0  0
    0.6319   -1.4390    4.8917 H   0  0  0  0  0  0  0  0  0  0  0  0
    0.8122    0.8194    7.6142 H   0  0  0  0  0  0  0  0  0  0  0  0
    2.0460    2.0146    7.8139 H   0  0  0  0  0  0  0  0  0  0  0  0
    2.4467    0.3602    7.3607 H   0  0  0  0  0  0  0  0  0  0  0  0
    0.4726    3.1755    6.5265 H   0  0  0  0  0  0  0  0  0  0  0  0
  1  2  1  0
  1 30  1  0
  1 31  1  0
  1 32  1  0
  2 29  1  0
  2  3  1  0
  2  4  1  0
  3 33  1  0
  3 34  1  0
  3 35  1  0
  4  5  1  0
  4 36  1  0
  4 37  1  0
  5  6  1  0
  6 29  1  0
  6  7  2  0
  7  8  1  0
  7 38  1  0
  8  9  1  0
  8 39  1  0
  8 40  1  0
  9 27  1  0
  9 10  1  1
  9 11  1  0
 10 41  1  0
 10 42  1  0
 10 43  1  0
 11 24  1  0
 11 12  1  0
 11 44  1  6
 12 13  1  0
 12 45  1  0
 12 46  1  0
 13 14  1  0
 13 15  1  0
 13 47  1  6
 14 48  1  0
 15 24  1  0
 15 16  1  0
 15 49  1  1
 16 23  1  0
 16 17  1  1
 16 18  1  0
 17 50  1  0
 17 51  1  0
 17 52  1  0
 18 19  1  0
 18 53  1  0
 18 54  1  0
 19 20  1  0
 19 55  1  0
 19 56  1  0
 20 21  1  0
 20 57  1  0
 20 58  1  0
 21 22  1  6
 21 23  1  0
 24 21  1  6
 22 59  1  0
 22 60  1  0
 22 61  1  0
 23 62  1  0
 23 63  1  0
 24 25  1  0
 25 26  1  0
 25 27  1  0
 25 64  1  6
 26 65  1  0
 27 28  1  1
 27 29  1  0
 28 66  1  0
 28 67  1  0
 28 68  1  0
 29 69  1  1
M  END
>  <i_m_ct_stereo_status>  (14) 
1

>  <s_m_source_file>  (14) 
/var/tmp/pbs.5076255.sched01/tmpj20d55gn/0_c3see42.sdf

>  <i_m_source_file_index>  (14) 
6

>  <i_lp_mmshare_version>  (14) 
48012

>  <i_f3d_flags>  (14) 
0

>  <s_epik_input>  (14) 
W0NIM11DMShbQ0gzXSlbQ0gyXU9DKD1bQ0hdW0NIMl0yKVtDQEBIXTFbQ0BAXShbQ0gzXSkoW0NAQEhdM1tPSF0pW0NAQF0yKFtDSDNdKVtDQEhdKFtDQF0zNDUpW0NIMl1bQ0BASF0oW09IXSlbQ0BASF00W0NAQF02KFtDSDNdKVtDSDJdW0NIMl1bQ0gyXVtDQF01KFtDSDNdKVtDSDJdNg==

>  <s_epik_cmdline>  (14) 
J2VwaWtfcHl0aG9uJywgJy1waHQnLCAnMi4wJywgJy1waCcsICc3LjAnLCAnLXRuJywgJzgnLCAnLW1hJywgJzIwMCcsICctaW1hZScsICc8aW5maWxlLm1hZT4nLCAnLW9tYWUnLCAnPG91dGZpbGUubWFlPic=

>  <r_lp_tautomer_probability>  (14) 
1

>  <r_epik_Ionization_Penalty>  (14) 
2.3817e-06

>  <r_epik_Ionization_Penalty_Charging>  (14) 
0

>  <r_epik_Ionization_Penalty_Neutral>  (14) 
2.3817e-06

>  <r_epik_State_Penalty>  (14) 
-0

>  <r_epik_Charging_Adjusted_Penalty>  (14) 
0

>  <i_epik_Tot_Q>  (14) 
0

>  <i_epik_Tot_abs_Q>  (14) 
0

>  <s_lp_Force_Field>  (14) 
OPLS3e

>  <r_lp_Energy>  (14) 
73.9904

>  <b_lp_Chiralities_Consistent>  (14) 
1

>  <s_lp_Variant>  (14) 
2:0-1

>  <s_i_glide_gridfile>  (14) 
pfpi4k_grid

>  <i_i_glide_lignum>  (14) 
6

>  <i_i_glide_rotatable_bonds>  (14) 
2

>  <r_i_docking_score>  (14) 
-2.18291

>  <r_i_glide_ligand_efficiency>  (14) 
-0.0752729

>  <r_i_glide_ligand_efficiency_sa>  (14) 
-0.231262

>  <r_i_glide_ligand_efficiency_ln>  (14) 
-0.499832

>  <r_i_glide_gscore>  (14) 
-2.18291

>  <r_i_glide_lipo>  (14) 
-0.1113

>  <r_i_glide_hbond>  (14) 
0

>  <r_i_glide_metal>  (14) 
-0

>  <r_i_glide_rewards>  (14) 
-0.677768

>  <r_i_glide_evdw>  (14) 
-22.348

>  <r_i_glide_ecoul>  (14) 
-1.84296

>  <r_i_glide_erotb>  (14) 
0

>  <r_i_glide_esite>  (14) 
0

>  <r_i_glide_emodel>  (14) 
-27.4456

>  <r_i_glide_energy>  (14) 
-24.191

>  <r_i_glide_einternal>  (14) 
0.65658

>  <r_i_glide_intrahb_reward>  (14) 
-0

>  <i_i_glide_confnum>  (14) 
2

>  <i_i_glide_posenum>  (14) 
3

>  <r_i_glide_eff_state_penalty>  (14) 
0

>  <ligand_id>  (14) 
2

>  <original_smiles>  (14) 
CC1(C)COC2=CCC3(C)C4CC(O)C5C6(C)CCCC(C)(C6)C54C(O)C3(C)C21

>  <smiles>  (14) 
[H]OC1([H])C([H])([H])C2([H])C3(C([H])([H])[H])C([H])([H])C([H])=C4OC([H])([H])C(C([H])([H])[H])(C([H])([H])[H])C4([H])C3(C([H])([H])[H])C([H])(O[H])C23C1([H])C1(C([H])([H])[H])C([H])([H])C([H])([H])C([H])([H])C3(C([H])([H])[H])C1([H])[H]

$$$$
2:0:2
     RDKit          3D

 69 74  0  0  1  0  0  0  0  0999 V2000
    5.4817   -0.7720    1.1508 C   0  0  0  0  0  0  0  0  0  0  0  0
    4.4929   -1.8394    1.6456 C   0  0  0  0  0  0  0  0  0  0  0  0
    3.1669   -1.7259    0.8589 C   0  0  0  0  0  0  0  0  0  0  0  0
    5.0408   -3.2636    1.3922 C   0  0  0  0  0  0  0  0  0  0  0  0
    4.3587   -4.1057    2.3182 O   0  0  0  0  0  0  0  0  0  0  0  0
    3.8739   -3.3337    3.3329 C   0  0  0  0  0  0  0  0  0  0  0  0
    2.9635   -3.7582    4.2077 C   0  0  0  0  0  0  0  0  0  0  0  0
    2.2973   -2.8046    5.1643 C   0  0  0  0  0  0  0  0  0  0  0  0
    3.1017   -1.4940    5.4417 C   0  0  2  0  0  0  0  0  0  0  0  0
    4.2044   -1.9316    6.4547 C   0  0  0  0  0  0  0  0  0  0  0  0
    2.0924   -0.4332    5.9986 C   0  0  1  0  0  0  0  0  0  0  0  0
    2.7267    0.5801    6.9681 C   0  0  0  0  0  0  0  0  0  0  0  0
    2.0239    1.8856    6.6985 C   0  0  1  0  0  0  0  0  0  0  0  0
    2.8560    2.9924    6.9710 O   0  0  0  0  0  0  0  0  0  0  0  0
    1.5465    1.8785    5.2285 C   0  0  2  0  0  0  0  0  0  0  0  0
    0.1193    2.5128    5.1160 C   0  0  1  0  0  0  0  0  0  0  0  0
   -0.1772    3.6939    6.0810 C   0  0  0  0  0  0  0  0  0  0  0  0
   -0.2255    3.0318    3.6960 C   0  0  0  0  0  0  0  0  0  0  0  0
   -0.2272    1.9685    2.5927 C   0  0  0  0  0  0  0  0  0  0  0  0
   -0.5459    0.5460    3.0802 C   0  0  0  0  0  0  0  0  0  0  0  0
   -0.1118    0.2060    4.5376 C   0  0  2  0  0  0  0  0  0  0  0  0
   -0.7772   -1.1493    4.8729 C   0  0  0  0  0  0  0  0  0  0  0  0
   -0.7521    1.2953    5.4123 C   0  0  0  0  0  0  0  0  0  0  0  0
    1.4576    0.3615    4.7940 C   0  0  2  0  0  0  0  0  0  0  0  0
    2.3602   -0.1383    3.5934 C   0  0  1  0  0  0  0  0  0  0  0  0
    2.6928    0.8722    2.6616 O   0  0  0  0  0  0  0  0  0  0  0  0
    3.6520   -0.8373    4.1185 C   0  0  1  0  0  0  0  0  0  0  0  0
    4.7417    0.2454    4.3934 C   0  0  0  0  0  0  0  0  0  0  0  0
    4.3469   -1.9174    3.1848 C   0  0  2  0  0  0  0  0  0  0  0  0
    5.7229   -0.9185    0.0981 H   0  0  0  0  0  0  0  0  0  0  0  0
    6.4180   -0.7927    1.7086 H   0  0  0  0  0  0  0  0  0  0  0  0
    5.0592    0.2266    1.2375 H   0  0  0  0  0  0  0  0  0  0  0  0
    2.3771   -2.3467    1.2838 H   0  0  0  0  0  0  0  0  0  0  0  0
    3.2975   -2.0482   -0.1752 H   0  0  0  0  0  0  0  0  0  0  0  0
    2.7931   -0.7061    0.7937 H   0  0  0  0  0  0  0  0  0  0  0  0
    4.8858   -3.6062    0.3692 H   0  0  0  0  0  0  0  0  0  0  0  0
    6.1111   -3.3155    1.5940 H   0  0  0  0  0  0  0  0  0  0  0  0
    2.6087   -4.7780    4.1778 H   0  0  0  0  0  0  0  0  0  0  0  0
    1.3482   -2.5867    4.6973 H   0  0  0  0  0  0  0  0  0  0  0  0
    2.0707   -3.3345    6.0899 H   0  0  0  0  0  0  0  0  0  0  0  0
    4.8810   -1.1411    6.7664 H   0  0  0  0  0  0  0  0  0  0  0  0
    4.8295   -2.7191    6.0339 H   0  0  0  0  0  0  0  0  0  0  0  0
    3.7610   -2.3350    7.3648 H   0  0  0  0  0  0  0  0  0  0  0  0
    1.3297   -0.9260    6.5951 H   0  0  0  0  0  0  0  0  0  0  0  0
    2.5943    0.2765    8.0082 H   0  0  0  0  0  0  0  0  0  0  0  0
    3.7965    0.7139    6.8454 H   0  0  0  0  0  0  0  0  0  0  0  0
    1.1922    1.8924    7.3985 H   0  0  0  0  0  0  0  0  0  0  0  0
    2.3386    3.7799    6.8951 H   0  0  0  0  0  0  0  0  0  0  0  0
    2.2590    2.4289    4.6140 H   0  0  0  0  0  0  0  0  0  0  0  0
   -1.1424    4.1500    5.8623 H   0  0  0  0  0  0  0  0  0  0  0  0
    0.5776    4.4762    5.9880 H   0  0  0  0  0  0  0  0  0  0  0  0
   -0.2366    3.4004    7.1271 H   0  0  0  0  0  0  0  0  0  0  0  0
   -1.2241    3.4729    3.7143 H   0  0  0  0  0  0  0  0  0  0  0  0
    0.4459    3.8457    3.4076 H   0  0  0  0  0  0  0  0  0  0  0  0
   -0.9610    2.2466    1.8377 H   0  0  0  0  0  0  0  0  0  0  0  0
    0.7123    2.0102    2.0544 H   0  0  0  0  0  0  0  0  0  0  0  0
   -1.6286    0.4321    3.0106 H   0  0  0  0  0  0  0  0  0  0  0  0
   -0.1426   -0.1655    2.3611 H   0  0  0  0  0  0  0  0  0  0  0  0
   -0.5299   -1.5362    5.8570 H   0  0  0  0  0  0  0  0  0  0  0  0
   -0.5468   -1.9040    4.1235 H   0  0  0  0  0  0  0  0  0  0  0  0
   -1.8632   -1.0490    4.8567 H   0  0  0  0  0  0  0  0  0  0  0  0
   -0.7035    1.0195    6.4647 H   0  0  0  0  0  0  0  0  0  0  0  0
   -1.8022    1.4715    5.1732 H   0  0  0  0  0  0  0  0  0  0  0  0
    1.7969   -0.9055    3.0683 H   0  0  0  0  0  0  0  0  0  0  0  0
    3.2265    1.5240    3.0875 H   0  0  0  0  0  0  0  0  0  0  0  0
    5.1843    0.6001    3.4683 H   0  0  0  0  0  0  0  0  0  0  0  0
    5.5758   -0.1319    4.9801 H   0  0  0  0  0  0  0  0  0  0  0  0
    4.3602    1.1379    4.8815 H   0  0  0  0  0  0  0  0  0  0  0  0
    5.3629   -1.9934    3.5770 H   0  0  0  0  0  0  0  0  0  0  0  0
  1  2  1  0
  1 30  1  0
  1 31  1  0
  1 32  1  0
  2 29  1  0
  2  3  1  0
  2  4  1  0
  3 33  1  0
  3 34  1  0
  3 35  1  0
  4  5  1  0
  4 36  1  0
  4 37  1  0
  5  6  1  0
  6 29  1  0
  6  7  2  0
  7  8  1  0
  7 38  1  0
  8  9  1  0
  8 39  1  0
  8 40  1  0
  9 27  1  0
  9 10  1  1
  9 11  1  0
 10 41  1  0
 10 42  1  0
 10 43  1  0
 11 24  1  0
 11 12  1  0
 11 44  1  1
 12 13  1  0
 12 45  1  0
 12 46  1  0
 13 14  1  0
 13 15  1  0
 13 47  1  1
 14 48  1  0
 15 24  1  0
 15 16  1  0
 15 49  1  6
 16 23  1  0
 16 17  1  1
 16 18  1  0
 17 50  1  0
 17 51  1  0
 17 52  1  0
 18 19  1  0
 18 53  1  0
 18 54  1  0
 19 20  1  0
 19 55  1  0
 19 56  1  0
 20 21  1  0
 20 57  1  0
 20 58  1  0
 21 22  1  1
 21 23  1  0
 24 21  1  6
 22 59  1  0
 22 60  1  0
 22 61  1  0
 23 62  1  0
 23 63  1  0
 24 25  1  0
 25 26  1  0
 25 27  1  0
 25 64  1  6
 26 65  1  0
 27 28  1  1
 27 29  1  0
 28 66  1  0
 28 67  1  0
 28 68  1  0
 29 69  1  1
M  END
>  <i_m_ct_stereo_status>  (15) 
1

>  <s_m_source_file>  (15) 
/var/tmp/pbs.5076255.sched01/tmpj20d55gn/0_c3see42.sdf

>  <i_m_source_file_index>  (15) 
6

>  <i_lp_mmshare_version>  (15) 
48012

>  <i_f3d_flags>  (15) 
0

>  <s_epik_input>  (15) 
W0NIM11DMShbQ0gzXSlbQ0gyXU9DKD1bQ0hdW0NIMl0yKVtDQEBIXTFbQ0BAXShbQ0gzXSkoW0NAQEhdM1tPSF0pW0NAQF0yKFtDSDNdKVtDQEhdKFtDQF0zNDUpW0NIMl1bQ0BASF0oW09IXSlbQ0BASF00W0NAQF02KFtDSDNdKVtDSDJdW0NIMl1bQ0gyXVtDQF01KFtDSDNdKVtDSDJdNg==

>  <s_epik_cmdline>  (15) 
J2VwaWtfcHl0aG9uJywgJy1waHQnLCAnMi4wJywgJy1waCcsICc3LjAnLCAnLXRuJywgJzgnLCAnLW1hJywgJzIwMCcsICctaW1hZScsICc8aW5maWxlLm1hZT4nLCAnLW9tYWUnLCAnPG91dGZpbGUubWFlPic=

>  <r_lp_tautomer_probability>  (15) 
1

>  <r_epik_Ionization_Penalty>  (15) 
2.3817e-06

>  <r_epik_Ionization_Penalty_Charging>  (15) 
0

>  <r_epik_Ionization_Penalty_Neutral>  (15) 
2.3817e-06

>  <r_epik_State_Penalty>  (15) 
-0

>  <r_epik_Charging_Adjusted_Penalty>  (15) 
0

>  <i_epik_Tot_Q>  (15) 
0

>  <i_epik_Tot_abs_Q>  (15) 
0

>  <s_lp_Force_Field>  (15) 
OPLS3e

>  <r_lp_Energy>  (15) 
73.9904

>  <b_lp_Chiralities_Consistent>  (15) 
1

>  <s_lp_Variant>  (15) 
2:0-1

>  <s_i_glide_gridfile>  (15) 
pfpi4k_grid

>  <i_i_glide_lignum>  (15) 
6

>  <i_i_glide_rotatable_bonds>  (15) 
2

>  <r_i_docking_score>  (15) 
-2.12187

>  <r_i_glide_ligand_efficiency>  (15) 
-0.0731681

>  <r_i_glide_ligand_efficiency_sa>  (15) 
-0.224796

>  <r_i_glide_ligand_efficiency_ln>  (15) 
-0.485855

>  <r_i_glide_gscore>  (15) 
-2.12187

>  <r_i_glide_lipo>  (15) 
-0.261264

>  <r_i_glide_hbond>  (15) 
0

>  <r_i_glide_metal>  (15) 
-0

>  <r_i_glide_rewards>  (15) 
-0.677768

>  <r_i_glide_evdw>  (15) 
-22.8623

>  <r_i_glide_ecoul>  (15) 
-0.264853

>  <r_i_glide_erotb>  (15) 
0

>  <r_i_glide_esite>  (15) 
0

>  <r_i_glide_emodel>  (15) 
-26.4584

>  <r_i_glide_energy>  (15) 
-23.1271

>  <r_i_glide_einternal>  (15) 
0.336488

>  <r_i_glide_intrahb_reward>  (15) 
-0

>  <i_i_glide_confnum>  (15) 
2

>  <i_i_glide_posenum>  (15) 
39

>  <r_i_glide_eff_state_penalty>  (15) 
0

>  <ligand_id>  (15) 
2

>  <original_smiles>  (15) 
CC1(C)COC2=CCC3(C)C4CC(O)C5C6(C)CCCC(C)(C6)C54C(O)C3(C)C21

>  <smiles>  (15) 
[H]OC1([H])C([H])([H])C2([H])C3(C([H])([H])[H])C([H])([H])C([H])=C4OC([H])([H])C(C([H])([H])[H])(C([H])([H])[H])C4([H])C3(C([H])([H])[H])C([H])(O[H])C23C1([H])C1(C([H])([H])[H])C([H])([H])C([H])([H])C([H])([H])C3(C([H])([H])[H])C1([H])[H]

$$$$
3:0:0
     RDKit          3D

 53 58  0  0  1  0  0  0  0  0999 V2000
    7.6001   -3.0010   -1.1857 C   0  0  0  0  0  0  0  0  0  0  0  0
    6.6917   -2.1676   -0.4537 O   0  0  0  0  0  0  0  0  0  0  0  0
    5.3284   -2.5872   -0.1851 C   0  0  1  0  0  0  0  0  0  0  0  0
    4.4815   -2.5608   -1.4730 C   0  0  1  0  0  0  0  0  0  0  0  0
    4.8167   -3.7072   -2.4307 C   0  0  0  0  0  0  0  0  0  0  0  0
    4.4701   -3.5896   -3.7345 C   0  0  0  0  0  0  0  0  0  0  0  0
    3.6678   -2.3937   -4.1967 C   0  0  1  0  0  0  0  0  0  0  0  0
    2.3021   -2.2360   -3.5563 C   0  0  1  0  0  0  0  0  0  0  0  0
    2.0023   -3.0252   -2.2635 C   0  0  0  0  0  0  0  0  0  0  0  0
    2.9734   -2.7180   -1.1195 C   0  0  0  0  0  0  0  0  0  0  0  0
    2.6593   -0.7487   -3.5246 C   0  0  0  0  0  0  0  0  0  0  0  0
    4.0995   -1.0848   -3.5432 C   0  0  1  0  0  0  0  0  0  0  0  0
    4.7491   -1.1816   -2.1557 C   0  0  0  0  0  0  0  0  0  0  0  0
    5.2104   -3.8045    0.7727 C   0  0  0  0  0  0  0  0  0  0  0  0
    5.0315   -2.8331    1.9401 C   0  0  1  0  0  0  0  0  0  0  0  0
    6.2849   -2.4446    2.3812 O   0  0  0  0  0  0  0  0  0  0  0  0
    6.1927   -1.0881    2.5641 C   0  0  1  0  0  0  0  0  0  0  0  0
    5.4965   -0.6041    1.4701 O   0  0  0  0  0  0  0  0  0  0  0  0
    4.7427   -1.7029    0.9720 C   0  0  1  0  0  0  0  0  0  0  0  0
    5.4842   -0.9016    3.9332 C   0  0  1  0  0  0  0  0  0  0  0  0
    5.4168    0.4351    4.3490 O   0  0  0  0  0  0  0  0  0  0  0  0
    4.1381   -1.6658    3.9916 C   0  0  1  0  0  0  0  0  0  0  0  0
    3.1441   -0.8101    3.4813 O   0  0  0  0  0  0  0  0  0  0  0  0
    4.1992   -3.0329    3.2248 C   0  0  2  0  0  0  0  0  0  0  0  0
    4.7618   -4.1516    4.1402 C   0  0  0  0  0  0  0  0  0  0  0  0
    2.3511   -3.5877    2.7133 Br  0  0  0  0  0  0  0  0  0  0  0  0
    8.4936   -2.4095   -1.3801 H   0  0  0  0  0  0  0  0  0  0  0  0
    7.2354   -3.3147   -2.1617 H   0  0  0  0  0  0  0  0  0  0  0  0
    7.8959   -3.8683   -0.6000 H   0  0  0  0  0  0  0  0  0  0  0  0
    5.2852   -4.5832   -2.0191 H   0  0  0  0  0  0  0  0  0  0  0  0
    4.6839   -4.3595   -4.4601 H   0  0  0  0  0  0  0  0  0  0  0  0
    3.4207   -2.2445   -5.2689 H   0  0  0  0  0  0  0  0  0  0  0  0
    1.5541   -2.4341   -4.2989 H   0  0  0  0  0  0  0  0  0  0  0  0
    0.9774   -2.8553   -1.9436 H   0  0  0  0  0  0  0  0  0  0  0  0
    1.9841   -4.0875   -2.5036 H   0  0  0  0  0  0  0  0  0  0  0  0
    2.7692   -3.5000   -0.3835 H   0  0  0  0  0  0  0  0  0  0  0  0
    2.6794   -1.7639   -0.6928 H   0  0  0  0  0  0  0  0  0  0  0  0
    2.4102   -0.2686   -4.4931 H   0  0  0  0  0  0  0  0  0  0  0  0
    2.2414   -0.2136   -2.6567 H   0  0  0  0  0  0  0  0  0  0  0  0
    4.6358   -0.4409   -4.2254 H   0  0  0  0  0  0  0  0  0  0  0  0
    4.3852   -0.3660   -1.5229 H   0  0  0  0  0  0  0  0  0  0  0  0
    5.8092   -0.9955   -2.3138 H   0  0  0  0  0  0  0  0  0  0  0  0
    4.3293   -4.4349    0.6361 H   0  0  0  0  0  0  0  0  0  0  0  0
    6.1258   -4.3962    0.8144 H   0  0  0  0  0  0  0  0  0  0  0  0
    7.1716   -0.5869    2.5510 H   0  0  0  0  0  0  0  0  0  0  0  0
    3.6874   -1.4811    0.9909 H   0  0  0  0  0  0  0  0  0  0  0  0
    6.0959   -1.3231    4.7017 H   0  0  0  0  0  0  0  0  0  0  0  0
    4.7744    0.8731    3.8077 H   0  0  0  0  0  0  0  0  0  0  0  0
    3.9045   -1.8384    5.0511 H   0  0  0  0  0  0  0  0  0  0  0  0
    3.3359   -0.6982    2.5312 H   0  0  0  0  0  0  0  0  0  0  0  0
    5.7581   -3.9495    4.5561 H   0  0  0  0  0  0  0  0  0  0  0  0
    4.8164   -5.1138    3.6341 H   0  0  0  0  0  0  0  0  0  0  0  0
    4.1087   -4.2931    4.9995 H   0  0  0  0  0  0  0  0  0  0  0  0
  1  2  1  0
  1 27  1  0
  1 28  1  0
  1 29  1  0
  3  2  1  6
  3 19  1  0
  3  4  1  0
  3 14  1  0
  4 10  1  1
  4 13  1  0
  4  5  1  0
  5  6  2  0
  5 30  1  0
  6  7  1  0
  6 31  1  0
  7 12  1  0
  7  8  1  0
  7 32  1  6
  8  9  1  0
  8 11  1  0
  8 33  1  6
  9 10  1  0
  9 34  1  0
  9 35  1  0
 10 36  1  0
 10 37  1  0
 11 12  1  0
 11 38  1  0
 11 39  1  0
 12 13  1  0
 12 40  1  6
 13 41  1  0
 13 42  1  0
 15 14  1  6
 14 43  1  0
 14 44  1  0
 15 19  1  0
 15 24  1  0
 15 16  1  0
 16 17  1  0
 17 18  1  0
 17 20  1  0
 17 45  1  1
 18 19  1  0
 19 46  1  6
 20 21  1  0
 20 22  1  0
 20 47  1  1
 21 48  1  0
 22 23  1  0
 22 24  1  0
 22 49  1  1
 23 50  1  0
 24 25  1  0
 24 26  1  6
 25 51  1  0
 25 52  1  0
 25 53  1  0
M  END
>  <i_m_ct_stereo_status>  (16) 
1

>  <s_m_source_file>  (16) 
/var/tmp/pbs.5076255.sched01/tmpj20d55gn/0_c3see42.sdf

>  <i_m_source_file_index>  (16) 
7

>  <i_lp_mmshare_version>  (16) 
48012

>  <i_f3d_flags>  (16) 
0

>  <s_epik_input>  (16) 
W0NIM11bQ0BAXTEoQnIpW0NASF0oW09IXSlbQ0BIXShbT0hdKVtDQEBIXShPMilPW0NASF0oW0NAXTEyMylbQ0BdKFtDSDJdMykoT1tDSDNdKVtDQEBdNDVbQ0hdPVtDSF1bQ0BIXTZbQ0BASF0oW0NIMl1bQ0gyXTQpW0NIMl1bQ0BIXTZbQ0gyXTU=

>  <s_epik_cmdline>  (16) 
J2VwaWtfcHl0aG9uJywgJy1waHQnLCAnMi4wJywgJy1waCcsICc3LjAnLCAnLXRuJywgJzgnLCAnLW1hJywgJzIwMCcsICctaW1hZScsICc8aW5maWxlLm1hZT4nLCAnLW9tYWUnLCAnPG91dGZpbGUubWFlPic=

>  <r_lp_tautomer_probability>  (16) 
1

>  <r_epik_Ionization_Penalty>  (16) 
9.07258e-05

>  <r_epik_Ionization_Penalty_Charging>  (16) 
0

>  <r_epik_Ionization_Penalty_Neutral>  (16) 
9.07258e-05

>  <r_epik_State_Penalty>  (16) 
-0

>  <r_epik_Charging_Adjusted_Penalty>  (16) 
0

>  <i_epik_Tot_Q>  (16) 
0

>  <i_epik_Tot_abs_Q>  (16) 
0

>  <s_epik_Chemistry_Notes>  (16) 
This compound contains an acetal/aminal-like group ( X-CH(R)-Y where X, Y are N, S, or O) that may be acid/base labile, releasing an aldehyde.

>  <s_lp_Force_Field>  (16) 
OPLS3e

>  <r_lp_Energy>  (16) 
63.275

>  <b_lp_Chiralities_Consistent>  (16) 
1

>  <s_lp_Variant>  (16) 
3:0-1

>  <s_i_glide_gridfile>  (16) 
pfpi4k_grid

>  <i_i_glide_lignum>  (16) 
7

>  <i_i_glide_rotatable_bonds>  (16) 
4

>  <r_i_docking_score>  (16) 
-2.44033

>  <r_i_glide_ligand_efficiency>  (16) 
-0.0938587

>  <r_i_glide_ligand_efficiency_sa>  (16) 
-0.278056

>  <r_i_glide_ligand_efficiency_ln>  (16) 
-0.573102

>  <r_i_glide_gscore>  (16) 
-2.44033

>  <r_i_glide_lipo>  (16) 
-0.93536

>  <r_i_glide_hbond>  (16) 
-0.0719322

>  <r_i_glide_metal>  (16) 
-0

>  <r_i_glide_rewards>  (16) 
-0.609156

>  <r_i_glide_evdw>  (16) 
-13.4202

>  <r_i_glide_ecoul>  (16) 
-1.74395

>  <r_i_glide_erotb>  (16) 
0.108723

>  <r_i_glide_esite>  (16) 
0

>  <r_i_glide_emodel>  (16) 
-13.0637

>  <r_i_glide_energy>  (16) 
-15.1641

>  <r_i_glide_einternal>  (16) 
1.40855

>  <r_i_glide_intrahb_reward>  (16) 
-0

>  <i_i_glide_confnum>  (16) 
3

>  <i_i_glide_posenum>  (16) 
33

>  <r_i_glide_eff_state_penalty>  (16) 
0

>  <ligand_id>  (16) 
3

>  <original_smiles>  (16) 
COC1(C23C=CC4C(CC2)CC4C3)CC23OC(OC12)C(O)C(O)C3(C)Br

>  <smiles>  (16) 
[H]OC1([H])C2([H])OC3([H])C(O2)(C([H])([H])C3(OC([H])([H])[H])C23C([H])=C([H])C4([H])C([H])(C([H])([H])C2([H])[H])C([H])([H])C4([H])C3([H])[H])C(Br)(C([H])([H])[H])C1([H])O[H]

$$$$
3:0:1
     RDKit          3D

 53 58  0  0  1  0  0  0  0  0999 V2000
    7.6324   -2.5456   -0.4200 C   0  0  0  0  0  0  0  0  0  0  0  0
    6.5390   -1.8109    0.1455 O   0  0  0  0  0  0  0  0  0  0  0  0
    5.2196   -2.4100    0.2193 C   0  0  1  0  0  0  0  0  0  0  0  0
    4.5471   -2.4592   -1.1822 C   0  0  1  0  0  0  0  0  0  0  0  0
    5.1169   -3.5566   -2.0698 C   0  0  0  0  0  0  0  0  0  0  0  0
    4.9377   -3.5046   -3.4020 C   0  0  0  0  0  0  0  0  0  0  0  0
    4.0866   -2.4070   -4.0223 C   0  0  1  0  0  0  0  0  0  0  0  0
    2.6087   -2.4026   -3.5952 C   0  0  1  0  0  0  0  0  0  0  0  0
    2.2005   -3.1187   -2.3066 C   0  0  0  0  0  0  0  0  0  0  0  0
    3.0254   -2.7461   -1.0487 C   0  0  0  0  0  0  0  0  0  0  0  0
    2.7545   -0.8738   -3.5486 C   0  0  0  0  0  0  0  0  0  0  0  0
    4.2397   -1.0642   -3.3243 C   0  0  1  0  0  0  0  0  0  0  0  0
    4.7520   -1.0820   -1.8836 C   0  0  0  0  0  0  0  0  0  0  0  0
    5.1723   -3.6629    1.1443 C   0  0  0  0  0  0  0  0  0  0  0  0
    4.7660   -2.7762    2.3296 C   0  0  1  0  0  0  0  0  0  0  0  0
    5.8925   -2.2293    2.9289 O   0  0  0  0  0  0  0  0  0  0  0  0
    5.5882   -0.9107    3.1030 C   0  0  1  0  0  0  0  0  0  0  0  0
    4.9658   -0.4978    1.9371 O   0  0  0  0  0  0  0  0  0  0  0  0
    4.4203   -1.6635    1.3482 C   0  0  1  0  0  0  0  0  0  0  0  0
    4.6598   -0.8585    4.3605 C   0  0  1  0  0  0  0  0  0  0  0  0
    4.3571    0.4502    4.7897 O   0  0  0  0  0  0  0  0  0  0  0  0
    3.4252   -1.7939    4.2228 C   0  0  1  0  0  0  0  0  0  0  0  0
    2.3708   -1.1177    3.5701 O   0  0  0  0  0  0  0  0  0  0  0  0
    3.7916   -3.1202    3.4662 C   0  0  2  0  0  0  0  0  0  0  0  0
    4.3463   -4.1879    4.4257 C   0  0  0  0  0  0  0  0  0  0  0  0
    2.1631   -3.9451    2.6770 Br  0  0  0  0  0  0  0  0  0  0  0  0
    8.4636   -1.8478   -0.5407 H   0  0  0  0  0  0  0  0  0  0  0  0
    7.4133   -2.9464   -1.4038 H   0  0  0  0  0  0  0  0  0  0  0  0
    7.9798   -3.3406    0.2388 H   0  0  0  0  0  0  0  0  0  0  0  0
    5.6393   -4.3805   -1.5858 H   0  0  0  0  0  0  0  0  0  0  0  0
    5.3116   -4.2797   -4.0560 H   0  0  0  0  0  0  0  0  0  0  0  0
    4.1895   -2.2550   -5.0878 H   0  0  0  0  0  0  0  0  0  0  0  0
    1.9677   -2.7079   -4.4343 H   0  0  0  0  0  0  0  0  0  0  0  0
    1.1462   -2.9668   -2.1191 H   0  0  0  0  0  0  0  0  0  0  0  0
    2.2669   -4.1890   -2.4891 H   0  0  0  0  0  0  0  0  0  0  0  0
    2.8180   -3.5217   -0.3087 H   0  0  0  0  0  0  0  0  0  0  0  0
    2.6173   -1.8085   -0.6706 H   0  0  0  0  0  0  0  0  0  0  0  0
    2.5598   -0.4143   -4.5122 H   0  0  0  0  0  0  0  0  0  0  0  0
    2.2420   -0.3662   -2.7306 H   0  0  0  0  0  0  0  0  0  0  0  0
    4.7602   -0.3560   -3.9681 H   0  0  0  0  0  0  0  0  0  0  0  0
    4.2922   -0.2911   -1.2954 H   0  0  0  0  0  0  0  0  0  0  0  0
    5.8120   -0.8337   -1.9188 H   0  0  0  0  0  0  0  0  0  0  0  0
    4.3951   -4.3831    0.8760 H   0  0  0  0  0  0  0  0  0  0  0  0
    6.1295   -4.1548    1.2886 H   0  0  0  0  0  0  0  0  0  0  0  0
    6.5269   -0.3738    3.2500 H   0  0  0  0  0  0  0  0  0  0  0  0
    3.3431   -1.5798    1.2208 H   0  0  0  0  0  0  0  0  0  0  0  0
    5.2846   -1.2808    5.1458 H   0  0  0  0  0  0  0  0  0  0  0  0
    5.1580    0.9437    4.8597 H   0  0  0  0  0  0  0  0  0  0  0  0
    3.0640   -2.0382    5.2192 H   0  0  0  0  0  0  0  0  0  0  0  0
    2.7002   -0.7878    2.7497 H   0  0  0  0  0  0  0  0  0  0  0  0
    5.2316   -3.8597    4.9621 H   0  0  0  0  0  0  0  0  0  0  0  0
    4.5928   -5.1089    3.9037 H   0  0  0  0  0  0  0  0  0  0  0  0
    3.5926   -4.4361    5.1786 H   0  0  0  0  0  0  0  0  0  0  0  0
  1  2  1  0
  1 27  1  0
  1 28  1  0
  1 29  1  0
  3  2  1  6
  3 19  1  0
  3  4  1  0
  3 14  1  0
  4 10  1  1
  4 13  1  0
  4  5  1  0
  5  6  2  0
  5 30  1  0
  6  7  1  0
  6 31  1  0
  7 12  1  0
  7  8  1  0
  7 32  1  6
  8  9  1  0
  8 11  1  0
  8 33  1  6
  9 10  1  0
  9 34  1  0
  9 35  1  0
 10 36  1  0
 10 37  1  0
 11 12  1  0
 11 38  1  0
 11 39  1  0
 12 13  1  0
 12 40  1  6
 13 41  1  0
 13 42  1  0
 15 14  1  6
 14 43  1  0
 14 44  1  0
 15 19  1  0
 15 24  1  0
 15 16  1  0
 16 17  1  0
 17 18  1  0
 17 20  1  0
 17 45  1  1
 18 19  1  0
 19 46  1  6
 20 21  1  0
 20 22  1  0
 20 47  1  1
 21 48  1  0
 22 23  1  0
 22 24  1  0
 22 49  1  1
 23 50  1  0
 24 25  1  0
 24 26  1  6
 25 51  1  0
 25 52  1  0
 25 53  1  0
M  END
>  <i_m_ct_stereo_status>  (17) 
1

>  <s_m_source_file>  (17) 
/var/tmp/pbs.5076255.sched01/tmpj20d55gn/0_c3see42.sdf

>  <i_m_source_file_index>  (17) 
7

>  <i_lp_mmshare_version>  (17) 
48012

>  <i_f3d_flags>  (17) 
0

>  <s_epik_input>  (17) 
W0NIM11bQ0BAXTEoQnIpW0NASF0oW09IXSlbQ0BIXShbT0hdKVtDQEBIXShPMilPW0NASF0oW0NAXTEyMylbQ0BdKFtDSDJdMykoT1tDSDNdKVtDQEBdNDVbQ0hdPVtDSF1bQ0BIXTZbQ0BASF0oW0NIMl1bQ0gyXTQpW0NIMl1bQ0BIXTZbQ0gyXTU=

>  <s_epik_cmdline>  (17) 
J2VwaWtfcHl0aG9uJywgJy1waHQnLCAnMi4wJywgJy1waCcsICc3LjAnLCAnLXRuJywgJzgnLCAnLW1hJywgJzIwMCcsICctaW1hZScsICc8aW5maWxlLm1hZT4nLCAnLW9tYWUnLCAnPG91dGZpbGUubWFlPic=

>  <r_lp_tautomer_probability>  (17) 
1

>  <r_epik_Ionization_Penalty>  (17) 
9.07258e-05

>  <r_epik_Ionization_Penalty_Charging>  (17) 
0

>  <r_epik_Ionization_Penalty_Neutral>  (17) 
9.07258e-05

>  <r_epik_State_Penalty>  (17) 
-0

>  <r_epik_Charging_Adjusted_Penalty>  (17) 
0

>  <i_epik_Tot_Q>  (17) 
0

>  <i_epik_Tot_abs_Q>  (17) 
0

>  <s_epik_Chemistry_Notes>  (17) 
This compound contains an acetal/aminal-like group ( X-CH(R)-Y where X, Y are N, S, or O) that may be acid/base labile, releasing an aldehyde.

>  <s_lp_Force_Field>  (17) 
OPLS3e

>  <r_lp_Energy>  (17) 
63.275

>  <b_lp_Chiralities_Consistent>  (17) 
1

>  <s_lp_Variant>  (17) 
3:0-1

>  <s_i_glide_gridfile>  (17) 
pfpi4k_grid

>  <i_i_glide_lignum>  (17) 
7

>  <i_i_glide_rotatable_bonds>  (17) 
4

>  <r_i_docking_score>  (17) 
-2.37047

>  <r_i_glide_ligand_efficiency>  (17) 
-0.0911717

>  <r_i_glide_ligand_efficiency_sa>  (17) 
-0.270096

>  <r_i_glide_ligand_efficiency_ln>  (17) 
-0.556696

>  <r_i_glide_gscore>  (17) 
-2.37047

>  <r_i_glide_lipo>  (17) 
-1.094

>  <r_i_glide_hbond>  (17) 
0

>  <r_i_glide_metal>  (17) 
-0

>  <r_i_glide_rewards>  (17) 
-0.629048

>  <r_i_glide_evdw>  (17) 
-18.207

>  <r_i_glide_ecoul>  (17) 
1.02808

>  <r_i_glide_erotb>  (17) 
0.108723

>  <r_i_glide_esite>  (17) 
0

>  <r_i_glide_emodel>  (17) 
-16.9053

>  <r_i_glide_energy>  (17) 
-17.179

>  <r_i_glide_einternal>  (17) 
1.96809

>  <r_i_glide_intrahb_reward>  (17) 
-0

>  <i_i_glide_confnum>  (17) 
4

>  <i_i_glide_posenum>  (17) 
5

>  <r_i_glide_eff_state_penalty>  (17) 
0

>  <ligand_id>  (17) 
3

>  <original_smiles>  (17) 
COC1(C23C=CC4C(CC2)CC4C3)CC23OC(OC12)C(O)C(O)C3(C)Br

>  <smiles>  (17) 
[H]OC1([H])C2([H])OC3([H])C(O2)(C([H])([H])C3(OC([H])([H])[H])C23C([H])=C([H])C4([H])C([H])(C([H])([H])C2([H])[H])C([H])([H])C4([H])C3([H])[H])C(Br)(C([H])([H])[H])C1([H])O[H]

$$$$
3:0:2
     RDKit          3D

 53 58  0  0  1  0  0  0  0  0999 V2000
    7.4446   -3.0277   -1.0932 C   0  0  0  0  0  0  0  0  0  0  0  0
    6.3947   -2.6943   -0.1752 O   0  0  0  0  0  0  0  0  0  0  0  0
    5.1229   -3.3680   -0.2867 C   0  0  1  0  0  0  0  0  0  0  0  0
    4.3771   -2.9444   -1.5815 C   0  0  1  0  0  0  0  0  0  0  0  0
    4.8125   -3.7871   -2.7649 C   0  0  0  0  0  0  0  0  0  0  0  0
    4.5219   -3.3934   -4.0145 C   0  0  0  0  0  0  0  0  0  0  0  0
    3.7514   -2.0995   -4.2723 C   0  0  1  0  0  0  0  0  0  0  0  0
    2.3195   -2.0943   -3.7324 C   0  0  1  0  0  0  0  0  0  0  0  0
    1.9447   -3.1506   -2.6816 C   0  0  0  0  0  0  0  0  0  0  0  0
    2.8292   -3.1522   -1.4223 C   0  0  0  0  0  0  0  0  0  0  0  0
    2.6282   -0.6502   -3.2946 C   0  0  0  0  0  0  0  0  0  0  0  0
    4.0825   -1.0170   -3.2552 C   0  0  1  0  0  0  0  0  0  0  0  0
    4.6479   -1.4422   -1.9036 C   0  0  0  0  0  0  0  0  0  0  0  0
    5.2017   -4.8771    0.1204 C   0  0  0  0  0  0  0  0  0  0  0  0
    4.8422   -4.5110    1.5665 C   0  0  1  0  0  0  0  0  0  0  0  0
    5.9917   -4.0815    2.2905 O   0  0  0  0  0  0  0  0  0  0  0  0
    5.5324   -2.9482    2.9223 C   0  0  1  0  0  0  0  0  0  0  0  0
    4.7877   -2.2449    1.9944 O   0  0  0  0  0  0  0  0  0  0  0  0
    4.3355   -3.1832    1.0465 C   0  0  1  0  0  0  0  0  0  0  0  0
    4.6891   -3.4399    4.1283 C   0  0  1  0  0  0  0  0  0  0  0  0
    4.3338   -2.3701    4.9711 O   0  0  0  0  0  0  0  0  0  0  0  0
    3.5095   -4.3546    3.7050 C   0  0  1  0  0  0  0  0  0  0  0  0
    2.3929   -3.5393    3.3905 O   0  0  0  0  0  0  0  0  0  0  0  0
    3.9135   -5.2921    2.5160 C   0  0  2  0  0  0  0  0  0  0  0  0
    4.5759   -6.5920    3.0178 C   0  0  0  0  0  0  0  0  0  0  0  0
    2.2634   -5.8445    1.5182 Br  0  0  0  0  0  0  0  0  0  0  0  0
    8.1896   -2.2436   -1.0145 H   0  0  0  0  0  0  0  0  0  0  0  0
    7.1171   -3.0334   -2.1356 H   0  0  0  0  0  0  0  0  0  0  0  0
    7.9270   -3.9707   -0.8540 H   0  0  0  0  0  0  0  0  0  0  0  0
    5.3213   -4.7133   -2.5584 H   0  0  0  0  0  0  0  0  0  0  0  0
    4.8082   -4.0180   -4.8571 H   0  0  0  0  0  0  0  0  0  0  0  0
    3.8090   -1.6294   -5.2640 H   0  0  0  0  0  0  0  0  0  0  0  0
    1.5985   -2.0839   -4.5515 H   0  0  0  0  0  0  0  0  0  0  0  0
    0.9280   -3.0377   -2.3537 H   0  0  0  0  0  0  0  0  0  0  0  0
    1.9684   -4.1309   -3.1689 H   0  0  0  0  0  0  0  0  0  0  0  0
    2.6105   -4.1070   -0.9276 H   0  0  0  0  0  0  0  0  0  0  0  0
    2.4576   -2.3502   -0.7925 H   0  0  0  0  0  0  0  0  0  0  0  0
    2.4280    0.0698   -4.0954 H   0  0  0  0  0  0  0  0  0  0  0  0
    2.2056   -0.3594   -2.3438 H   0  0  0  0  0  0  0  0  0  0  0  0
    4.6362   -0.2117   -3.7353 H   0  0  0  0  0  0  0  0  0  0  0  0
    4.2777   -0.8050   -1.1040 H   0  0  0  0  0  0  0  0  0  0  0  0
    5.7184   -1.2422   -1.9712 H   0  0  0  0  0  0  0  0  0  0  0  0
    4.4161   -5.4686   -0.3613 H   0  0  0  0  0  0  0  0  0  0  0  0
    6.1943   -5.3025    0.0109 H   0  0  0  0  0  0  0  0  0  0  0  0
    6.2714   -2.2578    3.2930 H   0  0  0  0  0  0  0  0  0  0  0  0
    3.2494   -3.1487    0.9873 H   0  0  0  0  0  0  0  0  0  0  0  0
    5.3797   -4.0429    4.7224 H   0  0  0  0  0  0  0  0  0  0  0  0
    3.7842   -1.7800    4.4704 H   0  0  0  0  0  0  0  0  0  0  0  0
    3.2090   -4.9601    4.5656 H   0  0  0  0  0  0  0  0  0  0  0  0
    2.6473   -2.9734    2.6658 H   0  0  0  0  0  0  0  0  0  0  0  0
    5.4710   -6.4025    3.6127 H   0  0  0  0  0  0  0  0  0  0  0  0
    4.8558   -7.2384    2.1915 H   0  0  0  0  0  0  0  0  0  0  0  0
    3.8785   -7.1438    3.6526 H   0  0  0  0  0  0  0  0  0  0  0  0
  1  2  1  0
  1 27  1  0
  1 28  1  0
  1 29  1  0
  3  2  1  1
  3 19  1  0
  3  4  1  0
  3 14  1  0
  4 10  1  1
  4 13  1  0
  4  5  1  0
  5  6  2  0
  5 30  1  0
  6  7  1  0
  6 31  1  0
  7 12  1  0
  7  8  1  0
  7 32  1  6
  8  9  1  0
  8 11  1  0
  8 33  1  6
  9 10  1  0
  9 34  1  0
  9 35  1  0
 10 36  1  0
 10 37  1  0
 11 12  1  0
 11 38  1  0
 11 39  1  0
 12 13  1  0
 12 40  1  6
 13 41  1  0
 13 42  1  0
 15 14  1  6
 14 43  1  0
 14 44  1  0
 15 19  1  0
 15 24  1  0
 15 16  1  0
 16 17  1  0
 17 18  1  0
 17 20  1  0
 17 45  1  1
 18 19  1  0
 19 46  1  6
 20 21  1  0
 20 22  1  0
 20 47  1  1
 21 48  1  0
 22 23  1  0
 22 24  1  0
 22 49  1  1
 23 50  1  0
 24 25  1  0
 24 26  1  6
 25 51  1  0
 25 52  1  0
 25 53  1  0
M  END
>  <i_m_ct_stereo_status>  (18) 
1

>  <s_m_source_file>  (18) 
/var/tmp/pbs.5076255.sched01/tmpj20d55gn/0_c3see42.sdf

>  <i_m_source_file_index>  (18) 
7

>  <i_lp_mmshare_version>  (18) 
48012

>  <i_f3d_flags>  (18) 
0

>  <s_epik_input>  (18) 
W0NIM11bQ0BAXTEoQnIpW0NASF0oW09IXSlbQ0BIXShbT0hdKVtDQEBIXShPMilPW0NASF0oW0NAXTEyMylbQ0BdKFtDSDJdMykoT1tDSDNdKVtDQEBdNDVbQ0hdPVtDSF1bQ0BIXTZbQ0BASF0oW0NIMl1bQ0gyXTQpW0NIMl1bQ0BIXTZbQ0gyXTU=

>  <s_epik_cmdline>  (18) 
J2VwaWtfcHl0aG9uJywgJy1waHQnLCAnMi4wJywgJy1waCcsICc3LjAnLCAnLXRuJywgJzgnLCAnLW1hJywgJzIwMCcsICctaW1hZScsICc8aW5maWxlLm1hZT4nLCAnLW9tYWUnLCAnPG91dGZpbGUubWFlPic=

>  <r_lp_tautomer_probability>  (18) 
1

>  <r_epik_Ionization_Penalty>  (18) 
9.07258e-05

>  <r_epik_Ionization_Penalty_Charging>  (18) 
0

>  <r_epik_Ionization_Penalty_Neutral>  (18) 
9.07258e-05

>  <r_epik_State_Penalty>  (18) 
-0

>  <r_epik_Charging_Adjusted_Penalty>  (18) 
0

>  <i_epik_Tot_Q>  (18) 
0

>  <i_epik_Tot_abs_Q>  (18) 
0

>  <s_epik_Chemistry_Notes>  (18) 
This compound contains an acetal/aminal-like group ( X-CH(R)-Y where X, Y are N, S, or O) that may be acid/base labile, releasing an aldehyde.

>  <s_lp_Force_Field>  (18) 
OPLS3e

>  <r_lp_Energy>  (18) 
63.275

>  <b_lp_Chiralities_Consistent>  (18) 
1

>  <s_lp_Variant>  (18) 
3:0-1

>  <s_i_glide_gridfile>  (18) 
pfpi4k_grid

>  <i_i_glide_lignum>  (18) 
7

>  <i_i_glide_rotatable_bonds>  (18) 
4

>  <r_i_docking_score>  (18) 
-2.23845

>  <r_i_glide_ligand_efficiency>  (18) 
-0.0860943

>  <r_i_glide_ligand_efficiency_sa>  (18) 
-0.255054

>  <r_i_glide_ligand_efficiency_ln>  (18) 
-0.525693

>  <r_i_glide_gscore>  (18) 
-2.23845

>  <r_i_glide_lipo>  (18) 
-0.831544

>  <r_i_glide_hbond>  (18) 
0

>  <r_i_glide_metal>  (18) 
-0

>  <r_i_glide_rewards>  (18) 
-0.539245

>  <r_i_glide_evdw>  (18) 
-17.1138

>  <r_i_glide_ecoul>  (18) 
-0.804626

>  <r_i_glide_erotb>  (18) 
0.108723

>  <r_i_glide_esite>  (18) 
0

>  <r_i_glide_emodel>  (18) 
-16.3977

>  <r_i_glide_energy>  (18) 
-17.9185

>  <r_i_glide_einternal>  (18) 
3.39094

>  <r_i_glide_intrahb_reward>  (18) 
-0

>  <i_i_glide_confnum>  (18) 
3

>  <i_i_glide_posenum>  (18) 
9

>  <r_i_glide_eff_state_penalty>  (18) 
0

>  <ligand_id>  (18) 
3

>  <original_smiles>  (18) 
COC1(C23C=CC4C(CC2)CC4C3)CC23OC(OC12)C(O)C(O)C3(C)Br

>  <smiles>  (18) 
[H]OC1([H])C2([H])OC3([H])C(O2)(C([H])([H])C3(OC([H])([H])[H])C23C([H])=C([H])C4([H])C([H])(C([H])([H])C2([H])[H])C([H])([H])C4([H])C3([H])[H])C(Br)(C([H])([H])[H])C1([H])O[H]

$$$$
4:0:0
     RDKit          3D

 39 44  0  0  1  0  0  0  0  0999 V2000
    2.9136   -6.3223    2.1829 C   0  0  0  0  0  0  0  0  0  0  0  0
    3.3585   -5.2491    1.2901 N   0  0  0  0  0  0  0  0  0  0  0  0
    4.5109   -5.2851    0.5793 C   0  0  0  0  0  0  0  0  0  0  0  0
    5.2753   -6.2562    0.5052 O   0  0  0  0  0  0  0  0  0  0  0  0
    4.8531   -3.9345   -0.0949 C   0  0  2  0  0  0  0  0  0  0  0  0
    6.3157   -3.5728   -0.2969 C   0  0  0  0  0  0  0  0  0  0  0  0
    5.9191   -3.0481   -1.6855 C   0  0  2  0  0  0  0  0  0  0  0  0
    5.6390   -1.5566   -1.8551 C   0  0  0  0  0  0  0  0  0  0  0  0
    4.4373   -1.3286   -2.7037 C   0  0  0  0  0  0  0  0  0  0  0  0
    4.2533   -0.2285   -3.3875 N   0  0  0  0  0  0  0  0  0  0  0  0
    3.1957   -0.4421   -4.1749 N   0  0  0  0  0  0  0  0  0  0  0  0
    2.8250    0.5553   -5.1601 C   0  0  0  0  0  0  0  0  0  0  0  0
    2.6193   -1.6612   -3.8600 C   0  0  0  0  0  0  0  0  0  0  0  0
    3.4004   -2.2452   -2.9032 C   0  0  0  0  0  0  0  0  0  0  0  0
    3.3321   -3.5770   -2.2303 C   0  0  2  0  0  0  0  0  0  0  0  0
    2.2251   -3.6225   -1.1396 C   0  0  0  0  0  0  0  0  0  0  0  0
    2.6744   -3.1772    0.2700 C   0  0  0  0  0  0  0  0  0  0  0  0
    2.7108   -3.9733    1.3641 C   0  0  0  0  0  0  0  0  0  0  0  0
    3.6969   -2.9046    1.8484 C   0  0  0  0  0  0  0  0  0  0  0  0
    4.0121   -2.8340    0.4274 N   0  0  0  0  0  0  0  0  0  0  0  0
    4.6984   -3.9773   -1.6192 C   0  0  2  0  0  0  0  0  0  0  0  0
    3.5052   -7.2354    2.0916 H   0  0  0  0  0  0  0  0  0  0  0  0
    1.8881   -6.5928    1.9417 H   0  0  0  0  0  0  0  0  0  0  0  0
    2.9382   -6.0411    3.2388 H   0  0  0  0  0  0  0  0  0  0  0  0
    6.6762   -2.7882    0.3643 H   0  0  0  0  0  0  0  0  0  0  0  0
    6.9775   -4.4471   -0.3198 H   0  0  0  0  0  0  0  0  0  0  0  0
    6.5821   -3.4511   -2.4504 H   0  0  0  0  0  0  0  0  0  0  0  0
    5.4700   -1.0861   -0.8944 H   0  0  0  0  0  0  0  0  0  0  0  0
    6.5094   -1.1030   -2.2761 H   0  0  0  0  0  0  0  0  0  0  0  0
    1.8430    0.2934   -5.5357 H   0  0  0  0  0  0  0  0  0  0  0  0
    3.5649    0.6208   -5.9659 H   0  0  0  0  0  0  0  0  0  0  0  0
    2.7604    1.5501   -4.7229 H   0  0  0  0  0  0  0  0  0  0  0  0
    1.7165   -2.0020   -4.3303 H   0  0  0  0  0  0  0  0  0  0  0  0
    3.0619   -4.2611   -3.0416 H   0  0  0  0  0  0  0  0  0  0  0  0
    1.3698   -3.0583   -1.4765 H   0  0  0  0  0  0  0  0  0  0  0  0
    3.2813   -1.9548    2.2278 H   0  0  0  0  0  0  0  0  0  0  0  0
    4.5745   -3.1851    2.4401 H   0  0  0  0  0  0  0  0  0  0  0  0
    5.0109   -4.9621   -1.9598 H   0  0  0  0  0  0  0  0  0  0  0  0
    1.8303   -4.6395   -1.0585 H   0  0  0  0  0  0  0  0  0  0  0  0
  1  2  1  0
  1 22  1  0
  1 23  1  0
  1 24  1  0
  2 18  1  0
  2  3  1  0
  3  4  2  0
  3  5  1  0
  5 20  1  0
  5 21  1  0
  5  6  1  6
  6  7  1  0
  6 25  1  0
  6 26  1  0
  7 21  1  0
  7  8  1  0
  7 27  1  6
  8  9  1  0
  8 28  1  0
  8 29  1  0
  9 14  1  0
  9 10  2  0
 10 11  1  0
 11 12  1  0
 11 13  1  0
 12 30  1  0
 12 31  1  0
 12 32  1  0
 13 14  2  0
 13 33  1  0
 14 15  1  0
 15 16  1  0
 15 21  1  0
 15 34  1  6
 16 17  1  0
 16 35  1  0
 16 39  1  0
 17 20  1  0
 17 18  2  0
 18 19  1  0
 19 20  1  0
 19 36  1  0
 19 37  1  0
 21 38  1  6
M  END
>  <i_m_ct_stereo_status>  (19) 
1

>  <s_m_source_file>  (19) 
/var/tmp/pbs.5076255.sched01/tmpj20d55gn/0_c3see42.sdf

>  <i_m_source_file_index>  (19) 
8

>  <i_lp_mmshare_version>  (19) 
48012

>  <i_f3d_flags>  (19) 
0

>  <s_epik_input>  (19) 
Tz1DMU4oW0NIM10pW0NAQEhdKFtDSDJdMilDKE4yW0NAXTEzNCk9W0NIXVtDQEhdNWM2YyhbQ0gyXVtDQEBIXShbQ0gyXTMpW0NAQEhdNDUpbm4oW0NIM10pW2NIXTY=

>  <s_epik_cmdline>  (19) 
J2VwaWtfcHl0aG9uJywgJy1waHQnLCAnMi4wJywgJy1waCcsICc3LjAnLCAnLXRuJywgJzgnLCAnLW1hJywgJzIwMCcsICctaW1hZScsICc8aW5maWxlLm1hZT4nLCAnLW9tYWUnLCAnPG91dGZpbGUubWFlPic=

>  <r_lp_tautomer_probability>  (19) 
1

>  <r_epik_Ionization_Penalty>  (19) 
0.0016562

>  <r_epik_Ionization_Penalty_Charging>  (19) 
3.59933e-08

>  <r_epik_Ionization_Penalty_Neutral>  (19) 
0.00165616

>  <r_epik_State_Penalty>  (19) 
-0

>  <r_epik_Charging_Adjusted_Penalty>  (19) 
3.59933e-08

>  <i_epik_Tot_Q>  (19) 
0

>  <i_epik_Tot_abs_Q>  (19) 
0

>  <s_epik_Chemistry_Notes>  (19) 
This compound has an imine and may undergo hydrolysis.

>  <s_lp_Force_Field>  (19) 
OPLS3e

>  <r_lp_Energy>  (19) 
111.019

>  <b_lp_Chiralities_Consistent>  (19) 
1

>  <s_lp_Variant>  (19) 
4:0-1

>  <s_i_glide_gridfile>  (19) 
pfpi4k_grid

>  <i_i_glide_lignum>  (19) 
8

>  <i_i_glide_rotatable_bonds>  (19) 
0

>  <r_i_docking_score>  (19) 
-3.54488

>  <r_i_glide_ligand_efficiency>  (19) 
-0.168804

>  <r_i_glide_ligand_efficiency_sa>  (19) 
-0.465717

>  <r_i_glide_ligand_efficiency_ln>  (19) 
-0.876464

>  <r_i_glide_gscore>  (19) 
-3.54488

>  <r_i_glide_lipo>  (19) 
-0.389243

>  <r_i_glide_hbond>  (19) 
0

>  <r_i_glide_metal>  (19) 
-0

>  <r_i_glide_rewards>  (19) 
-1.97049

>  <r_i_glide_evdw>  (19) 
-17.7607

>  <r_i_glide_ecoul>  (19) 
-1.95038

>  <r_i_glide_erotb>  (19) 
0

>  <r_i_glide_esite>  (19) 
-0.00454877

>  <r_i_glide_emodel>  (19) 
-23.5713

>  <r_i_glide_energy>  (19) 
-19.7111

>  <r_i_glide_einternal>  (19) 
0

>  <r_i_glide_intrahb_reward>  (19) 
-0

>  <i_i_glide_confnum>  (19) 
2

>  <i_i_glide_posenum>  (19) 
21

>  <r_i_glide_eff_state_penalty>  (19) 
0

>  <ligand_id>  (19) 
4

>  <original_smiles>  (19) 
CN1C(=O)C23CC4Cc5nn(C)cc5C(C=C5C1CN52)C43

>  <smiles>  (19) 
[H]c1c2c(nn1C([H])([H])[H])C([H])([H])C1([H])C([H])([H])C34C(=O)N(C([H])([H])[H])C5=C(N3C5([H])[H])C([H])([H])C2([H])C41[H]

$$$$
4:0:1
     RDKit          3D

 39 44  0  0  1  0  0  0  0  0999 V2000
    3.4728   -6.0418    2.7935 C   0  0  0  0  0  0  0  0  0  0  0  0
    3.7285   -4.9250    1.8778 N   0  0  0  0  0  0  0  0  0  0  0  0
    4.9427   -4.7165    1.2760 C   0  0  0  0  0  0  0  0  0  0  0  0
    5.9177   -5.4505    1.3484 O   0  0  0  0  0  0  0  0  0  0  0  0
    5.0009   -3.3482    0.5361 C   0  0  2  0  0  0  0  0  0  0  0  0
    6.3548   -2.6489    0.4413 C   0  0  0  0  0  0  0  0  0  0  0  0
    5.9953   -2.3111   -1.0092 C   0  0  2  0  0  0  0  0  0  0  0  0
    5.3894   -0.9429   -1.3103 C   0  0  0  0  0  0  0  0  0  0  0  0
    4.3327   -1.0558   -2.3399 C   0  0  0  0  0  0  0  0  0  0  0  0
    4.1169   -0.1032   -3.2211 N   0  0  0  0  0  0  0  0  0  0  0  0
    3.0977   -0.5706   -3.9674 N   0  0  0  0  0  0  0  0  0  0  0  0
    2.5434    0.2590   -5.0278 C   0  0  0  0  0  0  0  0  0  0  0  0
    2.7359   -1.8501   -3.5823 C   0  0  0  0  0  0  0  0  0  0  0  0
    3.5307   -2.1963   -2.5271 C   0  0  0  0  0  0  0  0  0  0  0  0
    3.6826   -3.4806   -1.7490 C   0  0  2  0  0  0  0  0  0  0  0  0
    2.4892   -3.7318   -0.7782 C   0  0  0  0  0  0  0  0  0  0  0  0
    2.6650   -3.1541    0.6302 C   0  0  0  0  0  0  0  0  0  0  0  0
    2.7908   -3.8633    1.7896 C   0  0  0  0  0  0  0  0  0  0  0  0
    3.4173   -2.5501    2.2788 C   0  0  0  0  0  0  0  0  0  0  0  0
    3.8614   -2.4809    0.8917 N   0  0  0  0  0  0  0  0  0  0  0  0
    5.0317   -3.5043   -0.9846 C   0  0  2  0  0  0  0  0  0  0  0  0
    4.2766   -6.7797    2.8210 H   0  0  0  0  0  0  0  0  0  0  0  0
    2.5790   -6.5632    2.4610 H   0  0  0  0  0  0  0  0  0  0  0  0
    3.3027   -5.7204    3.8245 H   0  0  0  0  0  0  0  0  0  0  0  0
    6.4467   -1.7649    1.0727 H   0  0  0  0  0  0  0  0  0  0  0  0
    7.2119   -3.3232    0.5143 H   0  0  0  0  0  0  0  0  0  0  0  0
    6.8174   -2.5582   -1.6737 H   0  0  0  0  0  0  0  0  0  0  0  0
    4.9749   -0.4946   -0.4128 H   0  0  0  0  0  0  0  0  0  0  0  0
    6.1509   -0.2758   -1.6481 H   0  0  0  0  0  0  0  0  0  0  0  0
    1.7233   -0.2488   -5.5217 H   0  0  0  0  0  0  0  0  0  0  0  0
    3.3091    0.5121   -5.7588 H   0  0  0  0  0  0  0  0  0  0  0  0
    2.1281    1.1837   -4.6381 H   0  0  0  0  0  0  0  0  0  0  0  0
    1.9614   -2.4005   -4.0927 H   0  0  0  0  0  0  0  0  0  0  0  0
    3.7136   -4.2565   -2.4998 H   0  0  0  0  0  0  0  0  0  0  0  0
    1.5738   -3.3432   -1.2044 H   0  0  0  0  0  0  0  0  0  0  0  0
    2.7450   -1.7207    2.5389 H   0  0  0  0  0  0  0  0  0  0  0  0
    4.2771   -2.5642    2.9442 H   0  0  0  0  0  0  0  0  0  0  0  0
    5.5880   -4.4081   -1.2253 H   0  0  0  0  0  0  0  0  0  0  0  0
    2.3184   -4.8078   -0.6726 H   0  0  0  0  0  0  0  0  0  0  0  0
  1  2  1  0
  1 22  1  0
  1 23  1  0
  1 24  1  0
  2 18  1  0
  2  3  1  0
  3  4  2  0
  3  5  1  0
  5 20  1  0
  5 21  1  0
  5  6  1  1
  6  7  1  0
  6 25  1  0
  6 26  1  0
  7 21  1  0
  7  8  1  0
  7 27  1  6
  8  9  1  0
  8 28  1  0
  8 29  1  0
  9 14  1  0
  9 10  2  0
 10 11  1  0
 11 12  1  0
 11 13  1  0
 12 30  1  0
 12 31  1  0
 12 32  1  0
 13 14  2  0
 13 33  1  0
 14 15  1  0
 15 16  1  0
 15 21  1  0
 15 34  1  6
 16 17  1  0
 16 35  1  0
 16 39  1  0
 17 20  1  0
 17 18  2  0
 18 19  1  0
 19 20  1  0
 19 36  1  0
 19 37  1  0
 21 38  1  1
M  END
>  <i_m_ct_stereo_status>  (20) 
1

>  <s_m_source_file>  (20) 
/var/tmp/pbs.5076255.sched01/tmpj20d55gn/0_c3see42.sdf

>  <i_m_source_file_index>  (20) 
8

>  <i_lp_mmshare_version>  (20) 
48012

>  <i_f3d_flags>  (20) 
0

>  <s_epik_input>  (20) 
Tz1DMU4oW0NIM10pW0NAQEhdKFtDSDJdMilDKE4yW0NAXTEzNCk9W0NIXVtDQEhdNWM2YyhbQ0gyXVtDQEBIXShbQ0gyXTMpW0NAQEhdNDUpbm4oW0NIM10pW2NIXTY=

>  <s_epik_cmdline>  (20) 
J2VwaWtfcHl0aG9uJywgJy1waHQnLCAnMi4wJywgJy1waCcsICc3LjAnLCAnLXRuJywgJzgnLCAnLW1hJywgJzIwMCcsICctaW1hZScsICc8aW5maWxlLm1hZT4nLCAnLW9tYWUnLCAnPG91dGZpbGUubWFlPic=

>  <r_lp_tautomer_probability>  (20) 
1

>  <r_epik_Ionization_Penalty>  (20) 
0.0016562

>  <r_epik_Ionization_Penalty_Charging>  (20) 
3.59933e-08

>  <r_epik_Ionization_Penalty_Neutral>  (20) 
0.00165616

>  <r_epik_State_Penalty>  (20) 
-0

>  <r_epik_Charging_Adjusted_Penalty>  (20) 
3.59933e-08

>  <i_epik_Tot_Q>  (20) 
0

>  <i_epik_Tot_abs_Q>  (20) 
0

>  <s_epik_Chemistry_Notes>  (20) 
This compound has an imine and may undergo hydrolysis.

>  <s_lp_Force_Field>  (20) 
OPLS3e

>  <r_lp_Energy>  (20) 
111.019

>  <b_lp_Chiralities_Consistent>  (20) 
1

>  <s_lp_Variant>  (20) 
4:0-1

>  <s_i_glide_gridfile>  (20) 
pfpi4k_grid

>  <i_i_glide_lignum>  (20) 
8

>  <i_i_glide_rotatable_bonds>  (20) 
0

>  <r_i_docking_score>  (20) 
-3.53575

>  <r_i_glide_ligand_efficiency>  (20) 
-0.168369

>  <r_i_glide_ligand_efficiency_sa>  (20) 
-0.464517

>  <r_i_glide_ligand_efficiency_ln>  (20) 
-0.874206

>  <r_i_glide_gscore>  (20) 
-3.53575

>  <r_i_glide_lipo>  (20) 
-0.362329

>  <r_i_glide_hbond>  (20) 
0

>  <r_i_glide_metal>  (20) 
-0

>  <r_i_glide_rewards>  (20) 
-1.88486

>  <r_i_glide_evdw>  (20) 
-20.4399

>  <r_i_glide_ecoul>  (20) 
-1.71192

>  <r_i_glide_erotb>  (20) 
0

>  <r_i_glide_esite>  (20) 
-0.00977493

>  <r_i_glide_emodel>  (20) 
-25.9689

>  <r_i_glide_energy>  (20) 
-22.1518

>  <r_i_glide_einternal>  (20) 
0

>  <r_i_glide_intrahb_reward>  (20) 
-0

>  <i_i_glide_confnum>  (20) 
1

>  <i_i_glide_posenum>  (20) 
16

>  <r_i_glide_eff_state_penalty>  (20) 
0

>  <ligand_id>  (20) 
4

>  <original_smiles>  (20) 
CN1C(=O)C23CC4Cc5nn(C)cc5C(C=C5C1CN52)C43

>  <smiles>  (20) 
[H]c1c2c(nn1C([H])([H])[H])C([H])([H])C1([H])C([H])([H])C34C(=O)N(C([H])([H])[H])C5=C(N3C5([H])[H])C([H])([H])C2([H])C41[H]

$$$$
4:0:2
     RDKit          3D

 39 44  0  0  1  0  0  0  0  0999 V2000
    4.2033   -0.4410   -2.6720 C   0  0  0  0  0  0  0  0  0  0  0  0
    4.4959   -1.6263   -1.8768 N   0  0  0  0  0  0  0  0  0  0  0  0
    5.3261   -1.6616   -0.7887 C   0  0  0  0  0  0  0  0  0  0  0  0
    5.8754   -0.6927   -0.2813 O   0  0  0  0  0  0  0  0  0  0  0  0
    5.5808   -3.1204   -0.2829 C   0  0  2  0  0  0  0  0  0  0  0  0
    6.9418   -3.4245    0.3518 C   0  0  0  0  0  0  0  0  0  0  0  0
    6.2005   -4.2534    1.4107 C   0  0  2  0  0  0  0  0  0  0  0  0
    6.1205   -5.7779    1.2323 C   0  0  0  0  0  0  0  0  0  0  0  0
    4.7560   -6.2525    1.6057 C   0  0  0  0  0  0  0  0  0  0  0  0
    4.5604   -7.4684    2.0835 N   0  0  0  0  0  0  0  0  0  0  0  0
    3.2351   -7.5163    2.3285 N   0  0  0  0  0  0  0  0  0  0  0  0
    2.6613   -8.7261    2.8864 C   0  0  0  0  0  0  0  0  0  0  0  0
    2.6116   -6.3239    1.9992 C   0  0  0  0  0  0  0  0  0  0  0  0
    3.5682   -5.4707    1.5312 C   0  0  0  0  0  0  0  0  0  0  0  0
    3.5159   -4.0153    1.0916 C   0  0  2  0  0  0  0  0  0  0  0  0
    2.8076   -3.8221   -0.2839 C   0  0  0  0  0  0  0  0  0  0  0  0
    3.7443   -3.8458   -1.4938 C   0  0  0  0  0  0  0  0  0  0  0  0
    4.0571   -2.8707   -2.3749 C   0  0  0  0  0  0  0  0  0  0  0  0
    5.2619   -3.7880   -2.6519 C   0  0  0  0  0  0  0  0  0  0  0  0
    5.0810   -4.1196   -1.2419 N   0  0  0  0  0  0  0  0  0  0  0  0
    4.9415   -3.4075    1.0819 C   0  0  2  0  0  0  0  0  0  0  0  0
    4.6161    0.4691   -2.2525 H   0  0  0  0  0  0  0  0  0  0  0  0
    3.1227   -0.3050   -2.7330 H   0  0  0  0  0  0  0  0  0  0  0  0
    4.5942   -0.5052   -3.6900 H   0  0  0  0  0  0  0  0  0  0  0  0
    7.6138   -4.0162   -0.2698 H   0  0  0  0  0  0  0  0  0  0  0  0
    7.4344   -2.5482    0.7835 H   0  0  0  0  0  0  0  0  0  0  0  0
    6.5183   -3.9873    2.4159 H   0  0  0  0  0  0  0  0  0  0  0  0
    6.2907   -6.0324    0.1896 H   0  0  0  0  0  0  0  0  0  0  0  0
    6.9007   -6.2835    1.8022 H   0  0  0  0  0  0  0  0  0  0  0  0
    1.5849   -8.6078    3.0106 H   0  0  0  0  0  0  0  0  0  0  0  0
    3.1052   -8.9439    3.8591 H   0  0  0  0  0  0  0  0  0  0  0  0
    2.8486   -9.5647    2.2157 H   0  0  0  0  0  0  0  0  0  0  0  0
    1.5506   -6.1841    2.1600 H   0  0  0  0  0  0  0  0  0  0  0  0
    2.9042   -3.4771    1.8228 H   0  0  0  0  0  0  0  0  0  0  0  0
    2.0402   -4.5785   -0.4324 H   0  0  0  0  0  0  0  0  0  0  0  0
    5.0988   -4.6520   -3.3096 H   0  0  0  0  0  0  0  0  0  0  0  0
    6.2522   -3.3579   -2.8361 H   0  0  0  0  0  0  0  0  0  0  0  0
    4.9698   -2.4922    1.6703 H   0  0  0  0  0  0  0  0  0  0  0  0
    2.2873   -2.8615   -0.2997 H   0  0  0  0  0  0  0  0  0  0  0  0
  1  2  1  0
  1 22  1  0
  1 23  1  0
  1 24  1  0
  2 18  1  0
  2  3  1  0
  3  4  2  0
  3  5  1  0
  5 20  1  0
  5 21  1  0
  5  6  1  1
  6  7  1  0
  6 25  1  0
  6 26  1  0
  7 21  1  0
  7  8  1  0
  7 27  1  1
  8  9  1  0
  8 28  1  0
  8 29  1  0
  9 14  1  0
  9 10  2  0
 10 11  1  0
 11 12  1  0
 11 13  1  0
 12 30  1  0
 12 31  1  0
 12 32  1  0
 13 14  2  0
 13 33  1  0
 14 15  1  0
 15 16  1  0
 15 21  1  0
 15 34  1  1
 16 17  1  0
 16 35  1  0
 16 39  1  0
 17 20  1  0
 17 18  2  0
 18 19  1  0
 19 20  1  0
 19 36  1  0
 19 37  1  0
 21 38  1  1
M  END
>  <i_m_ct_stereo_status>  (21) 
1

>  <s_m_source_file>  (21) 
/var/tmp/pbs.5076255.sched01/tmpj20d55gn/0_c3see42.sdf

>  <i_m_source_file_index>  (21) 
8

>  <i_lp_mmshare_version>  (21) 
48012

>  <i_f3d_flags>  (21) 
0

>  <s_epik_input>  (21) 
Tz1DMU4oW0NIM10pW0NAQEhdKFtDSDJdMilDKE4yW0NAXTEzNCk9W0NIXVtDQEhdNWM2YyhbQ0gyXVtDQEBIXShbQ0gyXTMpW0NAQEhdNDUpbm4oW0NIM10pW2NIXTY=

>  <s_epik_cmdline>  (21) 
J2VwaWtfcHl0aG9uJywgJy1waHQnLCAnMi4wJywgJy1waCcsICc3LjAnLCAnLXRuJywgJzgnLCAnLW1hJywgJzIwMCcsICctaW1hZScsICc8aW5maWxlLm1hZT4nLCAnLW9tYWUnLCAnPG91dGZpbGUubWFlPic=

>  <r_lp_tautomer_probability>  (21) 
1

>  <r_epik_Ionization_Penalty>  (21) 
0.0016562

>  <r_epik_Ionization_Penalty_Charging>  (21) 
3.59933e-08

>  <r_epik_Ionization_Penalty_Neutral>  (21) 
0.00165616

>  <r_epik_State_Penalty>  (21) 
-0

>  <r_epik_Charging_Adjusted_Penalty>  (21) 
3.59933e-08

>  <i_epik_Tot_Q>  (21) 
0

>  <i_epik_Tot_abs_Q>  (21) 
0

>  <s_epik_Chemistry_Notes>  (21) 
This compound has an imine and may undergo hydrolysis.

>  <s_lp_Force_Field>  (21) 
OPLS3e

>  <r_lp_Energy>  (21) 
111.019

>  <b_lp_Chiralities_Consistent>  (21) 
1

>  <s_lp_Variant>  (21) 
4:0-1

>  <s_i_glide_gridfile>  (21) 
pfpi4k_grid

>  <i_i_glide_lignum>  (21) 
8

>  <i_i_glide_rotatable_bonds>  (21) 
0

>  <r_i_docking_score>  (21) 
-3.31935

>  <r_i_glide_ligand_efficiency>  (21) 
-0.158064

>  <r_i_glide_ligand_efficiency_sa>  (21) 
-0.436088

>  <r_i_glide_ligand_efficiency_ln>  (21) 
-0.820704

>  <r_i_glide_gscore>  (21) 
-3.31935

>  <r_i_glide_lipo>  (21) 
-0.679723

>  <r_i_glide_hbond>  (21) 
-0.0107982

>  <r_i_glide_metal>  (21) 
-0

>  <r_i_glide_rewards>  (21) 
-1.48404

>  <r_i_glide_evdw>  (21) 
-19.7328

>  <r_i_glide_ecoul>  (21) 
-0.524316

>  <r_i_glide_erotb>  (21) 
0

>  <r_i_glide_esite>  (21) 
-0.0795015

>  <r_i_glide_emodel>  (21) 
-23.9719

>  <r_i_glide_energy>  (21) 
-20.2571

>  <r_i_glide_einternal>  (21) 
0

>  <r_i_glide_intrahb_reward>  (21) 
-0

>  <i_i_glide_confnum>  (21) 
1

>  <i_i_glide_posenum>  (21) 
2

>  <r_i_glide_eff_state_penalty>  (21) 
0

>  <ligand_id>  (21) 
4

>  <original_smiles>  (21) 
CN1C(=O)C23CC4Cc5nn(C)cc5C(C=C5C1CN52)C43

>  <smiles>  (21) 
[H]c1c2c(nn1C([H])([H])[H])C([H])([H])C1([H])C([H])([H])C34C(=O)N(C([H])([H])[H])C5=C(N3C5([H])[H])C([H])([H])C2([H])C41[H]

$$$$
5:0:0
     RDKit          3D

 21 22  0  0  1  0  0  0  0  0999 V2000
    2.6807   -0.1348   -4.0831 C   0  0  0  0  0  0  0  0  0  0  0  0
    3.0393   -0.9324   -2.9133 N   0  0  0  0  0  0  0  0  0  0  0  0
    4.0192   -1.8369   -2.8966 C   0  0  0  0  0  0  0  0  0  0  0  0
    4.6201   -2.1548   -3.9155 O   0  0  0  0  0  0  0  0  0  0  0  0
    4.3040   -2.3948   -1.5462 C   0  0  0  0  0  0  0  0  0  0  0  0
    3.3824   -2.7671   -0.5376 C   0  0  0  0  0  0  0  0  0  0  0  0
    3.9426   -3.2670    0.5328 N   0  0  0  0  0  0  0  0  0  0  0  0
    5.2765   -3.2392    0.2376 N   0  0  0  0  0  0  0  0  0  0  0  0
    6.2652   -3.6597    1.0618 C   0  0  0  0  0  0  0  0  0  0  0  0
    7.5603   -3.5707    0.6066 C   0  0  0  0  0  0  0  0  0  0  0  0
    7.7919   -3.0435   -0.6849 C   0  0  0  0  0  0  0  0  0  0  0  0
    6.8279   -2.5948   -1.4940 N   0  0  0  0  0  0  0  0  0  0  0  0
    5.5500   -2.7093   -1.0480 C   0  0  0  0  0  0  0  0  0  0  0  0
    1.8667    0.5442   -3.8702 H   0  0  0  0  0  0  0  0  0  0  0  0
    2.3643   -0.7572   -4.9191 H   0  0  0  0  0  0  0  0  0  0  0  0
    3.5191    0.4839   -4.4079 H   0  0  0  0  0  0  0  0  0  0  0  0
    2.5180   -0.7745   -2.0574 H   0  0  0  0  0  0  0  0  0  0  0  0
    2.3042   -2.6784   -0.5976 H   0  0  0  0  0  0  0  0  0  0  0  0
    5.9803   -4.0311    2.0397 H   0  0  0  0  0  0  0  0  0  0  0  0
    8.3633   -3.8840    1.2646 H   0  0  0  0  0  0  0  0  0  0  0  0
    8.8162   -2.9569   -1.0392 H   0  0  0  0  0  0  0  0  0  0  0  0
  1  2  1  0
  1 14  1  0
  1 15  1  0
  1 16  1  0
  2  3  1  0
  2 17  1  0
  3  4  2  0
  3  5  1  0
  5 13  2  0
  5  6  1  0
  6  7  2  0
  6 18  1  0
  7  8  1  0
  8 13  1  0
  8  9  1  0
  9 10  2  0
  9 19  1  0
 10 11  1  0
 10 20  1  0
 11 12  2  0
 11 21  1  0
 12 13  1  0
M  END
>  <i_m_ct_stereo_status>  (22) 
1

>  <s_m_source_file>  (22) 
/var/tmp/pbs.5076255.sched01/tmpj20d55gn/0_c3see42.sdf

>  <i_m_source_file_index>  (22) 
9

>  <i_lp_mmshare_version>  (22) 
48012

>  <i_f3d_flags>  (22) 
0

>  <s_epik_input>  (22) 
W0NIM11bTkhdQyg9TyljKFtjSF1uMSljKG4xMiluW2NIXVtjSF1bY0hdMg==

>  <s_epik_cmdline>  (22) 
J2VwaWtfcHl0aG9uJywgJy1waHQnLCAnMi4wJywgJy1waCcsICc3LjAnLCAnLXRuJywgJzgnLCAnLW1hJywgJzIwMCcsICctaW1hZScsICc8aW5maWxlLm1hZT4nLCAnLW9tYWUnLCAnPG91dGZpbGUubWFlPic=

>  <r_lp_tautomer_probability>  (22) 
1

>  <r_epik_Ionization_Penalty>  (22) 
4.13829e-06

>  <r_epik_Ionization_Penalty_Charging>  (22) 
0

>  <r_epik_Ionization_Penalty_Neutral>  (22) 
4.13829e-06

>  <r_epik_State_Penalty>  (22) 
-0

>  <r_epik_Charging_Adjusted_Penalty>  (22) 
0

>  <i_epik_Tot_Q>  (22) 
0

>  <i_epik_Tot_abs_Q>  (22) 
0

>  <s_lp_Force_Field>  (22) 
OPLS3e

>  <r_lp_Energy>  (22) 
11.2645

>  <b_lp_Chiralities_Consistent>  (22) 
1

>  <s_lp_Variant>  (22) 
5:0-1

>  <s_i_glide_gridfile>  (22) 
pfpi4k_grid

>  <i_i_glide_lignum>  (22) 
9

>  <i_i_glide_rotatable_bonds>  (22) 
2

>  <r_i_docking_score>  (22) 
-4.8772

>  <r_i_glide_ligand_efficiency>  (22) 
-0.375169

>  <r_i_glide_ligand_efficiency_sa>  (22) 
-0.882149

>  <r_i_glide_ligand_efficiency_ln>  (22) 
-1.3681

>  <r_i_glide_gscore>  (22) 
-4.8772

>  <r_i_glide_lipo>  (22) 
-0.399028

>  <r_i_glide_hbond>  (22) 
-0.324554

>  <r_i_glide_metal>  (22) 
-0

>  <r_i_glide_rewards>  (22) 
-2.31546

>  <r_i_glide_evdw>  (22) 
-19.3969

>  <r_i_glide_ecoul>  (22) 
-5.58548

>  <r_i_glide_erotb>  (22) 
0

>  <r_i_glide_esite>  (22) 
-0.0304912

>  <r_i_glide_emodel>  (22) 
-32.8829

>  <r_i_glide_energy>  (22) 
-24.9824

>  <r_i_glide_einternal>  (22) 
0.969798

>  <r_i_glide_intrahb_reward>  (22) 
-0

>  <i_i_glide_confnum>  (22) 
2

>  <i_i_glide_posenum>  (22) 
7

>  <r_i_glide_eff_state_penalty>  (22) 
0

>  <ligand_id>  (22) 
5

>  <original_smiles>  (22) 
CNC(=O)c1cnn2cccnc12

>  <smiles>  (22) 
[H]c1nc2c(C(=O)N([H])C([H])([H])[H])c([H])nn2c([H])c1[H]

$$$$
5:0:1
     RDKit          3D

 21 22  0  0  1  0  0  0  0  0999 V2000
    3.1741   -0.2185   -4.3146 C   0  0  0  0  0  0  0  0  0  0  0  0
    3.0380   -1.1664   -3.2156 N   0  0  0  0  0  0  0  0  0  0  0  0
    3.7848   -2.2688   -3.0775 C   0  0  0  0  0  0  0  0  0  0  0  0
    4.6207   -2.6106   -3.9103 O   0  0  0  0  0  0  0  0  0  0  0  0
    3.4687   -3.0451   -1.8545 C   0  0  0  0  0  0  0  0  0  0  0  0
    2.2021   -3.4582   -1.3962 C   0  0  0  0  0  0  0  0  0  0  0  0
    2.2410   -4.1981   -0.3105 N   0  0  0  0  0  0  0  0  0  0  0  0
    3.5814   -4.2779   -0.0331 N   0  0  0  0  0  0  0  0  0  0  0  0
    4.1250   -4.9365    1.0249 C   0  0  0  0  0  0  0  0  0  0  0  0
    5.4916   -4.9187    1.1486 C   0  0  0  0  0  0  0  0  0  0  0  0
    6.2506   -4.2362    0.1732 C   0  0  0  0  0  0  0  0  0  0  0  0
    5.7256   -3.5852   -0.8657 N   0  0  0  0  0  0  0  0  0  0  0  0
    4.3827   -3.5911   -0.9837 C   0  0  0  0  0  0  0  0  0  0  0  0
    2.4382    0.5719   -4.2069 H   0  0  0  0  0  0  0  0  0  0  0  0
    3.0077   -0.6705   -5.2906 H   0  0  0  0  0  0  0  0  0  0  0  0
    4.1664    0.2312   -4.3151 H   0  0  0  0  0  0  0  0  0  0  0  0
    2.3367   -0.9863   -2.5048 H   0  0  0  0  0  0  0  0  0  0  0  0
    1.2529   -3.2403   -1.8639 H   0  0  0  0  0  0  0  0  0  0  0  0
    3.4486   -5.4227    1.7152 H   0  0  0  0  0  0  0  0  0  0  0  0
    5.9596   -5.4305    1.9834 H   0  0  0  0  0  0  0  0  0  0  0  0
    7.3357   -4.2250    0.2672 H   0  0  0  0  0  0  0  0  0  0  0  0
  1  2  1  0
  1 14  1  0
  1 15  1  0
  1 16  1  0
  2  3  1  0
  2 17  1  0
  3  4  2  0
  3  5  1  0
  5 13  2  0
  5  6  1  0
  6  7  2  0
  6 18  1  0
  7  8  1  0
  8 13  1  0
  8  9  1  0
  9 10  2  0
  9 19  1  0
 10 11  1  0
 10 20  1  0
 11 12  2  0
 11 21  1  0
 12 13  1  0
M  END
>  <i_m_ct_stereo_status>  (23) 
1

>  <s_m_source_file>  (23) 
/var/tmp/pbs.5076255.sched01/tmpj20d55gn/0_c3see42.sdf

>  <i_m_source_file_index>  (23) 
9

>  <i_lp_mmshare_version>  (23) 
48012

>  <i_f3d_flags>  (23) 
0

>  <s_epik_input>  (23) 
W0NIM11bTkhdQyg9TyljKFtjSF1uMSljKG4xMiluW2NIXVtjSF1bY0hdMg==

>  <s_epik_cmdline>  (23) 
J2VwaWtfcHl0aG9uJywgJy1waHQnLCAnMi4wJywgJy1waCcsICc3LjAnLCAnLXRuJywgJzgnLCAnLW1hJywgJzIwMCcsICctaW1hZScsICc8aW5maWxlLm1hZT4nLCAnLW9tYWUnLCAnPG91dGZpbGUubWFlPic=

>  <r_lp_tautomer_probability>  (23) 
1

>  <r_epik_Ionization_Penalty>  (23) 
4.13829e-06

>  <r_epik_Ionization_Penalty_Charging>  (23) 
0

>  <r_epik_Ionization_Penalty_Neutral>  (23) 
4.13829e-06

>  <r_epik_State_Penalty>  (23) 
-0

>  <r_epik_Charging_Adjusted_Penalty>  (23) 
0

>  <i_epik_Tot_Q>  (23) 
0

>  <i_epik_Tot_abs_Q>  (23) 
0

>  <s_lp_Force_Field>  (23) 
OPLS3e

>  <r_lp_Energy>  (23) 
11.2645

>  <b_lp_Chiralities_Consistent>  (23) 
1

>  <s_lp_Variant>  (23) 
5:0-1

>  <s_i_glide_gridfile>  (23) 
pfpi4k_grid

>  <i_i_glide_lignum>  (23) 
9

>  <i_i_glide_rotatable_bonds>  (23) 
2

>  <r_i_docking_score>  (23) 
-4.65467

>  <r_i_glide_ligand_efficiency>  (23) 
-0.358052

>  <r_i_glide_ligand_efficiency_sa>  (23) 
-0.841899

>  <r_i_glide_ligand_efficiency_ln>  (23) 
-1.30568

>  <r_i_glide_gscore>  (23) 
-4.65467

>  <r_i_glide_lipo>  (23) 
-0.503243

>  <r_i_glide_hbond>  (23) 
-0.160576

>  <r_i_glide_metal>  (23) 
-0

>  <r_i_glide_rewards>  (23) 
-2.36169

>  <r_i_glide_evdw>  (23) 
-19.5768

>  <r_i_glide_ecoul>  (23) 
-4.20607

>  <r_i_glide_erotb>  (23) 
0

>  <r_i_glide_esite>  (23) 
-0.0194128

>  <r_i_glide_emodel>  (23) 
-31.0997

>  <r_i_glide_energy>  (23) 
-23.7829

>  <r_i_glide_einternal>  (23) 
1.20214

>  <r_i_glide_intrahb_reward>  (23) 
-0

>  <i_i_glide_confnum>  (23) 
1

>  <i_i_glide_posenum>  (23) 
8

>  <r_i_glide_eff_state_penalty>  (23) 
0

>  <ligand_id>  (23) 
5

>  <original_smiles>  (23) 
CNC(=O)c1cnn2cccnc12

>  <smiles>  (23) 
[H]c1nc2c(C(=O)N([H])C([H])([H])[H])c([H])nn2c([H])c1[H]

$$$$
5:0:2
     RDKit          3D

 21 22  0  0  1  0  0  0  0  0999 V2000
    4.1770   -4.4542    0.4242 C   0  0  0  0  0  0  0  0  0  0  0  0
    3.5392   -5.5744    1.0957 N   0  0  0  0  0  0  0  0  0  0  0  0
    2.2934   -6.0085    0.8805 C   0  0  0  0  0  0  0  0  0  0  0  0
    1.5019   -5.4656    0.1068 O   0  0  0  0  0  0  0  0  0  0  0  0
    1.9468   -7.2146    1.6804 C   0  0  0  0  0  0  0  0  0  0  0  0
    2.7925   -8.2693    2.1089 C   0  0  0  0  0  0  0  0  0  0  0  0
    2.1694   -9.2204    2.7528 N   0  0  0  0  0  0  0  0  0  0  0  0
    0.8654   -8.8143    2.7510 N   0  0  0  0  0  0  0  0  0  0  0  0
   -0.1679   -9.4923    3.3096 C   0  0  0  0  0  0  0  0  0  0  0  0
   -1.4139   -8.9352    3.2129 C   0  0  0  0  0  0  0  0  0  0  0  0
   -1.5550   -7.7071    2.5433 C   0  0  0  0  0  0  0  0  0  0  0  0
   -0.5563   -7.0196    2.0044 N   0  0  0  0  0  0  0  0  0  0  0  0
    0.6835   -7.5704    2.0934 C   0  0  0  0  0  0  0  0  0  0  0  0
    5.2010   -4.3292    0.7758 H   0  0  0  0  0  0  0  0  0  0  0  0
    3.6390   -3.5300    0.6293 H   0  0  0  0  0  0  0  0  0  0  0  0
    4.2129   -4.6107   -0.6546 H   0  0  0  0  0  0  0  0  0  0  0  0
    4.1106   -6.0891    1.7551 H   0  0  0  0  0  0  0  0  0  0  0  0
    3.8544   -8.3600    1.9387 H   0  0  0  0  0  0  0  0  0  0  0  0
    0.0408  -10.4240    3.8226 H   0  0  0  0  0  0  0  0  0  0  0  0
   -2.2506   -9.4556    3.6658 H   0  0  0  0  0  0  0  0  0  0  0  0
   -2.5530   -7.2792    2.4773 H   0  0  0  0  0  0  0  0  0  0  0  0
  1  2  1  0
  1 14  1  0
  1 15  1  0
  1 16  1  0
  2  3  1  0
  2 17  1  0
  3  4  2  0
  3  5  1  0
  5 13  2  0
  5  6  1  0
  6  7  2  0
  6 18  1  0
  7  8  1  0
  8 13  1  0
  8  9  1  0
  9 10  2  0
  9 19  1  0
 10 11  1  0
 10 20  1  0
 11 12  2  0
 11 21  1  0
 12 13  1  0
M  END
>  <i_m_ct_stereo_status>  (24) 
1

>  <s_m_source_file>  (24) 
/var/tmp/pbs.5076255.sched01/tmpj20d55gn/0_c3see42.sdf

>  <i_m_source_file_index>  (24) 
9

>  <i_lp_mmshare_version>  (24) 
48012

>  <i_f3d_flags>  (24) 
0

>  <s_epik_input>  (24) 
W0NIM11bTkhdQyg9TyljKFtjSF1uMSljKG4xMiluW2NIXVtjSF1bY0hdMg==

>  <s_epik_cmdline>  (24) 
J2VwaWtfcHl0aG9uJywgJy1waHQnLCAnMi4wJywgJy1waCcsICc3LjAnLCAnLXRuJywgJzgnLCAnLW1hJywgJzIwMCcsICctaW1hZScsICc8aW5maWxlLm1hZT4nLCAnLW9tYWUnLCAnPG91dGZpbGUubWFlPic=

>  <r_lp_tautomer_probability>  (24) 
1

>  <r_epik_Ionization_Penalty>  (24) 
4.13829e-06

>  <r_epik_Ionization_Penalty_Charging>  (24) 
0

>  <r_epik_Ionization_Penalty_Neutral>  (24) 
4.13829e-06

>  <r_epik_State_Penalty>  (24) 
-0

>  <r_epik_Charging_Adjusted_Penalty>  (24) 
0

>  <i_epik_Tot_Q>  (24) 
0

>  <i_epik_Tot_abs_Q>  (24) 
0

>  <s_lp_Force_Field>  (24) 
OPLS3e

>  <r_lp_Energy>  (24) 
11.2645

>  <b_lp_Chiralities_Consistent>  (24) 
1

>  <s_lp_Variant>  (24) 
5:0-1

>  <s_i_glide_gridfile>  (24) 
pfpi4k_grid

>  <i_i_glide_lignum>  (24) 
9

>  <i_i_glide_rotatable_bonds>  (24) 
2

>  <r_i_docking_score>  (24) 
-4.18014

>  <r_i_glide_ligand_efficiency>  (24) 
-0.321549

>  <r_i_glide_ligand_efficiency_sa>  (24) 
-0.75607

>  <r_i_glide_ligand_efficiency_ln>  (24) 
-1.17257

>  <r_i_glide_gscore>  (24) 
-4.18014

>  <r_i_glide_lipo>  (24) 
-0.0317166

>  <r_i_glide_hbond>  (24) 
-0.253317

>  <r_i_glide_metal>  (24) 
-0

>  <r_i_glide_rewards>  (24) 
-2.2079

>  <r_i_glide_evdw>  (24) 
-16.8814

>  <r_i_glide_ecoul>  (24) 
-4.98467

>  <r_i_glide_erotb>  (24) 
0

>  <r_i_glide_esite>  (24) 
-0.0954452

>  <r_i_glide_emodel>  (24) 
-28.9742

>  <r_i_glide_energy>  (24) 
-21.866

>  <r_i_glide_einternal>  (24) 
0.142268

>  <r_i_glide_intrahb_reward>  (24) 
-0

>  <i_i_glide_confnum>  (24) 
1

>  <i_i_glide_posenum>  (24) 
35

>  <r_i_glide_eff_state_penalty>  (24) 
0

>  <ligand_id>  (24) 
5

>  <original_smiles>  (24) 
CNC(=O)c1cnn2cccnc12

>  <smiles>  (24) 
[H]c1nc2c(C(=O)N([H])C([H])([H])[H])c([H])nn2c([H])c1[H]

$$$$
6:0:0
     RDKit          3D

 53 59  0  0  1  0  0  0  0  0999 V2000
    3.3401    5.0603    3.5837 C   0  0  0  0  0  0  0  0  0  0  0  0
    2.2763    4.2973    4.2802 N   0  0  1  0  0  0  0  0  0  0  0  0
    1.2191    3.8458    3.3239 C   0  0  0  0  0  0  0  0  0  0  0  0
    1.5067    2.4513    2.7117 C   0  0  0  0  0  0  0  0  0  0  0  0
    1.8844    1.4418    3.8341 C   0  0  1  0  0  0  0  0  0  0  0  0
    0.7342    1.3666    4.7765 C   0  0  0  0  0  0  0  0  0  0  0  0
    0.5468    2.1360    5.9249 C   0  0  0  0  0  0  0  0  0  0  0  0
   -0.6875    1.9816    6.5798 C   0  0  0  0  0  0  0  0  0  0  0  0
   -1.6394    1.0686    6.0544 C   0  0  0  0  0  0  0  0  0  0  0  0
   -1.3400    0.2596    4.9256 C   0  0  0  0  0  0  0  0  0  0  0  0
   -2.2388   -0.6551    4.4813 O   0  0  0  0  0  0  0  0  0  0  0  0
   -0.1053    0.3889    4.2649 C   0  0  0  0  0  0  0  0  0  0  0  0
    0.4724   -0.3300    3.2395 O   0  0  0  0  0  0  0  0  0  0  0  0
    1.8574   -0.0384    3.4721 C   0  0  1  0  0  0  0  0  0  0  0  0
    2.8683   -0.4589    2.4832 C   0  0  0  0  0  0  0  0  0  0  0  0
    2.6385   -0.9334    1.2054 N   0  0  0  0  0  0  0  0  0  0  0  0
    3.8404   -1.2458    0.6003 C   0  0  0  0  0  0  0  0  0  0  0  0
    4.1528   -1.7450   -0.6761 C   0  0  0  0  0  0  0  0  0  0  0  0
    5.4957   -1.9857   -1.0235 C   0  0  0  0  0  0  0  0  0  0  0  0
    6.5138   -1.7289   -0.0846 C   0  0  0  0  0  0  0  0  0  0  0  0
    6.1912   -1.2100    1.1850 C   0  0  0  0  0  0  0  0  0  0  0  0
    4.8526   -0.9500    1.5594 C   0  0  0  0  0  0  0  0  0  0  0  0
    4.2188   -0.4248    2.7403 C   0  0  0  0  0  0  0  0  0  0  0  0
    4.9204    0.0470    4.0104 C   0  0  0  0  0  0  0  0  0  0  0  0
    4.1236    0.9134    5.0466 C   0  0  0  0  0  0  0  0  0  0  0  0
    3.1994    1.9791    4.4089 C   0  0  2  0  0  0  0  0  0  0  0  0
    2.8009    3.2404    5.2170 C   0  0  2  0  0  0  0  0  0  0  0  0
    1.7736    2.9414    6.3409 C   0  0  0  0  0  0  0  0  0  0  0  0
    1.7315   -0.9873    0.7392 H   0  0  0  0  0  0  0  0  0  0  0  0
    3.8086    4.4405    2.8252 H   0  0  0  0  0  0  0  0  0  0  0  0
    4.0935    5.4186    4.2873 H   0  0  0  0  0  0  0  0  0  0  0  0
    2.9165    5.9273    3.0741 H   0  0  0  0  0  0  0  0  0  0  0  0
    0.2559    3.8287    3.8350 H   0  0  0  0  0  0  0  0  0  0  0  0
    1.1084    4.6046    2.5490 H   0  0  0  0  0  0  0  0  0  0  0  0
    0.6358    2.1263    2.1429 H   0  0  0  0  0  0  0  0  0  0  0  0
    2.3092    2.5370    1.9787 H   0  0  0  0  0  0  0  0  0  0  0  0
   -0.8981    2.5492    7.4756 H   0  0  0  0  0  0  0  0  0  0  0  0
   -2.5894    0.9827    6.5462 H   0  0  0  0  0  0  0  0  0  0  0  0
   -2.9075   -0.2555    3.9313 H   0  0  0  0  0  0  0  0  0  0  0  0
    2.0917   -0.6328    4.3643 H   0  0  0  0  0  0  0  0  0  0  0  0
    3.3566   -1.9404   -1.3775 H   0  0  0  0  0  0  0  0  0  0  0  0
    5.7399   -2.3772   -2.0013 H   0  0  0  0  0  0  0  0  0  0  0  0
    7.5482   -1.9224   -0.3275 H   0  0  0  0  0  0  0  0  0  0  0  0
    6.9789   -1.0024    1.8907 H   0  0  0  0  0  0  0  0  0  0  0  0
    5.3431   -0.8115    4.5327 H   0  0  0  0  0  0  0  0  0  0  0  0
    5.7909    0.6234    3.7030 H   0  0  0  0  0  0  0  0  0  0  0  0
    3.5527    0.2737    5.7210 H   0  0  0  0  0  0  0  0  0  0  0  0
    4.8558    1.4091    5.6856 H   0  0  0  0  0  0  0  0  0  0  0  0
    3.8159    2.3297    3.5835 H   0  0  0  0  0  0  0  0  0  0  0  0
    3.6905    3.6497    5.6963 H   0  0  0  0  0  0  0  0  0  0  0  0
    1.4479    3.8668    6.8156 H   0  0  0  0  0  0  0  0  0  0  0  0
    2.2787    2.3691    7.1165 H   0  0  0  0  0  0  0  0  0  0  0  0
    1.8223    4.9853    4.8693 H   0  0  0  0  0  0  0  0  0  0  0  0
  1  2  1  0
  1 30  1  0
  1 31  1  0
  1 32  1  0
  2 27  1  0
  2  3  1  0
  2 53  1  1
  3  4  1  0
  3 33  1  0
  3 34  1  0
  5  4  1  6
  4 35  1  0
  4 36  1  0
  5 14  1  0
  5 26  1  0
  5  6  1  0
  6 12  2  0
  6  7  1  0
  7 28  1  0
  7  8  2  0
  8  9  1  0
  8 37  1  0
  9 10  2  0
  9 38  1  0
 10 11  1  0
 10 12  1  0
 11 39  1  0
 12 13  1  0
 13 14  1  0
 14 15  1  0
 14 40  1  1
 15 23  2  0
 15 16  1  0
 16 29  1  0
 16 17  1  0
 17 22  2  0
 17 18  1  0
 18 19  2  0
 18 41  1  0
 19 20  1  0
 19 42  1  0
 20 21  2  0
 20 43  1  0
 21 22  1  0
 21 44  1  0
 22 23  1  0
 23 24  1  0
 24 25  1  0
 24 45  1  0
 24 46  1  0
 25 26  1  0
 25 47  1  0
 25 48  1  0
 26 27  1  0
 26 49  1  6
 27 28  1  0
 27 50  1  1
 28 51  1  0
 28 52  1  0
M  CHG  1   2   1
M  END
>  <i_m_ct_stereo_status>  (25) 
1

>  <s_m_source_file>  (25) 
/var/tmp/pbs.5076255.sched01/tmpj20d55gn/0_c3see42.sdf

>  <i_m_source_file_index>  (25) 
10

>  <i_lp_mmshare_version>  (25) 
48012

>  <i_f3d_flags>  (25) 
0

>  <s_epik_input>  (25) 
W0NIMl0xW0NIMl1OKFtDSDNdKVtDQEBIXShbQ0gyXTIpW0NASF0zW0NIMl1bQ0gyXWMoYzRjKFtuSF01KVtjSF1bY0hdW2NIXVtjSF00KWM1W0NAQEhdNk9jN2MoW09IXSlbY0hdW2NIXWMyYzdbQ0BAXTEzNg==

>  <s_epik_cmdline>  (25) 
J2VwaWtfcHl0aG9uJywgJy1waHQnLCAnMi4wJywgJy1waCcsICc3LjAnLCAnLXRuJywgJzgnLCAnLW1hJywgJzIwMCcsICctaW1hZScsICc8aW5maWxlLm1hZT4nLCAnLW9tYWUnLCAnPG91dGZpbGUubWFlPic=

>  <r_lp_tautomer_probability>  (25) 
1

>  <r_epik_Ionization_Penalty>  (25) 
0.0406016

>  <r_epik_Ionization_Penalty_Charging>  (25) 
0.0267105

>  <r_epik_Ionization_Penalty_Neutral>  (25) 
0.0138911

>  <r_epik_State_Penalty>  (25) 
0.0322676

>  <r_epik_Charging_Adjusted_Penalty>  (25) 
0.0589782

>  <i_epik_Tot_Q>  (25) 
1

>  <i_epik_Tot_abs_Q>  (25) 
1

>  <s_lp_Force_Field>  (25) 
OPLS3e

>  <r_lp_Energy>  (25) 
85.1519

>  <b_lp_Chiralities_Consistent>  (25) 
1

>  <s_lp_Variant>  (25) 
6:0-1

>  <s_i_glide_gridfile>  (25) 
pfpi4k_grid

>  <i_i_glide_lignum>  (25) 
10

>  <i_i_glide_rotatable_bonds>  (25) 
1

>  <r_i_docking_score>  (25) 
-4.06345

>  <r_i_glide_ligand_efficiency>  (25) 
-0.145123

>  <r_i_glide_ligand_efficiency_sa>  (25) 
-0.440679

>  <r_i_glide_ligand_efficiency_ln>  (25) 
-0.937963

>  <r_i_glide_gscore>  (25) 
-4.06345

>  <r_i_glide_lipo>  (25) 
-0.457311

>  <r_i_glide_hbond>  (25) 
-0.152

>  <r_i_glide_metal>  (25) 
-0

>  <r_i_glide_rewards>  (25) 
-0.862722

>  <r_i_glide_evdw>  (25) 
-22.4137

>  <r_i_glide_ecoul>  (25) 
-9.26419

>  <r_i_glide_erotb>  (25) 
0

>  <r_i_glide_esite>  (25) 
-0.081102

>  <r_i_glide_emodel>  (25) 
-39.2705

>  <r_i_glide_energy>  (25) 
-31.6779

>  <r_i_glide_einternal>  (25) 
3.32382

>  <r_i_glide_intrahb_reward>  (25) 
-0

>  <i_i_glide_confnum>  (25) 
2

>  <i_i_glide_posenum>  (25) 
40

>  <r_i_glide_eff_state_penalty>  (25) 
0

>  <ligand_id>  (25) 
6

>  <original_smiles>  (25) 
CN1CCC23c4c5ccc(O)c4OC2c2[nH]c4ccccc4c2CCC3C1C5

>  <smiles>  (25) 
[H]Oc1c([H])c([H])c2c3c1OC1([H])c4c(c5c([H])c([H])c([H])c([H])c5n4[H])C([H])([H])C([H])([H])C4([H])C31C([H])([H])C([H])([H])[N+]([H])(C([H])([H])[H])C4([H])C2([H])[H]

$$$$
6:0:1
     RDKit          3D

 53 59  0  0  1  0  0  0  0  0999 V2000
    3.3934    5.3758    3.4335 C   0  0  0  0  0  0  0  0  0  0  0  0
    2.3797    4.7002    4.2792 N   0  0  1  0  0  0  0  0  0  0  0  0
    1.2467    4.1759    3.4547 C   0  0  0  0  0  0  0  0  0  0  0  0
    1.4793    2.7284    2.9540 C   0  0  0  0  0  0  0  0  0  0  0  0
    1.9323    1.8214    4.1367 C   0  0  1  0  0  0  0  0  0  0  0  0
    0.8558    1.8473    5.1660 C   0  0  0  0  0  0  0  0  0  0  0  0
    0.7732    2.7247    6.2511 C   0  0  0  0  0  0  0  0  0  0  0  0
   -0.4051    2.6474    7.0128 C   0  0  0  0  0  0  0  0  0  0  0  0
   -1.4053    1.7034    6.6598 C   0  0  0  0  0  0  0  0  0  0  0  0
   -1.2157    0.7843    5.5929 C   0  0  0  0  0  0  0  0  0  0  0  0
   -2.1672   -0.1597    5.3404 O   0  0  0  0  0  0  0  0  0  0  0  0
   -0.0330    0.8384    4.8170 C   0  0  0  0  0  0  0  0  0  0  0  0
    0.4612    0.0157    3.8234 O   0  0  0  0  0  0  0  0  0  0  0  0
    1.8667    0.3145    3.9145 C   0  0  1  0  0  0  0  0  0  0  0  0
    2.7987   -0.2104    2.8952 C   0  0  0  0  0  0  0  0  0  0  0  0
    2.4665   -0.7917    1.6848 N   0  0  0  0  0  0  0  0  0  0  0  0
    3.6146   -1.1812    1.0232 C   0  0  0  0  0  0  0  0  0  0  0  0
    3.8211   -1.8052   -0.2192 C   0  0  0  0  0  0  0  0  0  0  0  0
    5.1315   -2.0921   -0.6459 C   0  0  0  0  0  0  0  0  0  0  0  0
    6.2238   -1.7533    0.1774 C   0  0  0  0  0  0  0  0  0  0  0  0
    6.0056   -1.1198    1.4177 C   0  0  0  0  0  0  0  0  0  0  0  0
    4.7003   -0.8133    1.8706 C   0  0  0  0  0  0  0  0  0  0  0  0
    4.1654   -0.1760    3.0455 C   0  0  0  0  0  0  0  0  0  0  0  0
    4.9674    0.4046    4.2079 C   0  0  0  0  0  0  0  0  0  0  0  0
    4.2602    1.3764    5.2168 C   0  0  0  0  0  0  0  0  0  0  0  0
    3.2905    2.3904    4.5636 C   0  0  2  0  0  0  0  0  0  0  0  0
    2.9694    3.7292    5.2704 C   0  0  2  0  0  0  0  0  0  0  0  0
    2.0338    3.5494    6.4939 C   0  0  0  0  0  0  0  0  0  0  0  0
    1.5231   -0.8799    1.3287 H   0  0  0  0  0  0  0  0  0  0  0  0
    3.8169    4.6846    2.7046 H   0  0  0  0  0  0  0  0  0  0  0  0
    4.1988    5.7905    4.0401 H   0  0  0  0  0  0  0  0  0  0  0  0
    2.9344    6.1966    2.8821 H   0  0  0  0  0  0  0  0  0  0  0  0
    0.3282    4.2184    4.0407 H   0  0  0  0  0  0  0  0  0  0  0  0
    1.0631    4.8566    2.6228 H   0  0  0  0  0  0  0  0  0  0  0  0
    0.5655    2.3620    2.4892 H   0  0  0  0  0  0  0  0  0  0  0  0
    2.2219    2.7363    2.1528 H   0  0  0  0  0  0  0  0  0  0  0  0
   -0.5393    3.3003    7.8653 H   0  0  0  0  0  0  0  0  0  0  0  0
   -2.3129    1.6786    7.2357 H   0  0  0  0  0  0  0  0  0  0  0  0
   -2.0741   -0.5075    4.4675 H   0  0  0  0  0  0  0  0  0  0  0  0
    2.1696   -0.1979    4.8343 H   0  0  0  0  0  0  0  0  0  0  0  0
    2.9737   -2.0554   -0.8375 H   0  0  0  0  0  0  0  0  0  0  0  0
    5.2964   -2.5789   -1.5970 H   0  0  0  0  0  0  0  0  0  0  0  0
    7.2322   -1.9838   -0.1335 H   0  0  0  0  0  0  0  0  0  0  0  0
    6.8473   -0.8609    2.0398 H   0  0  0  0  0  0  0  0  0  0  0  0
    5.4263   -0.4063    4.7740 H   0  0  0  0  0  0  0  0  0  0  0  0
    5.8146    0.9392    3.7822 H   0  0  0  0  0  0  0  0  0  0  0  0
    3.7416    0.8096    5.9913 H   0  0  0  0  0  0  0  0  0  0  0  0
    5.0444    1.9200    5.7467 H   0  0  0  0  0  0  0  0  0  0  0  0
    3.8388    2.6602    3.6682 H   0  0  0  0  0  0  0  0  0  0  0  0
    3.8973    4.1699    5.6383 H   0  0  0  0  0  0  0  0  0  0  0  0
    1.7498    4.5186    6.9042 H   0  0  0  0  0  0  0  0  0  0  0  0
    2.5931    3.0477    7.2809 H   0  0  0  0  0  0  0  0  0  0  0  0
    1.9793    5.4488    4.8344 H   0  0  0  0  0  0  0  0  0  0  0  0
  1  2  1  0
  1 30  1  0
  1 31  1  0
  1 32  1  0
  2 27  1  0
  2  3  1  0
  2 53  1  1
  3  4  1  0
  3 33  1  0
  3 34  1  0
  5  4  1  6
  4 35  1  0
  4 36  1  0
  5 14  1  0
  5 26  1  0
  5  6  1  0
  6 12  2  0
  6  7  1  0
  7 28  1  0
  7  8  2  0
  8  9  1  0
  8 37  1  0
  9 10  2  0
  9 38  1  0
 10 11  1  0
 10 12  1  0
 11 39  1  0
 12 13  1  0
 13 14  1  0
 14 15  1  0
 14 40  1  1
 15 23  2  0
 15 16  1  0
 16 29  1  0
 16 17  1  0
 17 22  2  0
 17 18  1  0
 18 19  2  0
 18 41  1  0
 19 20  1  0
 19 42  1  0
 20 21  2  0
 20 43  1  0
 21 22  1  0
 21 44  1  0
 22 23  1  0
 23 24  1  0
 24 25  1  0
 24 45  1  0
 24 46  1  0
 25 26  1  0
 25 47  1  0
 25 48  1  0
 26 27  1  0
 26 49  1  6
 27 28  1  0
 27 50  1  1
 28 51  1  0
 28 52  1  0
M  CHG  1   2   1
M  END
>  <i_m_ct_stereo_status>  (26) 
1

>  <s_m_source_file>  (26) 
/var/tmp/pbs.5076255.sched01/tmpj20d55gn/0_c3see42.sdf

>  <i_m_source_file_index>  (26) 
10

>  <i_lp_mmshare_version>  (26) 
48012

>  <i_f3d_flags>  (26) 
0

>  <s_epik_input>  (26) 
W0NIMl0xW0NIMl1OKFtDSDNdKVtDQEBIXShbQ0gyXTIpW0NASF0zW0NIMl1bQ0gyXWMoYzRjKFtuSF01KVtjSF1bY0hdW2NIXVtjSF00KWM1W0NAQEhdNk9jN2MoW09IXSlbY0hdW2NIXWMyYzdbQ0BAXTEzNg==

>  <s_epik_cmdline>  (26) 
J2VwaWtfcHl0aG9uJywgJy1waHQnLCAnMi4wJywgJy1waCcsICc3LjAnLCAnLXRuJywgJzgnLCAnLW1hJywgJzIwMCcsICctaW1hZScsICc8aW5maWxlLm1hZT4nLCAnLW9tYWUnLCAnPG91dGZpbGUubWFlPic=

>  <r_lp_tautomer_probability>  (26) 
1

>  <r_epik_Ionization_Penalty>  (26) 
0.0406016

>  <r_epik_Ionization_Penalty_Charging>  (26) 
0.0267105

>  <r_epik_Ionization_Penalty_Neutral>  (26) 
0.0138911

>  <r_epik_State_Penalty>  (26) 
0.0322676

>  <r_epik_Charging_Adjusted_Penalty>  (26) 
0.0589782

>  <i_epik_Tot_Q>  (26) 
1

>  <i_epik_Tot_abs_Q>  (26) 
1

>  <s_lp_Force_Field>  (26) 
OPLS3e

>  <r_lp_Energy>  (26) 
85.1519

>  <b_lp_Chiralities_Consistent>  (26) 
1

>  <s_lp_Variant>  (26) 
6:0-1

>  <s_i_glide_gridfile>  (26) 
pfpi4k_grid

>  <i_i_glide_lignum>  (26) 
10

>  <i_i_glide_rotatable_bonds>  (26) 
1

>  <r_i_docking_score>  (26) 
-3.49482

>  <r_i_glide_ligand_efficiency>  (26) 
-0.124815

>  <r_i_glide_ligand_efficiency_sa>  (26) 
-0.379012

>  <r_i_glide_ligand_efficiency_ln>  (26) 
-0.806707

>  <r_i_glide_gscore>  (26) 
-3.49482

>  <r_i_glide_lipo>  (26) 
-0.460325

>  <r_i_glide_hbond>  (26) 
-0.0465298

>  <r_i_glide_metal>  (26) 
-0

>  <r_i_glide_rewards>  (26) 
-0.862722

>  <r_i_glide_evdw>  (26) 
-23.9464

>  <r_i_glide_ecoul>  (26) 
-5.69073

>  <r_i_glide_erotb>  (26) 
0

>  <r_i_glide_esite>  (26) 
-0.074313

>  <r_i_glide_emodel>  (26) 
-37.6049

>  <r_i_glide_energy>  (26) 
-29.6371

>  <r_i_glide_einternal>  (26) 
0.358484

>  <r_i_glide_intrahb_reward>  (26) 
-0

>  <i_i_glide_confnum>  (26) 
1

>  <i_i_glide_posenum>  (26) 
16

>  <r_i_glide_eff_state_penalty>  (26) 
0

>  <ligand_id>  (26) 
6

>  <original_smiles>  (26) 
CN1CCC23c4c5ccc(O)c4OC2c2[nH]c4ccccc4c2CCC3C1C5

>  <smiles>  (26) 
[H]Oc1c([H])c([H])c2c3c1OC1([H])c4c(c5c([H])c([H])c([H])c([H])c5n4[H])C([H])([H])C([H])([H])C4([H])C31C([H])([H])C([H])([H])[N+]([H])(C([H])([H])[H])C4([H])C2([H])[H]

$$$$
6:0:2
     RDKit          3D

 53 59  0  0  1  0  0  0  0  0999 V2000
    5.6610   -9.1394    5.2556 C   0  0  0  0  0  0  0  0  0  0  0  0
    4.2794   -9.3672    4.7695 N   0  0  1  0  0  0  0  0  0  0  0  0
    3.3184   -8.3942    5.3783 C   0  0  0  0  0  0  0  0  0  0  0  0
    3.1660   -7.0901    4.5508 C   0  0  0  0  0  0  0  0  0  0  0  0
    2.9246   -7.4334    3.0500 C   0  0  1  0  0  0  0  0  0  0  0  0
    1.6783   -8.2446    2.9698 C   0  0  0  0  0  0  0  0  0  0  0  0
    1.6033   -9.6383    3.0092 C   0  0  0  0  0  0  0  0  0  0  0  0
    0.3086  -10.1758    3.0546 C   0  0  0  0  0  0  0  0  0  0  0  0
   -0.8130   -9.3037    3.0456 C   0  0  0  0  0  0  0  0  0  0  0  0
   -0.6630   -7.8956    2.9323 C   0  0  0  0  0  0  0  0  0  0  0  0
   -1.7667   -7.0942    2.8829 O   0  0  0  0  0  0  0  0  0  0  0  0
    0.6321   -7.3350    2.8615 C   0  0  0  0  0  0  0  0  0  0  0  0
    1.0710   -6.0446    2.6303 O   0  0  0  0  0  0  0  0  0  0  0  0
    2.4024   -6.3101    2.1584 C   0  0  1  0  0  0  0  0  0  0  0  0
    3.3397   -5.1908    1.9544 C   0  0  0  0  0  0  0  0  0  0  0  0
    3.1811   -3.8862    2.3808 N   0  0  0  0  0  0  0  0  0  0  0  0
    4.2582   -3.1258    1.9654 C   0  0  0  0  0  0  0  0  0  0  0  0
    4.5777   -1.7667    2.1368 C   0  0  0  0  0  0  0  0  0  0  0  0
    5.7693   -1.2603    1.5876 C   0  0  0  0  0  0  0  0  0  0  0  0
    6.6272   -2.1121    0.8679 C   0  0  0  0  0  0  0  0  0  0  0  0
    6.3020   -3.4742    0.7048 C   0  0  0  0  0  0  0  0  0  0  0  0
    5.1163   -4.0174    1.2558 C   0  0  0  0  0  0  0  0  0  0  0  0
    4.5304   -5.3308    1.2857 C   0  0  0  0  0  0  0  0  0  0  0  0
    5.1140   -6.5960    0.6704 C   0  0  0  0  0  0  0  0  0  0  0  0
    4.5415   -7.9927    1.0954 C   0  0  0  0  0  0  0  0  0  0  0  0
    4.2233   -8.1204    2.6040 C   0  0  2  0  0  0  0  0  0  0  0  0
    4.1923   -9.5172    3.2745 C   0  0  2  0  0  0  0  0  0  0  0  0
    2.9453  -10.3490    2.8793 C   0  0  0  0  0  0  0  0  0  0  0  0
    2.3879   -3.5634    2.9134 H   0  0  0  0  0  0  0  0  0  0  0  0
    6.0089   -8.1406    4.9901 H   0  0  0  0  0  0  0  0  0  0  0  0
    6.3530   -9.8715    4.8382 H   0  0  0  0  0  0  0  0  0  0  0  0
    5.6995   -9.2255    6.3420 H   0  0  0  0  0  0  0  0  0  0  0  0
    2.3459   -8.8763    5.4884 H   0  0  0  0  0  0  0  0  0  0  0  0
    3.6180   -8.1560    6.4012 H   0  0  0  0  0  0  0  0  0  0  0  0
    2.3505   -6.4947    4.9656 H   0  0  0  0  0  0  0  0  0  0  0  0
    4.0619   -6.4726    4.6704 H   0  0  0  0  0  0  0  0  0  0  0  0
    0.1901  -11.2479    3.0977 H   0  0  0  0  0  0  0  0  0  0  0  0
   -1.7914   -9.7449    3.1200 H   0  0  0  0  0  0  0  0  0  0  0  0
   -2.5592   -7.6071    2.9605 H   0  0  0  0  0  0  0  0  0  0  0  0
    2.2328   -6.7025    1.1500 H   0  0  0  0  0  0  0  0  0  0  0  0
    3.9154   -1.1196    2.6881 H   0  0  0  0  0  0  0  0  0  0  0  0
    6.0308   -0.2229    1.7197 H   0  0  0  0  0  0  0  0  0  0  0  0
    7.5487   -1.7261    0.4557 H   0  0  0  0  0  0  0  0  0  0  0  0
    6.9710   -4.1208    0.1588 H   0  0  0  0  0  0  0  0  0  0  0  0
    5.0524   -6.5196   -0.4149 H   0  0  0  0  0  0  0  0  0  0  0  0
    6.1799   -6.6062    0.8935 H   0  0  0  0  0  0  0  0  0  0  0  0
    3.6605   -8.2401    0.5030 H   0  0  0  0  0  0  0  0  0  0  0  0
    5.2759   -8.7505    0.8174 H   0  0  0  0  0  0  0  0  0  0  0  0
    5.0673   -7.5857    3.0409 H   0  0  0  0  0  0  0  0  0  0  0  0
    5.0616  -10.0871    2.9507 H   0  0  0  0  0  0  0  0  0  0  0  0
    2.9067  -11.2823    3.4425 H   0  0  0  0  0  0  0  0  0  0  0  0
    3.0347  -10.6358    1.8333 H   0  0  0  0  0  0  0  0  0  0  0  0
    4.0183  -10.2706    5.1469 H   0  0  0  0  0  0  0  0  0  0  0  0
  1  2  1  0
  1 30  1  0
  1 31  1  0
  1 32  1  0
  2 27  1  0
  2  3  1  0
  2 53  1  1
  3  4  1  0
  3 33  1  0
  3 34  1  0
  5  4  1  1
  4 35  1  0
  4 36  1  0
  5 14  1  0
  5 26  1  0
  5  6  1  0
  6 12  2  0
  6  7  1  0
  7 28  1  0
  7  8  2  0
  8  9  1  0
  8 37  1  0
  9 10  2  0
  9 38  1  0
 10 11  1  0
 10 12  1  0
 11 39  1  0
 12 13  1  0
 13 14  1  0
 14 15  1  0
 14 40  1  6
 15 23  2  0
 15 16  1  0
 16 29  1  0
 16 17  1  0
 17 22  2  0
 17 18  1  0
 18 19  2  0
 18 41  1  0
 19 20  1  0
 19 42  1  0
 20 21  2  0
 20 43  1  0
 21 22  1  0
 21 44  1  0
 22 23  1  0
 23 24  1  0
 24 25  1  0
 24 45  1  0
 24 46  1  0
 25 26  1  0
 25 47  1  0
 25 48  1  0
 26 27  1  0
 26 49  1  1
 27 28  1  0
 27 50  1  6
 28 51  1  0
 28 52  1  0
M  CHG  1   2   1
M  END
>  <i_m_ct_stereo_status>  (27) 
1

>  <s_m_source_file>  (27) 
/var/tmp/pbs.5076255.sched01/tmpj20d55gn/0_c3see42.sdf

>  <i_m_source_file_index>  (27) 
10

>  <i_lp_mmshare_version>  (27) 
48012

>  <i_f3d_flags>  (27) 
0

>  <s_epik_input>  (27) 
W0NIMl0xW0NIMl1OKFtDSDNdKVtDQEBIXShbQ0gyXTIpW0NASF0zW0NIMl1bQ0gyXWMoYzRjKFtuSF01KVtjSF1bY0hdW2NIXVtjSF00KWM1W0NAQEhdNk9jN2MoW09IXSlbY0hdW2NIXWMyYzdbQ0BAXTEzNg==

>  <s_epik_cmdline>  (27) 
J2VwaWtfcHl0aG9uJywgJy1waHQnLCAnMi4wJywgJy1waCcsICc3LjAnLCAnLXRuJywgJzgnLCAnLW1hJywgJzIwMCcsICctaW1hZScsICc8aW5maWxlLm1hZT4nLCAnLW9tYWUnLCAnPG91dGZpbGUubWFlPic=

>  <r_lp_tautomer_probability>  (27) 
1

>  <r_epik_Ionization_Penalty>  (27) 
0.0406016

>  <r_epik_Ionization_Penalty_Charging>  (27) 
0.0267105

>  <r_epik_Ionization_Penalty_Neutral>  (27) 
0.0138911

>  <r_epik_State_Penalty>  (27) 
0.0322676

>  <r_epik_Charging_Adjusted_Penalty>  (27) 
0.0589782

>  <i_epik_Tot_Q>  (27) 
1

>  <i_epik_Tot_abs_Q>  (27) 
1

>  <s_lp_Force_Field>  (27) 
OPLS3e

>  <r_lp_Energy>  (27) 
85.1519

>  <b_lp_Chiralities_Consistent>  (27) 
1

>  <s_lp_Variant>  (27) 
6:0-1

>  <s_i_glide_gridfile>  (27) 
pfpi4k_grid

>  <i_i_glide_lignum>  (27) 
10

>  <i_i_glide_rotatable_bonds>  (27) 
1

>  <r_i_docking_score>  (27) 
-3.27174

>  <r_i_glide_ligand_efficiency>  (27) 
-0.116848

>  <r_i_glide_ligand_efficiency_sa>  (27) 
-0.354819

>  <r_i_glide_ligand_efficiency_ln>  (27) 
-0.755214

>  <r_i_glide_gscore>  (27) 
-3.27174

>  <r_i_glide_lipo>  (27) 
-0.610395

>  <r_i_glide_hbond>  (27) 
0

>  <r_i_glide_metal>  (27) 
-0

>  <r_i_glide_rewards>  (27) 
-0.862722

>  <r_i_glide_evdw>  (27) 
-23.9326

>  <r_i_glide_ecoul>  (27) 
-4.00785

>  <r_i_glide_erotb>  (27) 
0

>  <r_i_glide_esite>  (27) 
-0.00081814

>  <r_i_glide_emodel>  (27) 
-35.608

>  <r_i_glide_energy>  (27) 
-27.9404

>  <r_i_glide_einternal>  (27) 
0.00372181

>  <r_i_glide_intrahb_reward>  (27) 
-0

>  <i_i_glide_confnum>  (27) 
1

>  <i_i_glide_posenum>  (27) 
13

>  <r_i_glide_eff_state_penalty>  (27) 
0

>  <ligand_id>  (27) 
6

>  <original_smiles>  (27) 
CN1CCC23c4c5ccc(O)c4OC2c2[nH]c4ccccc4c2CCC3C1C5

>  <smiles>  (27) 
[H]Oc1c([H])c([H])c2c3c1OC1([H])c4c(c5c([H])c([H])c([H])c([H])c5n4[H])C([H])([H])C([H])([H])C4([H])C31C([H])([H])C([H])([H])[N+]([H])(C([H])([H])[H])C4([H])C2([H])[H]

$$$$
6:1:0
     RDKit          3D

 52 58  0  0  1  0  0  0  0  0999 V2000
    6.0879   -8.0281    4.8554 C   0  0  0  0  0  0  0  0  0  0  0  0
    4.7674   -8.4957    4.4594 N   0  0  0  0  0  0  0  0  0  0  0  0
    3.6900   -7.6978    5.0734 C   0  0  0  0  0  0  0  0  0  0  0  0
    3.2330   -6.4854    4.2138 C   0  0  0  0  0  0  0  0  0  0  0  0
    3.0072   -6.9478    2.7412 C   0  0  1  0  0  0  0  0  0  0  0  0
    1.9188   -7.9723    2.7430 C   0  0  0  0  0  0  0  0  0  0  0  0
    2.1069   -9.3582    2.8326 C   0  0  0  0  0  0  0  0  0  0  0  0
    0.9273  -10.1178    2.8994 C   0  0  0  0  0  0  0  0  0  0  0  0
   -0.3375   -9.4655    2.8809 C   0  0  0  0  0  0  0  0  0  0  0  0
   -0.4472   -8.0503    2.7124 C   0  0  0  0  0  0  0  0  0  0  0  0
   -1.6832   -7.4781    2.6395 O   0  0  0  0  0  0  0  0  0  0  0  0
    0.7240   -7.2522    2.6072 C   0  0  0  0  0  0  0  0  0  0  0  0
    0.9209   -5.9166    2.3114 O   0  0  0  0  0  0  0  0  0  0  0  0
    2.2780   -5.9760    1.8127 C   0  0  1  0  0  0  0  0  0  0  0  0
    2.9799   -4.7174    1.5225 C   0  0  0  0  0  0  0  0  0  0  0  0
    2.6065   -3.4367    1.8932 N   0  0  0  0  0  0  0  0  0  0  0  0
    3.5110   -2.5239    1.3917 C   0  0  0  0  0  0  0  0  0  0  0  0
    3.5864   -1.1207    1.4731 C   0  0  0  0  0  0  0  0  0  0  0  0
    4.6485   -0.4360    0.8512 C   0  0  0  0  0  0  0  0  0  0  0  0
    5.6333   -1.1670    0.1534 C   0  0  0  0  0  0  0  0  0  0  0  0
    5.5470   -2.5785    0.0735 C   0  0  0  0  0  0  0  0  0  0  0  0
    4.4894   -3.2927    0.6966 C   0  0  0  0  0  0  0  0  0  0  0  0
    4.1491   -4.6847    0.8141 C   0  0  0  0  0  0  0  0  0  0  0  0
    4.9325   -5.8535    0.2396 C   0  0  0  0  0  0  0  0  0  0  0  0
    4.6356   -7.2970    0.7711 C   0  0  0  0  0  0  0  0  0  0  0  0
    4.4045   -7.3881    2.2947 C   0  0  2  0  0  0  0  0  0  0  0  0
    4.6551   -8.7288    3.0060 C   0  0  2  0  0  0  0  0  0  0  0  0
    3.5634   -9.7911    2.7528 C   0  0  0  0  0  0  0  0  0  0  0  0
    1.7844   -3.2234    2.4321 H   0  0  0  0  0  0  0  0  0  0  0  0
    6.1808   -8.0322    5.9429 H   0  0  0  0  0  0  0  0  0  0  0  0
    6.2979   -7.0210    4.4952 H   0  0  0  0  0  0  0  0  0  0  0  0
    6.8524   -8.7045    4.4664 H   0  0  0  0  0  0  0  0  0  0  0  0
    2.8310   -8.3468    5.2390 H   0  0  0  0  0  0  0  0  0  0  0  0
    3.9880   -7.3614    6.0690 H   0  0  0  0  0  0  0  0  0  0  0  0
    2.3287   -6.0520    4.6485 H   0  0  0  0  0  0  0  0  0  0  0  0
    3.9826   -5.6916    4.2621 H   0  0  0  0  0  0  0  0  0  0  0  0
    0.9917  -11.1888    2.9647 H   0  0  0  0  0  0  0  0  0  0  0  0
   -1.2183  -10.0736    2.9595 H   0  0  0  0  0  0  0  0  0  0  0  0
   -2.3498   -8.1328    2.7145 H   0  0  0  0  0  0  0  0  0  0  0  0
    2.1433   -6.4526    0.8403 H   0  0  0  0  0  0  0  0  0  0  0  0
    2.8284   -0.5692    2.0032 H   0  0  0  0  0  0  0  0  0  0  0  0
    4.7037    0.6346    0.8915 H   0  0  0  0  0  0  0  0  0  0  0  0
    6.4462   -0.6507   -0.3193 H   0  0  0  0  0  0  0  0  0  0  0  0
    6.2980   -3.1350   -0.4653 H   0  0  0  0  0  0  0  0  0  0  0  0
    4.8421   -5.8580   -0.8501 H   0  0  0  0  0  0  0  0  0  0  0  0
    5.9902   -5.6629    0.4274 H   0  0  0  0  0  0  0  0  0  0  0  0
    3.8139   -7.7422    0.2311 H   0  0  0  0  0  0  0  0  0  0  0  0
    5.4805   -7.9344    0.5129 H   0  0  0  0  0  0  0  0  0  0  0  0
    5.1329   -6.6742    2.6666 H   0  0  0  0  0  0  0  0  0  0  0  0
    5.5977   -9.1559    2.6708 H   0  0  0  0  0  0  0  0  0  0  0  0
    3.6991  -10.6496    3.4140 H   0  0  0  0  0  0  0  0  0  0  0  0
    3.6996  -10.1868    1.7417 H   0  0  0  0  0  0  0  0  0  0  0  0
  1  2  1  0
  1 30  1  0
  1 31  1  0
  1 32  1  0
  2 27  1  0
  2  3  1  0
  3  4  1  0
  3 33  1  0
  3 34  1  0
  5  4  1  1
  4 35  1  0
  4 36  1  0
  5 14  1  0
  5 26  1  0
  5  6  1  0
  6 12  2  0
  6  7  1  0
  7 28  1  0
  7  8  2  0
  8  9  1  0
  8 37  1  0
  9 10  2  0
  9 38  1  0
 10 11  1  0
 10 12  1  0
 11 39  1  0
 12 13  1  0
 13 14  1  0
 14 15  1  0
 14 40  1  6
 15 23  2  0
 15 16  1  0
 16 29  1  0
 16 17  1  0
 17 22  2  0
 17 18  1  0
 18 19  2  0
 18 41  1  0
 19 20  1  0
 19 42  1  0
 20 21  2  0
 20 43  1  0
 21 22  1  0
 21 44  1  0
 22 23  1  0
 23 24  1  0
 24 25  1  0
 24 45  1  0
 24 46  1  0
 25 26  1  0
 25 47  1  0
 25 48  1  0
 26 27  1  0
 26 49  1  1
 27 28  1  0
 27 50  1  6
 28 51  1  0
 28 52  1  0
M  END
>  <i_m_ct_stereo_status>  (28) 
1

>  <s_m_source_file>  (28) 
/var/tmp/pbs.5076255.sched01/tmpj20d55gn/0_c3see42.sdf

>  <i_m_source_file_index>  (28) 
11

>  <i_lp_mmshare_version>  (28) 
48012

>  <i_f3d_flags>  (28) 
0

>  <s_epik_input>  (28) 
W0NIMl0xW0NIMl1OKFtDSDNdKVtDQEBIXShbQ0gyXTIpW0NASF0zW0NIMl1bQ0gyXWMoYzRjKFtuSF01KVtjSF1bY0hdW2NIXVtjSF00KWM1W0NAQEhdNk9jN2MoW09IXSlbY0hdW2NIXWMyYzdbQ0BAXTEzNg==

>  <s_epik_cmdline>  (28) 
J2VwaWtfcHl0aG9uJywgJy1waHQnLCAnMi4wJywgJy1waCcsICc3LjAnLCAnLXRuJywgJzgnLCAnLW1hJywgJzIwMCcsICctaW1hZScsICc8aW5maWxlLm1hZT4nLCAnLW9tYWUnLCAnPG91dGZpbGUubWFlPic=

>  <r_lp_tautomer_probability>  (28) 
1

>  <r_epik_Ionization_Penalty>  (28) 
1.852

>  <r_epik_Ionization_Penalty_Charging>  (28) 
0

>  <r_epik_Ionization_Penalty_Neutral>  (28) 
1.852

>  <r_epik_State_Penalty>  (28) 
1.97741

>  <r_epik_Charging_Adjusted_Penalty>  (28) 
1.97741

>  <i_epik_Tot_Q>  (28) 
0

>  <i_epik_Tot_abs_Q>  (28) 
0

>  <s_lp_Force_Field>  (28) 
OPLS3e

>  <r_lp_Energy>  (28) 
81.6949

>  <b_lp_Chiralities_Consistent>  (28) 
1

>  <s_lp_Variant>  (28) 
6:0-2

>  <s_i_glide_gridfile>  (28) 
pfpi4k_grid

>  <i_i_glide_lignum>  (28) 
11

>  <i_i_glide_rotatable_bonds>  (28) 
1

>  <r_i_docking_score>  (28) 
-3.14448

>  <r_i_glide_ligand_efficiency>  (28) 
-0.112303

>  <r_i_glide_ligand_efficiency_sa>  (28) 
-0.341018

>  <r_i_glide_ligand_efficiency_ln>  (28) 
-0.725839

>  <r_i_glide_gscore>  (28) 
-3.14448

>  <r_i_glide_lipo>  (28) 
-0.593141

>  <r_i_glide_hbond>  (28) 
-0.0461333

>  <r_i_glide_metal>  (28) 
-0

>  <r_i_glide_rewards>  (28) 
-0.869594

>  <r_i_glide_evdw>  (28) 
-26.089

>  <r_i_glide_ecoul>  (28) 
-2.1667

>  <r_i_glide_erotb>  (28) 
0

>  <r_i_glide_esite>  (28) 
-0.00616153

>  <r_i_glide_emodel>  (28) 
-34.2645

>  <r_i_glide_energy>  (28) 
-28.2557

>  <r_i_glide_einternal>  (28) 
0.0016859

>  <r_i_glide_intrahb_reward>  (28) 
-0

>  <i_i_glide_confnum>  (28) 
1

>  <i_i_glide_posenum>  (28) 
30

>  <r_i_glide_eff_state_penalty>  (28) 
0

>  <ligand_id>  (28) 
6

>  <original_smiles>  (28) 
CN1CCC23c4c5ccc(O)c4OC2c2[nH]c4ccccc4c2CCC3C1C5

>  <smiles>  (28) 
[H]Oc1c([H])c([H])c2c3c1OC1([H])c4c(c5c([H])c([H])c([H])c([H])c5n4[H])C([H])([H])C([H])([H])C4([H])C([H])(N(C([H])([H])[H])C([H])([H])C([H])([H])C314)C2([H])[H]

$$$$
6:1:1
     RDKit          3D

 52 58  0  0  1  0  0  0  0  0999 V2000
    7.2234   -5.6141    2.2556 C   0  0  0  0  0  0  0  0  0  0  0  0
    6.6778   -4.6532    1.3087 N   0  0  0  0  0  0  0  0  0  0  0  0
    6.1038   -5.3334    0.1347 C   0  0  0  0  0  0  0  0  0  0  0  0
    4.5988   -5.6817    0.2656 C   0  0  0  0  0  0  0  0  0  0  0  0
    3.8271   -4.4395    0.7797 C   0  0  1  0  0  0  0  0  0  0  0  0
    3.9783   -3.3315   -0.2094 C   0  0  0  0  0  0  0  0  0  0  0  0
    4.9798   -2.3593   -0.2055 C   0  0  0  0  0  0  0  0  0  0  0  0
    4.9742   -1.4744   -1.2987 C   0  0  0  0  0  0  0  0  0  0  0  0
    4.0019   -1.6286   -2.3236 C   0  0  0  0  0  0  0  0  0  0  0  0
    2.9878   -2.6174   -2.2380 C   0  0  0  0  0  0  0  0  0  0  0  0
    2.0669   -2.7260   -3.2388 O   0  0  0  0  0  0  0  0  0  0  0  0
    2.9328   -3.4717   -1.1129 C   0  0  0  0  0  0  0  0  0  0  0  0
    1.9950   -4.4083   -0.7046 O   0  0  0  0  0  0  0  0  0  0  0  0
    2.3145   -4.4845    0.6968 C   0  0  1  0  0  0  0  0  0  0  0  0
    1.6713   -5.5026    1.5555 C   0  0  0  0  0  0  0  0  0  0  0  0
    0.9180   -6.5847    1.1448 N   0  0  0  0  0  0  0  0  0  0  0  0
    0.4283   -7.2530    2.2467 C   0  0  0  0  0  0  0  0  0  0  0  0
   -0.3712   -8.3955    2.3736 C   0  0  0  0  0  0  0  0  0  0  0  0
   -0.7059   -8.8770    3.6413 C   0  0  0  0  0  0  0  0  0  0  0  0
   -0.2798   -8.1858    4.7918 C   0  0  0  0  0  0  0  0  0  0  0  0
    0.5056   -7.0208    4.6599 C   0  0  0  0  0  0  0  0  0  0  0  0
    0.8960   -6.5386    3.3872 C   0  0  0  0  0  0  0  0  0  0  0  0
    1.6919   -5.4353    2.9268 C   0  0  0  0  0  0  0  0  0  0  0  0
    2.3824   -4.3951    3.8026 C   0  0  0  0  0  0  0  0  0  0  0  0
    3.4768   -3.4765    3.1659 C   0  0  0  0  0  0  0  0  0  0  0  0
    4.4075   -4.2063    2.1753 C   0  0  2  0  0  0  0  0  0  0  0  0
    5.8169   -3.6270    1.9335 C   0  0  2  0  0  0  0  0  0  0  0  0
    5.8419   -2.3493    1.0525 C   0  0  0  0  0  0  0  0  0  0  0  0
    0.8027   -6.8645    0.1831 H   0  0  0  0  0  0  0  0  0  0  0  0
    7.9661   -6.2505    1.7722 H   0  0  0  0  0  0  0  0  0  0  0  0
    6.4560   -6.2565    2.6851 H   0  0  0  0  0  0  0  0  0  0  0  0
    7.7322   -5.0869    3.0571 H   0  0  0  0  0  0  0  0  0  0  0  0
    6.2212   -4.6665   -0.7196 H   0  0  0  0  0  0  0  0  0  0  0  0
    6.6831   -6.2300   -0.0805 H   0  0  0  0  0  0  0  0  0  0  0  0
    4.2160   -6.0194   -0.7003 H   0  0  0  0  0  0  0  0  0  0  0  0
    4.4664   -6.5334    0.9374 H   0  0  0  0  0  0  0  0  0  0  0  0
    5.6971   -0.6809   -1.3550 H   0  0  0  0  0  0  0  0  0  0  0  0
    4.0161   -0.9636   -3.1693 H   0  0  0  0  0  0  0  0  0  0  0  0
    1.4119   -3.3917   -3.0761 H   0  0  0  0  0  0  0  0  0  0  0  0
    1.9202   -3.5366    1.0848 H   0  0  0  0  0  0  0  0  0  0  0  0
   -0.7128   -8.9388    1.5139 H   0  0  0  0  0  0  0  0  0  0  0  0
   -1.2902   -9.7829    3.6901 H   0  0  0  0  0  0  0  0  0  0  0  0
   -0.5419   -8.5589    5.7735 H   0  0  0  0  0  0  0  0  0  0  0  0
    0.8403   -6.4951    5.5400 H   0  0  0  0  0  0  0  0  0  0  0  0
    1.6316   -3.7597    4.2779 H   0  0  0  0  0  0  0  0  0  0  0  0
    2.8531   -4.9320    4.6253 H   0  0  0  0  0  0  0  0  0  0  0  0
    3.0288   -2.6045    2.6888 H   0  0  0  0  0  0  0  0  0  0  0  0
    4.0736   -3.0734    3.9812 H   0  0  0  0  0  0  0  0  0  0  0  0
    4.5439   -5.1711    2.6667 H   0  0  0  0  0  0  0  0  0  0  0  0
    6.2134   -3.3567    2.9011 H   0  0  0  0  0  0  0  0  0  0  0  0
    6.8643   -2.1080    0.7646 H   0  0  0  0  0  0  0  0  0  0  0  0
    5.4926   -1.5153    1.6554 H   0  0  0  0  0  0  0  0  0  0  0  0
  1  2  1  0
  1 30  1  0
  1 31  1  0
  1 32  1  0
  2 27  1  0
  2  3  1  0
  3  4  1  0
  3 33  1  0
  3 34  1  0
  5  4  1  6
  4 35  1  0
  4 36  1  0
  5 14  1  0
  5 26  1  0
  5  6  1  0
  6 12  2  0
  6  7  1  0
  7 28  1  0
  7  8  2  0
  8  9  1  0
  8 37  1  0
  9 10  2  0
  9 38  1  0
 10 11  1  0
 10 12  1  0
 11 39  1  0
 12 13  1  0
 13 14  1  0
 14 15  1  0
 14 40  1  1
 15 23  2  0
 15 16  1  0
 16 29  1  0
 16 17  1  0
 17 22  2  0
 17 18  1  0
 18 19  2  0
 18 41  1  0
 19 20  1  0
 19 42  1  0
 20 21  2  0
 20 43  1  0
 21 22  1  0
 21 44  1  0
 22 23  1  0
 23 24  1  0
 24 25  1  0
 24 45  1  0
 24 46  1  0
 25 26  1  0
 25 47  1  0
 25 48  1  0
 26 27  1  0
 26 49  1  1
 27 28  1  0
 27 50  1  1
 28 51  1  0
 28 52  1  0
M  END
>  <i_m_ct_stereo_status>  (29) 
1

>  <s_m_source_file>  (29) 
/var/tmp/pbs.5076255.sched01/tmpj20d55gn/0_c3see42.sdf

>  <i_m_source_file_index>  (29) 
11

>  <i_lp_mmshare_version>  (29) 
48012

>  <i_f3d_flags>  (29) 
0

>  <s_epik_input>  (29) 
W0NIMl0xW0NIMl1OKFtDSDNdKVtDQEBIXShbQ0gyXTIpW0NASF0zW0NIMl1bQ0gyXWMoYzRjKFtuSF01KVtjSF1bY0hdW2NIXVtjSF00KWM1W0NAQEhdNk9jN2MoW09IXSlbY0hdW2NIXWMyYzdbQ0BAXTEzNg==

>  <s_epik_cmdline>  (29) 
J2VwaWtfcHl0aG9uJywgJy1waHQnLCAnMi4wJywgJy1waCcsICc3LjAnLCAnLXRuJywgJzgnLCAnLW1hJywgJzIwMCcsICctaW1hZScsICc8aW5maWxlLm1hZT4nLCAnLW9tYWUnLCAnPG91dGZpbGUubWFlPic=

>  <r_lp_tautomer_probability>  (29) 
1

>  <r_epik_Ionization_Penalty>  (29) 
1.852

>  <r_epik_Ionization_Penalty_Charging>  (29) 
0

>  <r_epik_Ionization_Penalty_Neutral>  (29) 
1.852

>  <r_epik_State_Penalty>  (29) 
1.97741

>  <r_epik_Charging_Adjusted_Penalty>  (29) 
1.97741

>  <i_epik_Tot_Q>  (29) 
0

>  <i_epik_Tot_abs_Q>  (29) 
0

>  <s_lp_Force_Field>  (29) 
OPLS3e

>  <r_lp_Energy>  (29) 
81.6949

>  <b_lp_Chiralities_Consistent>  (29) 
1

>  <s_lp_Variant>  (29) 
6:0-2

>  <s_i_glide_gridfile>  (29) 
pfpi4k_grid

>  <i_i_glide_lignum>  (29) 
11

>  <i_i_glide_rotatable_bonds>  (29) 
1

>  <r_i_docking_score>  (29) 
-2.9923

>  <r_i_glide_ligand_efficiency>  (29) 
-0.106868

>  <r_i_glide_ligand_efficiency_sa>  (29) 
-0.324514

>  <r_i_glide_ligand_efficiency_ln>  (29) 
-0.69071

>  <r_i_glide_gscore>  (29) 
-2.9923

>  <r_i_glide_lipo>  (29) 
-0.452266

>  <r_i_glide_hbond>  (29) 
0

>  <r_i_glide_metal>  (29) 
-0

>  <r_i_glide_rewards>  (29) 
-0.869594

>  <r_i_glide_evdw>  (29) 
-24.1319

>  <r_i_glide_ecoul>  (29) 
-2.49547

>  <r_i_glide_erotb>  (29) 
0

>  <r_i_glide_esite>  (29) 
-0.0895239

>  <r_i_glide_emodel>  (29) 
-32.3246

>  <r_i_glide_energy>  (29) 
-26.6274

>  <r_i_glide_einternal>  (29) 
0.0234725

>  <r_i_glide_intrahb_reward>  (29) 
-0

>  <i_i_glide_confnum>  (29) 
1

>  <i_i_glide_posenum>  (29) 
3

>  <r_i_glide_eff_state_penalty>  (29) 
0

>  <ligand_id>  (29) 
6

>  <original_smiles>  (29) 
CN1CCC23c4c5ccc(O)c4OC2c2[nH]c4ccccc4c2CCC3C1C5

>  <smiles>  (29) 
[H]Oc1c([H])c([H])c2c3c1OC1([H])c4c(c5c([H])c([H])c([H])c([H])c5n4[H])C([H])([H])C([H])([H])C4([H])C([H])(N(C([H])([H])[H])C([H])([H])C([H])([H])C314)C2([H])[H]

$$$$
6:1:2
     RDKit          3D

 52 58  0  0  1  0  0  0  0  0999 V2000
    6.1804   -7.5221    4.9335 C   0  0  0  0  0  0  0  0  0  0  0  0
    4.8560   -8.0678    4.6751 N   0  0  0  0  0  0  0  0  0  0  0  0
    3.7851   -7.1594    5.1259 C   0  0  0  0  0  0  0  0  0  0  0  0
    3.3030   -6.1589    4.0375 C   0  0  0  0  0  0  0  0  0  0  0  0
    3.0518   -6.9272    2.7020 C   0  0  1  0  0  0  0  0  0  0  0  0
    1.9709   -7.9261    2.9449 C   0  0  0  0  0  0  0  0  0  0  0  0
    2.1746   -9.2627    3.3237 C   0  0  0  0  0  0  0  0  0  0  0  0
    1.0006   -9.9939    3.5664 C   0  0  0  0  0  0  0  0  0  0  0  0
   -0.2639   -9.3566    3.4226 C   0  0  0  0  0  0  0  0  0  0  0  0
   -0.3932   -8.0076    2.9741 C   0  0  0  0  0  0  0  0  0  0  0  0
   -1.6368   -7.4644    2.8400 O   0  0  0  0  0  0  0  0  0  0  0  0
    0.7728   -7.2480    2.6813 C   0  0  0  0  0  0  0  0  0  0  0  0
    0.9522   -6.0040    2.1075 O   0  0  0  0  0  0  0  0  0  0  0  0
    2.2993   -6.1758    1.6051 C   0  0  1  0  0  0  0  0  0  0  0  0
    2.9855   -5.0053    1.0448 C   0  0  0  0  0  0  0  0  0  0  0  0
    2.6153   -3.6764    1.1433 N   0  0  0  0  0  0  0  0  0  0  0  0
    3.5055   -2.8940    0.4390 C   0  0  0  0  0  0  0  0  0  0  0  0
    3.5775   -1.5089    0.2150 C   0  0  0  0  0  0  0  0  0  0  0  0
    4.6159   -0.9730   -0.5690 C   0  0  0  0  0  0  0  0  0  0  0  0
    5.5826   -1.8402   -1.1289 C   0  0  0  0  0  0  0  0  0  0  0  0
    5.5067   -3.2316   -0.8902 C   0  0  0  0  0  0  0  0  0  0  0  0
    4.4726   -3.7949   -0.0967 C   0  0  0  0  0  0  0  0  0  0  0  0
    4.1410   -5.1232    0.3313 C   0  0  0  0  0  0  0  0  0  0  0  0
    4.9101   -6.3837    0.0007 C   0  0  0  0  0  0  0  0  0  0  0  0
    4.6443   -7.6866    0.8252 C   0  0  0  0  0  0  0  0  0  0  0  0
    4.4441   -7.4501    2.3346 C   0  0  2  0  0  0  0  0  0  0  0  0
    4.7168   -8.6064    3.3081 C   0  0  2  0  0  0  0  0  0  0  0  0
    3.6294   -9.6973    3.3119 C   0  0  0  0  0  0  0  0  0  0  0  0
    1.8078   -3.3481    1.6405 H   0  0  0  0  0  0  0  0  0  0  0  0
    6.2954   -7.2938    5.9937 H   0  0  0  0  0  0  0  0  0  0  0  0
    6.3765   -6.6159    4.3615 H   0  0  0  0  0  0  0  0  0  0  0  0
    6.9409   -8.2651    4.6815 H   0  0  0  0  0  0  0  0  0  0  0  0
    2.9339   -7.7588    5.4446 H   0  0  0  0  0  0  0  0  0  0  0  0
    4.1015   -6.6155    6.0192 H   0  0  0  0  0  0  0  0  0  0  0  0
    2.4044   -5.6451    4.3871 H   0  0  0  0  0  0  0  0  0  0  0  0
    4.0489   -5.3718    3.8977 H   0  0  0  0  0  0  0  0  0  0  0  0
    1.0652  -11.0195    3.8690 H   0  0  0  0  0  0  0  0  0  0  0  0
   -1.1405   -9.9184    3.6549 H   0  0  0  0  0  0  0  0  0  0  0  0
   -2.2928   -8.0945    3.0616 H   0  0  0  0  0  0  0  0  0  0  0  0
    2.1431   -6.8461    0.7626 H   0  0  0  0  0  0  0  0  0  0  0  0
    2.8151   -0.8591    0.6177 H   0  0  0  0  0  0  0  0  0  0  0  0
    4.6478    0.0842   -0.7437 H   0  0  0  0  0  0  0  0  0  0  0  0
    6.3694   -1.4669   -1.7494 H   0  0  0  0  0  0  0  0  0  0  0  0
    6.2488   -3.8800   -1.3219 H   0  0  0  0  0  0  0  0  0  0  0  0
    4.7616   -6.6111   -1.0572 H   0  0  0  0  0  0  0  0  0  0  0  0
    5.9720   -6.1553    0.1054 H   0  0  0  0  0  0  0  0  0  0  0  0
    3.8181   -8.2522    0.4162 H   0  0  0  0  0  0  0  0  0  0  0  0
    5.4943   -8.3547    0.6849 H   0  0  0  0  0  0  0  0  0  0  0  0
    5.1732   -6.6709    2.5281 H   0  0  0  0  0  0  0  0  0  0  0  0
    5.6543   -9.0936    3.0517 H   0  0  0  0  0  0  0  0  0  0  0  0
    3.7807  -10.3948    4.1404 H   0  0  0  0  0  0  0  0  0  0  0  0
    3.7441  -10.3077    2.4072 H   0  0  0  0  0  0  0  0  0  0  0  0
  1  2  1  0
  1 30  1  0
  1 31  1  0
  1 32  1  0
  2 27  1  0
  2  3  1  0
  3  4  1  0
  3 33  1  0
  3 34  1  0
  5  4  1  1
  4 35  1  0
  4 36  1  0
  5 14  1  0
  5 26  1  0
  5  6  1  0
  6 12  2  0
  6  7  1  0
  7 28  1  0
  7  8  2  0
  8  9  1  0
  8 37  1  0
  9 10  2  0
  9 38  1  0
 10 11  1  0
 10 12  1  0
 11 39  1  0
 12 13  1  0
 13 14  1  0
 14 15  1  0
 14 40  1  6
 15 23  2  0
 15 16  1  0
 16 29  1  0
 16 17  1  0
 17 22  2  0
 17 18  1  0
 18 19  2  0
 18 41  1  0
 19 20  1  0
 19 42  1  0
 20 21  2  0
 20 43  1  0
 21 22  1  0
 21 44  1  0
 22 23  1  0
 23 24  1  0
 24 25  1  0
 24 45  1  0
 24 46  1  0
 25 26  1  0
 25 47  1  0
 25 48  1  0
 26 27  1  0
 26 49  1  1
 27 28  1  0
 27 50  1  6
 28 51  1  0
 28 52  1  0
M  END
>  <i_m_ct_stereo_status>  (30) 
1

>  <s_m_source_file>  (30) 
/var/tmp/pbs.5076255.sched01/tmpj20d55gn/0_c3see42.sdf

>  <i_m_source_file_index>  (30) 
11

>  <i_lp_mmshare_version>  (30) 
48012

>  <i_f3d_flags>  (30) 
0

>  <s_epik_input>  (30) 
W0NIMl0xW0NIMl1OKFtDSDNdKVtDQEBIXShbQ0gyXTIpW0NASF0zW0NIMl1bQ0gyXWMoYzRjKFtuSF01KVtjSF1bY0hdW2NIXVtjSF00KWM1W0NAQEhdNk9jN2MoW09IXSlbY0hdW2NIXWMyYzdbQ0BAXTEzNg==

>  <s_epik_cmdline>  (30) 
J2VwaWtfcHl0aG9uJywgJy1waHQnLCAnMi4wJywgJy1waCcsICc3LjAnLCAnLXRuJywgJzgnLCAnLW1hJywgJzIwMCcsICctaW1hZScsICc8aW5maWxlLm1hZT4nLCAnLW9tYWUnLCAnPG91dGZpbGUubWFlPic=

>  <r_lp_tautomer_probability>  (30) 
1

>  <r_epik_Ionization_Penalty>  (30) 
1.852

>  <r_epik_Ionization_Penalty_Charging>  (30) 
0

>  <r_epik_Ionization_Penalty_Neutral>  (30) 
1.852

>  <r_epik_State_Penalty>  (30) 
1.97741

>  <r_epik_Charging_Adjusted_Penalty>  (30) 
1.97741

>  <i_epik_Tot_Q>  (30) 
0

>  <i_epik_Tot_abs_Q>  (30) 
0

>  <s_lp_Force_Field>  (30) 
OPLS3e

>  <r_lp_Energy>  (30) 
81.6949

>  <b_lp_Chiralities_Consistent>  (30) 
1

>  <s_lp_Variant>  (30) 
6:0-2

>  <s_i_glide_gridfile>  (30) 
pfpi4k_grid

>  <i_i_glide_lignum>  (30) 
11

>  <i_i_glide_rotatable_bonds>  (30) 
1

>  <r_i_docking_score>  (30) 
-2.92532

>  <r_i_glide_ligand_efficiency>  (30) 
-0.104476

>  <r_i_glide_ligand_efficiency_sa>  (30) 
-0.317249

>  <r_i_glide_ligand_efficiency_ln>  (30) 
-0.675249

>  <r_i_glide_gscore>  (30) 
-2.92532

>  <r_i_glide_lipo>  (30) 
-0.278566

>  <r_i_glide_hbond>  (30) 
-0.0731911

>  <r_i_glide_metal>  (30) 
-0

>  <r_i_glide_rewards>  (30) 
-0.869594

>  <r_i_glide_evdw>  (30) 
-24.4302

>  <r_i_glide_ecoul>  (30) 
-3.10585

>  <r_i_glide_erotb>  (30) 
0

>  <r_i_glide_esite>  (30) 
-0.0165752

>  <r_i_glide_emodel>  (30) 
-33.0867

>  <r_i_glide_energy>  (30) 
-27.5361

>  <r_i_glide_einternal>  (30) 
0.01341

>  <r_i_glide_intrahb_reward>  (30) 
-0

>  <i_i_glide_confnum>  (30) 
1

>  <i_i_glide_posenum>  (30) 
8

>  <r_i_glide_eff_state_penalty>  (30) 
0

>  <ligand_id>  (30) 
6

>  <original_smiles>  (30) 
CN1CCC23c4c5ccc(O)c4OC2c2[nH]c4ccccc4c2CCC3C1C5

>  <smiles>  (30) 
[H]Oc1c([H])c([H])c2c3c1OC1([H])c4c(c5c([H])c([H])c([H])c([H])c5n4[H])C([H])([H])C([H])([H])C4([H])C([H])(N(C([H])([H])[H])C([H])([H])C([H])([H])C314)C2([H])[H]

$$$$
6:2:0
     RDKit          3D

 52 58  0  0  1  0  0  0  0  0999 V2000
    5.5700   -8.9684    5.2969 C   0  0  0  0  0  0  0  0  0  0  0  0
    4.1801   -9.2099    4.8314 N   0  0  1  0  0  0  0  0  0  0  0  0
    3.2408   -8.1808    5.3818 C   0  0  0  0  0  0  0  0  0  0  0  0
    3.1084   -6.9309    4.4767 C   0  0  0  0  0  0  0  0  0  0  0  0
    2.8598   -7.3648    3.0044 C   0  0  1  0  0  0  0  0  0  0  0  0
    1.6106   -8.1736    2.9795 C   0  0  0  0  0  0  0  0  0  0  0  0
    1.5152   -9.5601    3.1077 C   0  0  0  0  0  0  0  0  0  0  0  0
    0.2170  -10.0907    3.2074 C   0  0  0  0  0  0  0  0  0  0  0  0
   -0.8798   -9.2032    3.1619 C   0  0  0  0  0  0  0  0  0  0  0  0
   -0.6999   -7.8188    2.9588 C   0  0  0  0  0  0  0  0  0  0  0  0
   -1.7917   -7.0467    2.8738 O   0  0  0  0  0  0  0  0  0  0  0  0
    0.5826   -7.2612    2.8296 C   0  0  0  0  0  0  0  0  0  0  0  0
    1.0233   -5.9877    2.5206 O   0  0  0  0  0  0  0  0  0  0  0  0
    2.3425   -6.2960    2.0480 C   0  0  1  0  0  0  0  0  0  0  0  0
    3.2874   -5.1980    1.7746 C   0  0  0  0  0  0  0  0  0  0  0  0
    3.1403   -3.8673    2.1182 N   0  0  0  0  0  0  0  0  0  0  0  0
    4.2292   -3.1455    1.6607 C   0  0  0  0  0  0  0  0  0  0  0  0
    4.5695   -1.7834    1.7519 C   0  0  0  0  0  0  0  0  0  0  0  0
    5.7698   -1.3228    1.1769 C   0  0  0  0  0  0  0  0  0  0  0  0
    6.6170   -2.2286    0.5135 C   0  0  0  0  0  0  0  0  0  0  0  0
    6.2711   -3.5925    0.4289 C   0  0  0  0  0  0  0  0  0  0  0  0
    5.0764   -4.0893    1.0060 C   0  0  0  0  0  0  0  0  0  0  0  0
    4.4727   -5.3911    1.1109 C   0  0  0  0  0  0  0  0  0  0  0  0
    5.0349   -6.6980    0.5709 C   0  0  0  0  0  0  0  0  0  0  0  0
    4.4495   -8.0613    1.0784 C   0  0  0  0  0  0  0  0  0  0  0  0
    4.1422   -8.0922    2.5942 C   0  0  2  0  0  0  0  0  0  0  0  0
    4.0940   -9.4462    3.3476 C   0  0  2  0  0  0  0  0  0  0  0  0
    2.8410  -10.2929    3.0087 C   0  0  0  0  0  0  0  0  0  0  0  0
    2.3500   -3.5040    2.6322 H   0  0  0  0  0  0  0  0  0  0  0  0
    5.9260   -7.9913    4.9737 H   0  0  0  0  0  0  0  0  0  0  0  0
    6.2519   -9.7303    4.9176 H   0  0  0  0  0  0  0  0  0  0  0  0
    5.6141   -8.9928    6.3871 H   0  0  0  0  0  0  0  0  0  0  0  0
    2.2622   -8.6409    5.5278 H   0  0  0  0  0  0  0  0  0  0  0  0
    3.5457   -7.8920    6.3874 H   0  0  0  0  0  0  0  0  0  0  0  0
    2.3047   -6.3009    4.8588 H   0  0  0  0  0  0  0  0  0  0  0  0
    4.0080   -6.3224    4.5608 H   0  0  0  0  0  0  0  0  0  0  0  0
    0.0662  -11.1565    3.3199 H   0  0  0  0  0  0  0  0  0  0  0  0
   -1.8773   -9.6031    3.2722 H   0  0  0  0  0  0  0  0  0  0  0  0
    2.1510   -6.7399    1.0646 H   0  0  0  0  0  0  0  0  0  0  0  0
    3.9111   -1.0998    2.2620 H   0  0  0  0  0  0  0  0  0  0  0  0
    6.0376   -0.2759    1.2472 H   0  0  0  0  0  0  0  0  0  0  0  0
    7.5450   -1.8842    0.0788 H   0  0  0  0  0  0  0  0  0  0  0  0
    6.9304   -4.2798   -0.0781 H   0  0  0  0  0  0  0  0  0  0  0  0
    4.9832   -6.6769   -0.5162 H   0  0  0  0  0  0  0  0  0  0  0  0
    6.1002   -6.7040    0.7948 H   0  0  0  0  0  0  0  0  0  0  0  0
    3.5638   -8.3349    0.5072 H   0  0  0  0  0  0  0  0  0  0  0  0
    5.1739   -8.8407    0.8427 H   0  0  0  0  0  0  0  0  0  0  0  0
    4.9957   -7.5444    2.9949 H   0  0  0  0  0  0  0  0  0  0  0  0
    4.9542  -10.0477    3.0569 H   0  0  0  0  0  0  0  0  0  0  0  0
    2.7873  -11.1853    3.6285 H   0  0  0  0  0  0  0  0  0  0  0  0
    2.9225  -10.6426    1.9810 H   0  0  0  0  0  0  0  0  0  0  0  0
    3.9112  -10.0787    5.2614 H   0  0  0  0  0  0  0  0  0  0  0  0
  1  2  1  0
  1 30  1  0
  1 31  1  0
  1 32  1  0
  2 27  1  0
  2  3  1  0
  2 52  1  1
  3  4  1  0
  3 33  1  0
  3 34  1  0
  5  4  1  1
  4 35  1  0
  4 36  1  0
  5 14  1  0
  5 26  1  0
  5  6  1  0
  6 12  2  0
  6  7  1  0
  7 28  1  0
  7  8  2  0
  8  9  1  0
  8 37  1  0
  9 10  2  0
  9 38  1  0
 10 11  1  0
 10 12  1  0
 12 13  1  0
 13 14  1  0
 14 15  1  0
 14 39  1  6
 15 23  2  0
 15 16  1  0
 16 29  1  0
 16 17  1  0
 17 22  2  0
 17 18  1  0
 18 19  2  0
 18 40  1  0
 19 20  1  0
 19 41  1  0
 20 21  2  0
 20 42  1  0
 21 22  1  0
 21 43  1  0
 22 23  1  0
 23 24  1  0
 24 25  1  0
 24 44  1  0
 24 45  1  0
 25 26  1  0
 25 46  1  0
 25 47  1  0
 26 27  1  0
 26 48  1  1
 27 28  1  0
 27 49  1  6
 28 50  1  0
 28 51  1  0
M  CHG  2   2   1  11  -1
M  END
>  <i_m_ct_stereo_status>  (31) 
1

>  <s_m_source_file>  (31) 
/var/tmp/pbs.5076255.sched01/tmpj20d55gn/0_c3see42.sdf

>  <i_m_source_file_index>  (31) 
12

>  <i_lp_mmshare_version>  (31) 
48012

>  <i_f3d_flags>  (31) 
0

>  <s_epik_input>  (31) 
W0NIMl0xW0NIMl1OKFtDSDNdKVtDQEBIXShbQ0gyXTIpW0NASF0zW0NIMl1bQ0gyXWMoYzRjKFtuSF01KVtjSF1bY0hdW2NIXVtjSF00KWM1W0NAQEhdNk9jN2MoW09IXSlbY0hdW2NIXWMyYzdbQ0BAXTEzNg==

>  <s_epik_cmdline>  (31) 
J2VwaWtfcHl0aG9uJywgJy1waHQnLCAnMi4wJywgJy1waCcsICc3LjAnLCAnLXRuJywgJzgnLCAnLW1hJywgJzIwMCcsICctaW1hZScsICc8aW5maWxlLm1hZT4nLCAnLW9tYWUnLCAnPG91dGZpbGUubWFlPic=

>  <r_epik_Ionization_Penalty>  (31) 
2.25451

>  <r_epik_Ionization_Penalty_Charging>  (31) 
2.25451

>  <r_epik_Ionization_Penalty_Neutral>  (31) 
3.05671e-10

>  <r_epik_State_Penalty>  (31) 
2.39765

>  <r_epik_Charging_Adjusted_Penalty>  (31) 
4.65216

>  <i_epik_Tot_Q>  (31) 
0

>  <i_epik_Tot_abs_Q>  (31) 
2

>  <s_lp_Force_Field>  (31) 
OPLS3e

>  <r_lp_Energy>  (31) 
82.1746

>  <b_lp_Chiralities_Consistent>  (31) 
1

>  <s_lp_Variant>  (31) 
6:0-3

>  <s_i_glide_gridfile>  (31) 
pfpi4k_grid

>  <i_i_glide_lignum>  (31) 
12

>  <i_i_glide_rotatable_bonds>  (31) 
0

>  <r_i_docking_score>  (31) 
-3.22359

>  <r_i_glide_ligand_efficiency>  (31) 
-0.115128

>  <r_i_glide_ligand_efficiency_sa>  (31) 
-0.349597

>  <r_i_glide_ligand_efficiency_ln>  (31) 
-0.744098

>  <r_i_glide_gscore>  (31) 
-3.22359

>  <r_i_glide_lipo>  (31) 
-0.582712

>  <r_i_glide_hbond>  (31) 
-0.179139

>  <r_i_glide_metal>  (31) 
-0

>  <r_i_glide_rewards>  (31) 
-0.869594

>  <r_i_glide_evdw>  (31) 
-23.2822

>  <r_i_glide_ecoul>  (31) 
-2.84805

>  <r_i_glide_erotb>  (31) 
0

>  <r_i_glide_esite>  (31) 
-0.000821522

>  <r_i_glide_emodel>  (31) 
-34.3924

>  <r_i_glide_energy>  (31) 
-26.1303

>  <r_i_glide_einternal>  (31) 
0

>  <r_i_glide_intrahb_reward>  (31) 
-0

>  <i_i_glide_confnum>  (31) 
1

>  <i_i_glide_posenum>  (31) 
31

>  <r_i_glide_eff_state_penalty>  (31) 
0

>  <ligand_id>  (31) 
6

>  <original_smiles>  (31) 
CN1CCC23c4c5ccc(O)c4OC2c2[nH]c4ccccc4c2CCC3C1C5

>  <smiles>  (31) 
[H]c1c([H])c2c3c(c1[O-])OC1([H])c4c(c5c([H])c([H])c([H])c([H])c5n4[H])C([H])([H])C([H])([H])C4([H])C31C([H])([H])C([H])([H])[N+]([H])(C([H])([H])[H])C4([H])C2([H])[H]

$$$$
6:2:1
     RDKit          3D

 52 58  0  0  1  0  0  0  0  0999 V2000
    7.0798   -9.8727    3.3063 C   0  0  0  0  0  0  0  0  0  0  0  0
    7.5125   -8.5694    2.7501 N   0  0  1  0  0  0  0  0  0  0  0  0
    7.0315   -8.3870    1.3472 C   0  0  0  0  0  0  0  0  0  0  0  0
    5.6343   -7.7128    1.2756 C   0  0  0  0  0  0  0  0  0  0  0  0
    5.6125   -6.4374    2.1622 C   0  0  1  0  0  0  0  0  0  0  0  0
    6.6750   -5.5192    1.6496 C   0  0  0  0  0  0  0  0  0  0  0  0
    7.9990   -5.4794    2.0874 C   0  0  0  0  0  0  0  0  0  0  0  0
    8.8487   -4.6277    1.3642 C   0  0  0  0  0  0  0  0  0  0  0  0
    8.3333   -3.8709    0.2829 C   0  0  0  0  0  0  0  0  0  0  0  0
    6.9574   -3.9001   -0.0595 C   0  0  0  0  0  0  0  0  0  0  0  0
    6.5057   -3.1055   -1.0783 O   0  0  0  0  0  0  0  0  0  0  0  0
    6.0751   -4.7507    0.6613 C   0  0  0  0  0  0  0  0  0  0  0  0
    4.7024   -4.9252    0.6153 O   0  0  0  0  0  0  0  0  0  0  0  0
    4.4656   -5.4607    1.9281 C   0  0  1  0  0  0  0  0  0  0  0  0
    3.1292   -5.9848    2.2711 C   0  0  0  0  0  0  0  0  0  0  0  0
    2.0848   -6.2184    1.3974 N   0  0  0  0  0  0  0  0  0  0  0  0
    0.9832   -6.6753    2.1012 C   0  0  0  0  0  0  0  0  0  0  0  0
   -0.3092   -7.0552    1.6964 C   0  0  0  0  0  0  0  0  0  0  0  0
   -1.2426   -7.4888    2.6588 C   0  0  0  0  0  0  0  0  0  0  0  0
   -0.8818   -7.5255    4.0174 C   0  0  0  0  0  0  0  0  0  0  0  0
    0.4158   -7.1435    4.4143 C   0  0  0  0  0  0  0  0  0  0  0  0
    1.3826   -6.7187    3.4695 C   0  0  0  0  0  0  0  0  0  0  0  0
    2.7574   -6.3029    3.5548 C   0  0  0  0  0  0  0  0  0  0  0  0
    3.6037   -6.2186    4.8212 C   0  0  0  0  0  0  0  0  0  0  0  0
    5.1622   -6.0907    4.6921 C   0  0  0  0  0  0  0  0  0  0  0  0
    5.7816   -6.9783    3.5869 C   0  0  2  0  0  0  0  0  0  0  0  0
    7.2676   -7.4118    3.6762 C   0  0  2  0  0  0  0  0  0  0  0  0
    8.2595   -6.2558    3.3720 C   0  0  0  0  0  0  0  0  0  0  0  0
    2.1698   -6.0755    0.4013 H   0  0  0  0  0  0  0  0  0  0  0  0
    5.9903   -9.9450    3.3279 H   0  0  0  0  0  0  0  0  0  0  0  0
    7.4608  -10.0166    4.3189 H   0  0  0  0  0  0  0  0  0  0  0  0
    7.4487  -10.6938    2.6889 H   0  0  0  0  0  0  0  0  0  0  0  0
    7.7677   -7.7945    0.8021 H   0  0  0  0  0  0  0  0  0  0  0  0
    7.0089   -9.3443    0.8223 H   0  0  0  0  0  0  0  0  0  0  0  0
    5.3881   -7.4650    0.2423 H   0  0  0  0  0  0  0  0  0  0  0  0
    4.8655   -8.4301    1.5798 H   0  0  0  0  0  0  0  0  0  0  0  0
    9.8718   -4.5205    1.6799 H   0  0  0  0  0  0  0  0  0  0  0  0
    9.0004   -3.2305   -0.2675 H   0  0  0  0  0  0  0  0  0  0  0  0
    4.5949   -4.5927    2.5829 H   0  0  0  0  0  0  0  0  0  0  0  0
   -0.5729   -7.0547    0.6516 H   0  0  0  0  0  0  0  0  0  0  0  0
   -2.2296   -7.8094    2.3588 H   0  0  0  0  0  0  0  0  0  0  0  0
   -1.5874   -7.8765    4.7588 H   0  0  0  0  0  0  0  0  0  0  0  0
    0.6916   -7.1930    5.4560 H   0  0  0  0  0  0  0  0  0  0  0  0
    3.2451   -5.4016    5.4468 H   0  0  0  0  0  0  0  0  0  0  0  0
    3.4050   -7.1158    5.4049 H   0  0  0  0  0  0  0  0  0  0  0  0
    5.4545   -5.0484    4.5443 H   0  0  0  0  0  0  0  0  0  0  0  0
    5.5940   -6.3676    5.6562 H   0  0  0  0  0  0  0  0  0  0  0  0
    5.1879   -7.8874    3.6907 H   0  0  0  0  0  0  0  0  0  0  0  0
    7.4771   -7.7544    4.6915 H   0  0  0  0  0  0  0  0  0  0  0  0
    9.2842   -6.6263    3.3579 H   0  0  0  0  0  0  0  0  0  0  0  0
    8.2144   -5.5453    4.1984 H   0  0  0  0  0  0  0  0  0  0  0  0
    8.5201   -8.6330    2.6694 H   0  0  0  0  0  0  0  0  0  0  0  0
  1  2  1  0
  1 30  1  0
  1 31  1  0
  1 32  1  0
  2 27  1  0
  2  3  1  0
  2 52  1  6
  3  4  1  0
  3 33  1  0
  3 34  1  0
  5  4  1  6
  4 35  1  0
  4 36  1  0
  5 14  1  0
  5 26  1  0
  5  6  1  0
  6 12  2  0
  6  7  1  0
  7 28  1  0
  7  8  2  0
  8  9  1  0
  8 37  1  0
  9 10  2  0
  9 38  1  0
 10 11  1  0
 10 12  1  0
 12 13  1  0
 13 14  1  0
 14 15  1  0
 14 39  1  1
 15 23  2  0
 15 16  1  0
 16 29  1  0
 16 17  1  0
 17 22  2  0
 17 18  1  0
 18 19  2  0
 18 40  1  0
 19 20  1  0
 19 41  1  0
 20 21  2  0
 20 42  1  0
 21 22  1  0
 21 43  1  0
 22 23  1  0
 23 24  1  0
 24 25  1  0
 24 44  1  0
 24 45  1  0
 25 26  1  0
 25 46  1  0
 25 47  1  0
 26 27  1  0
 26 48  1  6
 27 28  1  0
 27 49  1  1
 28 50  1  0
 28 51  1  0
M  CHG  2   2   1  11  -1
M  END
>  <i_m_ct_stereo_status>  (32) 
1

>  <s_m_source_file>  (32) 
/var/tmp/pbs.5076255.sched01/tmpj20d55gn/0_c3see42.sdf

>  <i_m_source_file_index>  (32) 
12

>  <i_lp_mmshare_version>  (32) 
48012

>  <i_f3d_flags>  (32) 
0

>  <s_epik_input>  (32) 
W0NIMl0xW0NIMl1OKFtDSDNdKVtDQEBIXShbQ0gyXTIpW0NASF0zW0NIMl1bQ0gyXWMoYzRjKFtuSF01KVtjSF1bY0hdW2NIXVtjSF00KWM1W0NAQEhdNk9jN2MoW09IXSlbY0hdW2NIXWMyYzdbQ0BAXTEzNg==

>  <s_epik_cmdline>  (32) 
J2VwaWtfcHl0aG9uJywgJy1waHQnLCAnMi4wJywgJy1waCcsICc3LjAnLCAnLXRuJywgJzgnLCAnLW1hJywgJzIwMCcsICctaW1hZScsICc8aW5maWxlLm1hZT4nLCAnLW9tYWUnLCAnPG91dGZpbGUubWFlPic=

>  <r_epik_Ionization_Penalty>  (32) 
2.25451

>  <r_epik_Ionization_Penalty_Charging>  (32) 
2.25451

>  <r_epik_Ionization_Penalty_Neutral>  (32) 
3.05671e-10

>  <r_epik_State_Penalty>  (32) 
2.39765

>  <r_epik_Charging_Adjusted_Penalty>  (32) 
4.65216

>  <i_epik_Tot_Q>  (32) 
0

>  <i_epik_Tot_abs_Q>  (32) 
2

>  <s_lp_Force_Field>  (32) 
OPLS3e

>  <r_lp_Energy>  (32) 
82.1746

>  <b_lp_Chiralities_Consistent>  (32) 
1

>  <s_lp_Variant>  (32) 
6:0-3

>  <s_i_glide_gridfile>  (32) 
pfpi4k_grid

>  <i_i_glide_lignum>  (32) 
12

>  <i_i_glide_rotatable_bonds>  (32) 
0

>  <r_i_docking_score>  (32) 
-3.21904

>  <r_i_glide_ligand_efficiency>  (32) 
-0.114966

>  <r_i_glide_ligand_efficiency_sa>  (32) 
-0.349104

>  <r_i_glide_ligand_efficiency_ln>  (32) 
-0.74305

>  <r_i_glide_gscore>  (32) 
-3.21904

>  <r_i_glide_lipo>  (32) 
-0.827958

>  <r_i_glide_hbond>  (32) 
0

>  <r_i_glide_metal>  (32) 
-0

>  <r_i_glide_rewards>  (32) 
-1.16959

>  <r_i_glide_evdw>  (32) 
-23.2673

>  <r_i_glide_ecoul>  (32) 
-0.197555

>  <r_i_glide_erotb>  (32) 
0

>  <r_i_glide_esite>  (32) 
-0.0284932

>  <r_i_glide_emodel>  (32) 
-31.7633

>  <r_i_glide_energy>  (32) 
-23.4649

>  <r_i_glide_einternal>  (32) 
0

>  <r_i_glide_intrahb_reward>  (32) 
-0

>  <i_i_glide_confnum>  (32) 
1

>  <i_i_glide_posenum>  (32) 
21

>  <r_i_glide_eff_state_penalty>  (32) 
0

>  <ligand_id>  (32) 
6

>  <original_smiles>  (32) 
CN1CCC23c4c5ccc(O)c4OC2c2[nH]c4ccccc4c2CCC3C1C5

>  <smiles>  (32) 
[H]c1c([H])c2c3c(c1[O-])OC1([H])c4c(c5c([H])c([H])c([H])c([H])c5n4[H])C([H])([H])C([H])([H])C4([H])C31C([H])([H])C([H])([H])[N+]([H])(C([H])([H])[H])C4([H])C2([H])[H]

$$$$
6:2:2
     RDKit          3D

 52 58  0  0  1  0  0  0  0  0999 V2000
    6.6401    0.5304    5.2863 C   0  0  0  0  0  0  0  0  0  0  0  0
    5.3554   -0.0195    5.7739 N   0  0  1  0  0  0  0  0  0  0  0  0
    4.1911    0.6563    5.1235 C   0  0  0  0  0  0  0  0  0  0  0  0
    3.7417   -0.0398    3.8134 C   0  0  0  0  0  0  0  0  0  0  0  0
    3.5918   -1.5713    4.0479 C   0  0  1  0  0  0  0  0  0  0  0  0
    2.5743   -1.7664    5.1241 C   0  0  0  0  0  0  0  0  0  0  0  0
    2.8325   -1.8700    6.4931 C   0  0  0  0  0  0  0  0  0  0  0  0
    1.7111   -1.9046    7.3322 C   0  0  0  0  0  0  0  0  0  0  0  0
    0.4179   -1.8413    6.7554 C   0  0  0  0  0  0  0  0  0  0  0  0
    0.2206   -1.8086    5.3475 C   0  0  0  0  0  0  0  0  0  0  0  0
   -1.0589   -1.8050    4.8766 O   0  0  0  0  0  0  0  0  0  0  0  0
    1.3435   -1.8027    4.4816 C   0  0  0  0  0  0  0  0  0  0  0  0
    1.4684   -1.8833    3.1045 O   0  0  0  0  0  0  0  0  0  0  0  0
    2.8228   -2.3557    2.9939 C   0  0  1  0  0  0  0  0  0  0  0  0
    3.4759   -2.4091    1.6694 C   0  0  0  0  0  0  0  0  0  0  0  0
    3.0166   -1.8511    0.4888 N   0  0  0  0  0  0  0  0  0  0  0  0
    3.8822   -2.1534   -0.5411 C   0  0  0  0  0  0  0  0  0  0  0  0
    3.8611   -1.8350   -1.9080 C   0  0  0  0  0  0  0  0  0  0  0  0
    4.9018   -2.2873   -2.7415 C   0  0  0  0  0  0  0  0  0  0  0  0
    5.9471   -3.0552   -2.1974 C   0  0  0  0  0  0  0  0  0  0  0  0
    5.9576   -3.3705   -0.8233 C   0  0  0  0  0  0  0  0  0  0  0  0
    4.9287   -2.9251    0.0425 C   0  0  0  0  0  0  0  0  0  0  0  0
    4.6646   -3.0595    1.4509 C   0  0  0  0  0  0  0  0  0  0  0  0
    5.5368   -3.7884    2.4676 C   0  0  0  0  0  0  0  0  0  0  0  0
    5.2992   -3.5290    3.9976 C   0  0  0  0  0  0  0  0  0  0  0  0
    5.0171   -2.0476    4.3543 C   0  0  2  0  0  0  0  0  0  0  0  0
    5.3150   -1.5227    5.7831 C   0  0  2  0  0  0  0  0  0  0  0  0
    4.3054   -2.0394    6.8431 C   0  0  0  0  0  0  0  0  0  0  0  0
    2.1332   -1.3516    0.3695 H   0  0  0  0  0  0  0  0  0  0  0  0
    6.7430    0.3861    4.2070 H   0  0  0  0  0  0  0  0  0  0  0  0
    7.4914    0.0600    5.7831 H   0  0  0  0  0  0  0  0  0  0  0  0
    6.6987    1.6031    5.4858 H   0  0  0  0  0  0  0  0  0  0  0  0
    3.3579    0.6896    5.8262 H   0  0  0  0  0  0  0  0  0  0  0  0
    4.4182    1.7082    4.9343 H   0  0  0  0  0  0  0  0  0  0  0  0
    2.8086    0.4118    3.4719 H   0  0  0  0  0  0  0  0  0  0  0  0
    4.4634    0.1732    3.0224 H   0  0  0  0  0  0  0  0  0  0  0  0
    1.8348   -1.9854    8.4034 H   0  0  0  0  0  0  0  0  0  0  0  0
   -0.4342   -1.8459    7.4003 H   0  0  0  0  0  0  0  0  0  0  0  0
    2.7468   -3.4041    3.3025 H   0  0  0  0  0  0  0  0  0  0  0  0
    3.0479   -1.2477   -2.3047 H   0  0  0  0  0  0  0  0  0  0  0  0
    4.8924   -2.0442   -3.7923 H   0  0  0  0  0  0  0  0  0  0  0  0
    6.7487   -3.4083   -2.8318 H   0  0  0  0  0  0  0  0  0  0  0  0
    6.7593   -3.9642   -0.4152 H   0  0  0  0  0  0  0  0  0  0  0  0
    5.4948   -4.8618    2.2891 H   0  0  0  0  0  0  0  0  0  0  0  0
    6.5665   -3.5248    2.2369 H   0  0  0  0  0  0  0  0  0  0  0  0
    4.4983   -4.1680    4.3726 H   0  0  0  0  0  0  0  0  0  0  0  0
    6.1847   -3.8695    4.5383 H   0  0  0  0  0  0  0  0  0  0  0  0
    5.7092   -1.5340    3.6860 H   0  0  0  0  0  0  0  0  0  0  0  0
    6.3001   -1.8771    6.0954 H   0  0  0  0  0  0  0  0  0  0  0  0
    4.4905   -1.5727    7.8111 H   0  0  0  0  0  0  0  0  0  0  0  0
    4.4732   -3.1069    6.9943 H   0  0  0  0  0  0  0  0  0  0  0  0
    5.3140    0.2564    6.7464 H   0  0  0  0  0  0  0  0  0  0  0  0
  1  2  1  0
  1 30  1  0
  1 31  1  0
  1 32  1  0
  2 27  1  0
  2  3  1  0
  2 52  1  1
  3  4  1  0
  3 33  1  0
  3 34  1  0
  5  4  1  6
  4 35  1  0
  4 36  1  0
  5 14  1  0
  5 26  1  0
  5  6  1  0
  6 12  2  0
  6  7  1  0
  7 28  1  0
  7  8  2  0
  8  9  1  0
  8 37  1  0
  9 10  2  0
  9 38  1  0
 10 11  1  0
 10 12  1  0
 12 13  1  0
 13 14  1  0
 14 15  1  0
 14 39  1  1
 15 23  2  0
 15 16  1  0
 16 29  1  0
 16 17  1  0
 17 22  2  0
 17 18  1  0
 18 19  2  0
 18 40  1  0
 19 20  1  0
 19 41  1  0
 20 21  2  0
 20 42  1  0
 21 22  1  0
 21 43  1  0
 22 23  1  0
 23 24  1  0
 24 25  1  0
 24 44  1  0
 24 45  1  0
 25 26  1  0
 25 46  1  0
 25 47  1  0
 26 27  1  0
 26 48  1  6
 27 28  1  0
 27 49  1  1
 28 50  1  0
 28 51  1  0
M  CHG  2   2   1  11  -1
M  END
>  <i_m_ct_stereo_status>  (33) 
1

>  <s_m_source_file>  (33) 
/var/tmp/pbs.5076255.sched01/tmpj20d55gn/0_c3see42.sdf

>  <i_m_source_file_index>  (33) 
12

>  <i_lp_mmshare_version>  (33) 
48012

>  <i_f3d_flags>  (33) 
0

>  <s_epik_input>  (33) 
W0NIMl0xW0NIMl1OKFtDSDNdKVtDQEBIXShbQ0gyXTIpW0NASF0zW0NIMl1bQ0gyXWMoYzRjKFtuSF01KVtjSF1bY0hdW2NIXVtjSF00KWM1W0NAQEhdNk9jN2MoW09IXSlbY0hdW2NIXWMyYzdbQ0BAXTEzNg==

>  <s_epik_cmdline>  (33) 
J2VwaWtfcHl0aG9uJywgJy1waHQnLCAnMi4wJywgJy1waCcsICc3LjAnLCAnLXRuJywgJzgnLCAnLW1hJywgJzIwMCcsICctaW1hZScsICc8aW5maWxlLm1hZT4nLCAnLW9tYWUnLCAnPG91dGZpbGUubWFlPic=

>  <r_epik_Ionization_Penalty>  (33) 
2.25451

>  <r_epik_Ionization_Penalty_Charging>  (33) 
2.25451

>  <r_epik_Ionization_Penalty_Neutral>  (33) 
3.05671e-10

>  <r_epik_State_Penalty>  (33) 
2.39765

>  <r_epik_Charging_Adjusted_Penalty>  (33) 
4.65216

>  <i_epik_Tot_Q>  (33) 
0

>  <i_epik_Tot_abs_Q>  (33) 
2

>  <s_lp_Force_Field>  (33) 
OPLS3e

>  <r_lp_Energy>  (33) 
82.1746

>  <b_lp_Chiralities_Consistent>  (33) 
1

>  <s_lp_Variant>  (33) 
6:0-3

>  <s_i_glide_gridfile>  (33) 
pfpi4k_grid

>  <i_i_glide_lignum>  (33) 
12

>  <i_i_glide_rotatable_bonds>  (33) 
0

>  <r_i_docking_score>  (33) 
-2.9137

>  <r_i_glide_ligand_efficiency>  (33) 
-0.104061

>  <r_i_glide_ligand_efficiency_sa>  (33) 
-0.31599

>  <r_i_glide_ligand_efficiency_ln>  (33) 
-0.672568

>  <r_i_glide_gscore>  (33) 
-2.9137

>  <r_i_glide_lipo>  (33) 
-0.757466

>  <r_i_glide_hbond>  (33) 
-0.14597

>  <r_i_glide_metal>  (33) 
-0

>  <r_i_glide_rewards>  (33) 
-0.869594

>  <r_i_glide_evdw>  (33) 
-20.1496

>  <r_i_glide_ecoul>  (33) 
-0.435504

>  <r_i_glide_erotb>  (33) 
0

>  <r_i_glide_esite>  (33) 
-0.0678649

>  <r_i_glide_emodel>  (33) 
-28.064

>  <r_i_glide_energy>  (33) 
-20.5851

>  <r_i_glide_einternal>  (33) 
0

>  <r_i_glide_intrahb_reward>  (33) 
-0

>  <i_i_glide_confnum>  (33) 
1

>  <i_i_glide_posenum>  (33) 
2

>  <r_i_glide_eff_state_penalty>  (33) 
0

>  <ligand_id>  (33) 
6

>  <original_smiles>  (33) 
CN1CCC23c4c5ccc(O)c4OC2c2[nH]c4ccccc4c2CCC3C1C5

>  <smiles>  (33) 
[H]c1c([H])c2c3c(c1[O-])OC1([H])c4c(c5c([H])c([H])c([H])c([H])c5n4[H])C([H])([H])C([H])([H])C4([H])C31C([H])([H])C([H])([H])[N+]([H])(C([H])([H])[H])C4([H])C2([H])[H]

$$$$
7:2:0
     RDKit          3D

 43 49  0  0  1  0  0  0  0  0999 V2000
    6.0519   -6.0263    3.3834 C   0  0  0  0  0  0  0  0  0  0  0  0
    5.2915   -5.1065    3.4070 C   0  0  0  0  0  0  0  0  0  0  0  0
    4.8437   -4.0094    2.5835 C   0  0  0  0  0  0  0  0  0  0  0  0
    5.9516   -3.4735    1.7567 N   0  0  0  0  0  0  0  0  0  0  0  0
    5.5779   -2.1940    1.1490 C   0  0  1  0  0  0  0  0  0  0  0  0
    6.7928   -1.5215    0.5044 C   0  0  0  0  0  0  0  0  0  0  0  0
    7.5718   -2.4102   -0.4400 C   0  0  2  0  0  0  0  0  0  0  0  0
    6.9458   -3.3951   -1.3980 C   0  0  2  0  0  0  0  0  0  0  0  0
    5.4459   -3.5818   -1.6510 C   0  0  2  0  0  0  0  0  0  0  0  0
    4.9081   -3.0131   -2.9715 C   0  0  1  0  0  0  0  0  0  0  0  0
    3.4088   -3.1508   -3.1255 C   0  0  0  0  0  0  0  0  0  0  0  0
    2.9498   -2.0546   -3.6973 C   0  0  0  0  0  0  0  0  0  0  0  0
    3.7816   -0.8983   -3.1649 C   0  0  0  0  0  0  0  0  0  0  0  0
    4.8082   -1.6594   -2.3072 C   0  0  1  0  0  0  0  0  0  0  0  0
    4.3341   -2.6311   -1.1635 C   0  0  1  0  0  0  0  0  0  0  0  0
    3.0387   -3.2590   -1.6517 C   0  0  0  0  0  0  0  0  0  0  0  0
    4.2781   -2.1813    0.2988 C   0  0  0  0  0  0  0  0  0  0  0  0
    7.5697   -3.8444   -0.1444 N   0  0  0  0  0  0  0  0  0  0  0  0
    6.6974   -4.4357    0.8936 C   0  0  1  0  0  0  0  0  0  0  0  0
    7.6865   -5.3818    1.7043 C   0  0  0  0  0  0  0  0  0  0  0  0
    7.0817   -6.5597    2.5342 C   0  0  0  0  0  0  0  0  0  0  0  0
    4.1318   -4.4509    1.8820 H   0  0  0  0  0  0  0  0  0  0  0  0
    4.3687   -3.2269    3.1793 H   0  0  0  0  0  0  0  0  0  0  0  0
    5.3479   -1.5549    1.9994 H   0  0  0  0  0  0  0  0  0  0  0  0
    6.4853   -0.5985    0.0008 H   0  0  0  0  0  0  0  0  0  0  0  0
    7.4896   -1.2152    1.2837 H   0  0  0  0  0  0  0  0  0  0  0  0
    8.5044   -1.9500   -0.8009 H   0  0  0  0  0  0  0  0  0  0  0  0
    7.5553   -3.5878   -2.2812 H   0  0  0  0  0  0  0  0  0  0  0  0
    5.1942   -4.6489   -1.5644 H   0  0  0  0  0  0  0  0  0  0  0  0
    5.5082   -3.0943   -3.8867 H   0  0  0  0  0  0  0  0  0  0  0  0
    1.8829   -1.8547   -3.8161 H   0  0  0  0  0  0  0  0  0  0  0  0
    4.2252   -0.3285   -3.9768 H   0  0  0  0  0  0  0  0  0  0  0  0
    3.1671   -0.2494   -2.5574 H   0  0  0  0  0  0  0  0  0  0  0  0
    5.7542   -1.1506   -2.1294 H   0  0  0  0  0  0  0  0  0  0  0  0
    2.1465   -2.6898   -1.3928 H   0  0  0  0  0  0  0  0  0  0  0  0
    2.9277   -4.2875   -1.3240 H   0  0  0  0  0  0  0  0  0  0  0  0
    3.4853   -2.7106    0.8123 H   0  0  0  0  0  0  0  0  0  0  0  0
    3.9290   -1.1566    0.2874 H   0  0  0  0  0  0  0  0  0  0  0  0
    5.9819   -5.0671    0.3906 H   0  0  0  0  0  0  0  0  0  0  0  0
    8.4497   -5.8236    1.0480 H   0  0  0  0  0  0  0  0  0  0  0  0
    8.2455   -4.7777    2.4180 H   0  0  0  0  0  0  0  0  0  0  0  0
    7.8052   -7.1300    3.1212 H   0  0  0  0  0  0  0  0  0  0  0  0
    6.5998   -7.2560    1.8624 H   0  0  0  0  0  0  0  0  0  0  0  0
  1 21  1  0
  1  2  3  0
  2  3  1  0
  3  4  1  0
  3 22  1  0
  3 23  1  0
  4 19  1  0
  4  5  1  0
  5 17  1  0
  5  6  1  0
  5 24  1  1
  6  7  1  0
  6 25  1  0
  6 26  1  0
  7 18  1  0
  7  8  1  0
  7 27  1  6
  8  9  1  0
  8 18  1  0
  8 28  1  6
  9 15  1  0
  9 10  1  0
  9 29  1  6
 10 14  1  0
 10 11  1  0
 10 30  1  6
 11 16  1  0
 11 12  2  0
 12 13  1  0
 12 31  1  0
 13 14  1  0
 13 32  1  0
 13 33  1  0
 14 15  1  0
 14 34  1  1
 15 16  1  0
 15 17  1  1
 16 35  1  0
 16 36  1  0
 17 37  1  0
 17 38  1  0
 18 19  1  0
 19 20  1  0
 19 39  1  6
 20 21  1  0
 20 40  1  0
 20 41  1  0
 21 42  1  0
 21 43  1  0
M  END
>  <i_m_ct_stereo_status>  (34) 
1

>  <s_m_source_file>  (34) 
/var/tmp/pbs.5076255.sched01/tmpj20d55gn/0_c3see42.sdf

>  <i_m_source_file_index>  (34) 
15

>  <i_lp_mmshare_version>  (34) 
48012

>  <i_f3d_flags>  (34) 
0

>  <s_epik_input>  (34) 
W0NIMl0xW0NIMl1DI0NbQ0gyXU4oW0NAQEhdKFtDSDJdMilbQ0gyXTMpW0NASF0xTjRbQ0BIXTJbQ0BASF00W0NAQEhdKFtDQEBdMzU2KVtDQEhdN0MoW0NIMl02KT1bQ0hdW0NIMl1bQ0BASF01Nw==

>  <s_epik_cmdline>  (34) 
J2VwaWtfcHl0aG9uJywgJy1waHQnLCAnMi4wJywgJy1waCcsICc3LjAnLCAnLXRuJywgJzgnLCAnLW1hJywgJzIwMCcsICctaW1hZScsICc8aW5maWxlLm1hZT4nLCAnLW9tYWUnLCAnPG91dGZpbGUubWFlPic=

>  <r_epik_Ionization_Penalty>  (34) 
2.4846

>  <r_epik_Ionization_Penalty_Charging>  (34) 
0

>  <r_epik_Ionization_Penalty_Neutral>  (34) 
2.4846

>  <r_epik_State_Penalty>  (34) 
1.77755

>  <r_epik_Charging_Adjusted_Penalty>  (34) 
1.77755

>  <i_epik_Tot_Q>  (34) 
0

>  <i_epik_Tot_abs_Q>  (34) 
0

>  <s_epik_Chemistry_Notes>  (34) 
This compound contains an acetal/aminal-like group ( X-CH(R)-Y where X, Y are N, S, or O) that may be acid/base labile, releasing an aldehyde.

>  <s_lp_Force_Field>  (34) 
OPLS3e

>  <r_lp_Energy>  (34) 
104.875

>  <b_lp_Chiralities_Consistent>  (34) 
1

>  <s_lp_Variant>  (34) 
7:0-3

>  <s_i_glide_gridfile>  (34) 
pfpi4k_grid

>  <i_i_glide_lignum>  (34) 
15

>  <i_i_glide_rotatable_bonds>  (34) 
0

>  <r_i_docking_score>  (34) 
-4.1999

>  <r_i_glide_ligand_efficiency>  (34) 
-0.199995

>  <r_i_glide_ligand_efficiency_sa>  (34) 
-0.551771

>  <r_i_glide_ligand_efficiency_ln>  (34) 
-1.03842

>  <r_i_glide_gscore>  (34) 
-4.1999

>  <r_i_glide_lipo>  (34) 
-1.06682

>  <r_i_glide_hbond>  (34) 
0

>  <r_i_glide_metal>  (34) 
-0

>  <r_i_glide_rewards>  (34) 
-1.66531

>  <r_i_glide_evdw>  (34) 
-26.2082

>  <r_i_glide_ecoul>  (34) 
-1.04901

>  <r_i_glide_erotb>  (34) 
0

>  <r_i_glide_esite>  (34) 
0

>  <r_i_glide_emodel>  (34) 
-33.2816

>  <r_i_glide_energy>  (34) 
-27.2572

>  <r_i_glide_einternal>  (34) 
0

>  <r_i_glide_intrahb_reward>  (34) 
-0

>  <i_i_glide_confnum>  (34) 
2

>  <i_i_glide_posenum>  (34) 
1

>  <r_i_glide_eff_state_penalty>  (34) 
0

>  <ligand_id>  (34) 
7

>  <original_smiles>  (34) 
C1#CCN2C3CC4C(C5C6C7=CCC6C5(C7)C3)N4C2CC1

>  <smiles>  (34) 
[H]C1=C2C([H])([H])C34C([H])([H])C5([H])N6C([H])([H])C#CC([H])([H])C([H])([H])C6([H])N6C([H])(C5([H])[H])C6([H])C3([H])C2([H])C4([H])C1([H])[H]

$$$$
7:2:1
     RDKit          3D

 43 49  0  0  1  0  0  0  0  0999 V2000
    4.1481   -6.1021    3.4941 C   0  0  0  0  0  0  0  0  0  0  0  0
    3.4211   -5.1658    3.3361 C   0  0  0  0  0  0  0  0  0  0  0  0
    3.2803   -4.0088    2.4721 C   0  0  0  0  0  0  0  0  0  0  0  0
    4.5894   -3.4654    2.0315 N   0  0  0  0  0  0  0  0  0  0  0  0
    4.4259   -2.1651    1.4023 C   0  0  1  0  0  0  0  0  0  0  0  0
    5.7834   -1.5117    1.1487 C   0  0  0  0  0  0  0  0  0  0  0  0
    6.7729   -2.3769    0.3990 C   0  0  2  0  0  0  0  0  0  0  0  0
    6.4292   -3.3113   -0.7371 C   0  0  2  0  0  0  0  0  0  0  0  0
    5.0510   -3.4329   -1.4011 C   0  0  2  0  0  0  0  0  0  0  0  0
    4.9180   -2.7790   -2.7856 C   0  0  1  0  0  0  0  0  0  0  0  0
    3.5089   -2.8596   -3.3584 C   0  0  0  0  0  0  0  0  0  0  0  0
    3.2393   -1.7126   -3.9486 C   0  0  0  0  0  0  0  0  0  0  0  0
    3.9229   -0.6128   -3.1576 C   0  0  0  0  0  0  0  0  0  0  0  0
    4.6507   -1.4567   -2.0959 C   0  0  1  0  0  0  0  0  0  0  0  0
    3.8711   -2.4725   -1.1863 C   0  0  1  0  0  0  0  0  0  0  0  0
    2.7475   -3.0492   -2.0546 C   0  0  0  0  0  0  0  0  0  0  0  0
    3.3983   -2.0726    0.2221 C   0  0  0  0  0  0  0  0  0  0  0  0
    6.6576   -3.8286    0.6266 N   0  0  0  0  0  0  0  0  0  0  0  0
    5.5208   -4.4274    1.3560 C   0  0  1  0  0  0  0  0  0  0  0  0
    6.2056   -5.4418    2.3677 C   0  0  0  0  0  0  0  0  0  0  0  0
    5.3681   -6.6307    2.9170 C   0  0  0  0  0  0  0  0  0  0  0  0
    2.7826   -4.4005    1.5946 H   0  0  0  0  0  0  0  0  0  0  0  0
    2.6719   -3.2440    2.9582 H   0  0  0  0  0  0  0  0  0  0  0  0
    3.9794   -1.5478    2.1865 H   0  0  0  0  0  0  0  0  0  0  0  0
    5.6590   -0.5543    0.6306 H   0  0  0  0  0  0  0  0  0  0  0  0
    6.2497   -1.2667    2.1079 H   0  0  0  0  0  0  0  0  0  0  0  0
    7.7747   -1.9397    0.3422 H   0  0  0  0  0  0  0  0  0  0  0  0
    7.2446   -3.4923   -1.4279 H   0  0  0  0  0  0  0  0  0  0  0  0
    4.7577   -4.4878   -1.4460 H   0  0  0  0  0  0  0  0  0  0  0  0
    5.7508   -2.8243   -3.4965 H   0  0  0  0  0  0  0  0  0  0  0  0
    2.2561   -1.4574   -4.3552 H   0  0  0  0  0  0  0  0  0  0  0  0
    4.5922   -0.0410   -3.7863 H   0  0  0  0  0  0  0  0  0  0  0  0
    3.1973    0.0673   -2.7207 H   0  0  0  0  0  0  0  0  0  0  0  0
    5.5234   -0.9779   -1.6410 H   0  0  0  0  0  0  0  0  0  0  0  0
    1.8263   -2.4696   -2.0327 H   0  0  0  0  0  0  0  0  0  0  0  0
    2.5266   -4.0890   -1.8359 H   0  0  0  0  0  0  0  0  0  0  0  0
    2.4847   -2.5898    0.4749 H   0  0  0  0  0  0  0  0  0  0  0  0
    3.1052   -1.0275    0.1648 H   0  0  0  0  0  0  0  0  0  0  0  0
    4.9532   -5.0071    0.6443 H   0  0  0  0  0  0  0  0  0  0  0  0
    7.1081   -5.8756    1.9326 H   0  0  0  0  0  0  0  0  0  0  0  0
    6.5393   -4.8822    3.2420 H   0  0  0  0  0  0  0  0  0  0  0  0
    5.8699   -7.2441    3.6559 H   0  0  0  0  0  0  0  0  0  0  0  0
    5.0787   -7.2781    2.0981 H   0  0  0  0  0  0  0  0  0  0  0  0
  1 21  1  0
  1  2  3  0
  2  3  1  0
  3  4  1  0
  3 22  1  0
  3 23  1  0
  4 19  1  0
  4  5  1  0
  5 17  1  0
  5  6  1  0
  5 24  1  1
  6  7  1  0
  6 25  1  0
  6 26  1  0
  7 18  1  0
  7  8  1  0
  7 27  1  6
  8  9  1  0
  8 18  1  0
  8 28  1  6
  9 15  1  0
  9 10  1  0
  9 29  1  6
 10 14  1  0
 10 11  1  0
 10 30  1  6
 11 16  1  0
 11 12  2  0
 12 13  1  0
 12 31  1  0
 13 14  1  0
 13 32  1  0
 13 33  1  0
 14 15  1  0
 14 34  1  1
 15 16  1  0
 15 17  1  1
 16 35  1  0
 16 36  1  0
 17 37  1  0
 17 38  1  0
 18 19  1  0
 19 20  1  0
 19 39  1  6
 20 21  1  0
 20 40  1  0
 20 41  1  0
 21 42  1  0
 21 43  1  0
M  END
>  <i_m_ct_stereo_status>  (35) 
1

>  <s_m_source_file>  (35) 
/var/tmp/pbs.5076255.sched01/tmpj20d55gn/0_c3see42.sdf

>  <i_m_source_file_index>  (35) 
15

>  <i_lp_mmshare_version>  (35) 
48012

>  <i_f3d_flags>  (35) 
0

>  <s_epik_input>  (35) 
W0NIMl0xW0NIMl1DI0NbQ0gyXU4oW0NAQEhdKFtDSDJdMilbQ0gyXTMpW0NASF0xTjRbQ0BIXTJbQ0BASF00W0NAQEhdKFtDQEBdMzU2KVtDQEhdN0MoW0NIMl02KT1bQ0hdW0NIMl1bQ0BASF01Nw==

>  <s_epik_cmdline>  (35) 
J2VwaWtfcHl0aG9uJywgJy1waHQnLCAnMi4wJywgJy1waCcsICc3LjAnLCAnLXRuJywgJzgnLCAnLW1hJywgJzIwMCcsICctaW1hZScsICc8aW5maWxlLm1hZT4nLCAnLW9tYWUnLCAnPG91dGZpbGUubWFlPic=

>  <r_epik_Ionization_Penalty>  (35) 
2.4846

>  <r_epik_Ionization_Penalty_Charging>  (35) 
0

>  <r_epik_Ionization_Penalty_Neutral>  (35) 
2.4846

>  <r_epik_State_Penalty>  (35) 
1.77755

>  <r_epik_Charging_Adjusted_Penalty>  (35) 
1.77755

>  <i_epik_Tot_Q>  (35) 
0

>  <i_epik_Tot_abs_Q>  (35) 
0

>  <s_epik_Chemistry_Notes>  (35) 
This compound contains an acetal/aminal-like group ( X-CH(R)-Y where X, Y are N, S, or O) that may be acid/base labile, releasing an aldehyde.

>  <s_lp_Force_Field>  (35) 
OPLS3e

>  <r_lp_Energy>  (35) 
104.875

>  <b_lp_Chiralities_Consistent>  (35) 
1

>  <s_lp_Variant>  (35) 
7:0-3

>  <s_i_glide_gridfile>  (35) 
pfpi4k_grid

>  <i_i_glide_lignum>  (35) 
15

>  <i_i_glide_rotatable_bonds>  (35) 
0

>  <r_i_docking_score>  (35) 
-4.18593

>  <r_i_glide_ligand_efficiency>  (35) 
-0.19933

>  <r_i_glide_ligand_efficiency_sa>  (35) 
-0.549937

>  <r_i_glide_ligand_efficiency_ln>  (35) 
-1.03496

>  <r_i_glide_gscore>  (35) 
-4.18593

>  <r_i_glide_lipo>  (35) 
-1.0323

>  <r_i_glide_hbond>  (35) 
0

>  <r_i_glide_metal>  (35) 
-0

>  <r_i_glide_rewards>  (35) 
-1.58402

>  <r_i_glide_evdw>  (35) 
-26.9247

>  <r_i_glide_ecoul>  (35) 
-1.48918

>  <r_i_glide_erotb>  (35) 
0

>  <r_i_glide_esite>  (35) 
0

>  <r_i_glide_emodel>  (35) 
-34.4923

>  <r_i_glide_energy>  (35) 
-28.4138

>  <r_i_glide_einternal>  (35) 
0

>  <r_i_glide_intrahb_reward>  (35) 
-0

>  <i_i_glide_confnum>  (35) 
1

>  <i_i_glide_posenum>  (35) 
4

>  <r_i_glide_eff_state_penalty>  (35) 
0

>  <ligand_id>  (35) 
7

>  <original_smiles>  (35) 
C1#CCN2C3CC4C(C5C6C7=CCC6C5(C7)C3)N4C2CC1

>  <smiles>  (35) 
[H]C1=C2C([H])([H])C34C([H])([H])C5([H])N6C([H])([H])C#CC([H])([H])C([H])([H])C6([H])N6C([H])(C5([H])[H])C6([H])C3([H])C2([H])C4([H])C1([H])[H]

$$$$
7:2:2
     RDKit          3D

 43 49  0  0  1  0  0  0  0  0999 V2000
   -1.2207    3.7670    8.6773 C   0  0  0  0  0  0  0  0  0  0  0  0
   -0.1210    3.1965    8.8160 C   0  0  0  0  0  0  0  0  0  0  0  0
    0.7168    2.3695    8.0040 C   0  0  0  0  0  0  0  0  0  0  0  0
   -0.0255    1.2274    7.4328 N   0  0  0  0  0  0  0  0  0  0  0  0
    0.9053    0.2457    6.8864 C   0  0  1  0  0  0  0  0  0  0  0  0
    0.1494   -1.0361    6.5495 C   0  0  0  0  0  0  0  0  0  0  0  0
   -1.0545   -0.8410    5.6657 C   0  0  2  0  0  0  0  0  0  0  0  0
   -1.1694    0.1283    4.5399 C   0  0  2  0  0  0  0  0  0  0  0  0
   -0.0201    0.9891    3.9911 C   0  0  2  0  0  0  0  0  0  0  0  0
    0.6074    0.5388    2.6559 C   0  0  1  0  0  0  0  0  0  0  0  0
    1.8184    1.3654    2.2094 C   0  0  0  0  0  0  0  0  0  0  0  0
    2.7265    0.5389    1.7102 C   0  0  0  0  0  0  0  0  0  0  0  0
    2.6626   -0.7591    2.4965 C   0  0  0  0  0  0  0  0  0  0  0  0
    1.4686   -0.4464    3.4279 C   0  0  1  0  0  0  0  0  0  0  0  0
    1.4640    0.8233    4.3560 C   0  0  1  0  0  0  0  0  0  0  0  0
    2.1999    1.9181    3.5647 C   0  0  0  0  0  0  0  0  0  0  0  0
    1.9238    0.7409    5.8160 C   0  0  0  0  0  0  0  0  0  0  0  0
   -1.7773    0.4268    5.8471 N   0  0  0  0  0  0  0  0  0  0  0  0
   -1.2268    1.5615    6.6217 C   0  0  1  0  0  0  0  0  0  0  0  0
   -2.4694    2.0414    7.5043 C   0  0  0  0  0  0  0  0  0  0  0  0
   -2.4646    3.5091    8.0438 C   0  0  0  0  0  0  0  0  0  0  0  0
    1.0388    2.9920    7.1569 H   0  0  0  0  0  0  0  0  0  0  0  0
    1.6254    2.0871    8.5612 H   0  0  0  0  0  0  0  0  0  0  0  0
    1.5267   -0.0217    7.7486 H   0  0  0  0  0  0  0  0  0  0  0  0
    0.8295   -1.7593    6.0976 H   0  0  0  0  0  0  0  0  0  0  0  0
   -0.1967   -1.4986    7.4729 H   0  0  0  0  0  0  0  0  0  0  0  0
   -1.6372   -1.7524    5.5267 H   0  0  0  0  0  0  0  0  0  0  0  0
   -1.8625   -0.1510    3.7537 H   0  0  0  0  0  0  0  0  0  0  0  0
   -0.3144    2.0300    3.9044 H   0  0  0  0  0  0  0  0  0  0  0  0
   -0.0160    0.1217    1.8660 H   0  0  0  0  0  0  0  0  0  0  0  0
    3.7179    0.8753    1.4152 H   0  0  0  0  0  0  0  0  0  0  0  0
    2.4782   -1.5985    1.8325 H   0  0  0  0  0  0  0  0  0  0  0  0
    3.5783   -0.9305    3.0501 H   0  0  0  0  0  0  0  0  0  0  0  0
    0.9416   -1.3176    3.8227 H   0  0  0  0  0  0  0  0  0  0  0  0
    3.2889    1.9336    3.7213 H   0  0  0  0  0  0  0  0  0  0  0  0
    1.7887    2.9134    3.7301 H   0  0  0  0  0  0  0  0  0  0  0  0
    2.3828    1.6771    6.1302 H   0  0  0  0  0  0  0  0  0  0  0  0
    2.7501    0.0305    5.8572 H   0  0  0  0  0  0  0  0  0  0  0  0
   -0.9871    2.3564    5.9244 H   0  0  0  0  0  0  0  0  0  0  0  0
   -3.3910    1.8987    6.9613 H   0  0  0  0  0  0  0  0  0  0  0  0
   -2.5265    1.3725    8.3687 H   0  0  0  0  0  0  0  0  0  0  0  0
   -3.3122    3.7161    8.7113 H   0  0  0  0  0  0  0  0  0  0  0  0
   -2.5233    4.1914    7.2031 H   0  0  0  0  0  0  0  0  0  0  0  0
  1 21  1  0
  1  2  3  0
  2  3  1  0
  3  4  1  0
  3 22  1  0
  3 23  1  0
  4 19  1  0
  4  5  1  0
  5 17  1  0
  5  6  1  0
  5 24  1  1
  6  7  1  0
  6 25  1  0
  6 26  1  0
  7 18  1  0
  7  8  1  0
  7 27  1  6
  8  9  1  0
  8 18  1  0
  8 28  1  6
  9 15  1  0
  9 10  1  0
  9 29  1  6
 10 14  1  0
 10 11  1  0
 10 30  1  6
 11 16  1  0
 11 12  2  0
 12 13  1  0
 12 31  1  0
 13 14  1  0
 13 32  1  0
 13 33  1  0
 14 15  1  0
 14 34  1  1
 15 16  1  0
 15 17  1  1
 16 35  1  0
 16 36  1  0
 17 37  1  0
 17 38  1  0
 18 19  1  0
 19 20  1  0
 19 39  1  6
 20 21  1  0
 20 40  1  0
 20 41  1  0
 21 42  1  0
 21 43  1  0
M  END
>  <i_m_ct_stereo_status>  (36) 
1

>  <s_m_source_file>  (36) 
/var/tmp/pbs.5076255.sched01/tmpj20d55gn/0_c3see42.sdf

>  <i_m_source_file_index>  (36) 
15

>  <i_lp_mmshare_version>  (36) 
48012

>  <i_f3d_flags>  (36) 
0

>  <s_epik_input>  (36) 
W0NIMl0xW0NIMl1DI0NbQ0gyXU4oW0NAQEhdKFtDSDJdMilbQ0gyXTMpW0NASF0xTjRbQ0BIXTJbQ0BASF00W0NAQEhdKFtDQEBdMzU2KVtDQEhdN0MoW0NIMl02KT1bQ0hdW0NIMl1bQ0BASF01Nw==

>  <s_epik_cmdline>  (36) 
J2VwaWtfcHl0aG9uJywgJy1waHQnLCAnMi4wJywgJy1waCcsICc3LjAnLCAnLXRuJywgJzgnLCAnLW1hJywgJzIwMCcsICctaW1hZScsICc8aW5maWxlLm1hZT4nLCAnLW9tYWUnLCAnPG91dGZpbGUubWFlPic=

>  <r_epik_Ionization_Penalty>  (36) 
2.4846

>  <r_epik_Ionization_Penalty_Charging>  (36) 
0

>  <r_epik_Ionization_Penalty_Neutral>  (36) 
2.4846

>  <r_epik_State_Penalty>  (36) 
1.77755

>  <r_epik_Charging_Adjusted_Penalty>  (36) 
1.77755

>  <i_epik_Tot_Q>  (36) 
0

>  <i_epik_Tot_abs_Q>  (36) 
0

>  <s_epik_Chemistry_Notes>  (36) 
This compound contains an acetal/aminal-like group ( X-CH(R)-Y where X, Y are N, S, or O) that may be acid/base labile, releasing an aldehyde.

>  <s_lp_Force_Field>  (36) 
OPLS3e

>  <r_lp_Energy>  (36) 
104.875

>  <b_lp_Chiralities_Consistent>  (36) 
1

>  <s_lp_Variant>  (36) 
7:0-3

>  <s_i_glide_gridfile>  (36) 
pfpi4k_grid

>  <i_i_glide_lignum>  (36) 
15

>  <i_i_glide_rotatable_bonds>  (36) 
0

>  <r_i_docking_score>  (36) 
-3.05473

>  <r_i_glide_ligand_efficiency>  (36) 
-0.145463

>  <r_i_glide_ligand_efficiency_sa>  (36) 
-0.401322

>  <r_i_glide_ligand_efficiency_ln>  (36) 
-0.755275

>  <r_i_glide_gscore>  (36) 
-3.05473

>  <r_i_glide_lipo>  (36) 
-0.108882

>  <r_i_glide_hbond>  (36) 
-0.0240673

>  <r_i_glide_metal>  (36) 
-0

>  <r_i_glide_rewards>  (36) 
-1.51097

>  <r_i_glide_evdw>  (36) 
-21.2507

>  <r_i_glide_ecoul>  (36) 
-2.15607

>  <r_i_glide_erotb>  (36) 
0

>  <r_i_glide_esite>  (36) 
-0.0248663

>  <r_i_glide_emodel>  (36) 
-26.9799

>  <r_i_glide_energy>  (36) 
-23.4067

>  <r_i_glide_einternal>  (36) 
0

>  <r_i_glide_intrahb_reward>  (36) 
-0

>  <i_i_glide_confnum>  (36) 
1

>  <i_i_glide_posenum>  (36) 
18

>  <r_i_glide_eff_state_penalty>  (36) 
0

>  <ligand_id>  (36) 
7

>  <original_smiles>  (36) 
C1#CCN2C3CC4C(C5C6C7=CCC6C5(C7)C3)N4C2CC1

>  <smiles>  (36) 
[H]C1=C2C([H])([H])C34C([H])([H])C5([H])N6C([H])([H])C#CC([H])([H])C([H])([H])C6([H])N6C([H])(C5([H])[H])C6([H])C3([H])C2([H])C4([H])C1([H])[H]

$$$$
8:0:0
     RDKit          3D

 12 13  0  0  1  0  0  0  0  0999 V2000
    1.8485  -10.4130    2.8822 C   0  0  0  0  0  0  0  0  0  0  0  0
    2.5061   -9.4331    2.1143 C   0  0  0  0  0  0  0  0  0  0  0  0
    1.9531   -8.2669    1.7176 N   0  0  0  0  0  0  0  0  0  0  0  0
    0.6652   -8.1079    2.1149 C   0  0  0  0  0  0  0  0  0  0  0  0
   -0.1773   -7.0967    1.9120 N   0  0  0  0  0  0  0  0  0  0  0  0
   -1.3602   -7.4671    2.5456 N   0  0  0  0  0  0  0  0  0  0  0  0
   -1.2992   -8.6330    3.1179 N   0  0  0  0  0  0  0  0  0  0  0  0
   -0.0403   -9.0554    2.8697 N   0  0  0  0  0  0  0  0  0  0  0  0
    0.5075  -10.2616    3.2974 C   0  0  0  0  0  0  0  0  0  0  0  0
    2.3792  -11.3166    3.1423 H   0  0  0  0  0  0  0  0  0  0  0  0
    3.5301   -9.5975    1.8062 H   0  0  0  0  0  0  0  0  0  0  0  0
   -0.0706  -10.9669    3.8796 H   0  0  0  0  0  0  0  0  0  0  0  0
  1  9  2  0
  1  2  1  0
  1 10  1  0
  2  3  2  0
  2 11  1  0
  3  4  1  0
  4  8  1  0
  4  5  2  0
  5  6  1  0
  6  7  2  0
  7  8  1  0
  8  9  1  0
  9 12  1  0
M  END
>  <i_m_ct_stereo_status>  (37) 
1

>  <s_m_source_file>  (37) 
/var/tmp/pbs.5076255.sched01/tmpj20d55gn/0_c3see42.sdf

>  <i_m_source_file_index>  (37) 
16

>  <i_lp_mmshare_version>  (37) 
48012

>  <i_f3d_flags>  (37) 
0

>  <s_epik_input>  (37) 
bjFbY0hdW2NIXVtjSF1uKGMxMilubm4y

>  <s_epik_cmdline>  (37) 
J2VwaWtfcHl0aG9uJywgJy1waHQnLCAnMi4wJywgJy1waCcsICc3LjAnLCAnLXRuJywgJzgnLCAnLW1hJywgJzIwMCcsICctaW1hZScsICc8aW5maWxlLm1hZT4nLCAnLW9tYWUnLCAnPG91dGZpbGUubWFlPic=

>  <r_lp_tautomer_probability>  (37) 
1

>  <r_epik_Ionization_Penalty>  (37) 
3.47943e-11

>  <r_epik_Ionization_Penalty_Charging>  (37) 
0

>  <r_epik_Ionization_Penalty_Neutral>  (37) 
3.47943e-11

>  <r_epik_State_Penalty>  (37) 
-0

>  <r_epik_Charging_Adjusted_Penalty>  (37) 
0

>  <i_epik_Tot_Q>  (37) 
0

>  <i_epik_Tot_abs_Q>  (37) 
0

>  <s_lp_Force_Field>  (37) 
OPLS3e

>  <r_lp_Energy>  (37) 
14.6899

>  <b_lp_Chiralities_Consistent>  (37) 
1

>  <s_lp_Variant>  (37) 
8:0-1

>  <s_i_glide_gridfile>  (37) 
pfpi4k_grid

>  <i_i_glide_lignum>  (37) 
16

>  <i_i_glide_rotatable_bonds>  (37) 
0

>  <r_i_docking_score>  (37) 
-3.98091

>  <r_i_glide_ligand_efficiency>  (37) 
-0.442324

>  <r_i_glide_ligand_efficiency_sa>  (37) 
-0.92007

>  <r_i_glide_ligand_efficiency_ln>  (37) 
-1.24512

>  <r_i_glide_gscore>  (37) 
-3.98091

>  <r_i_glide_lipo>  (37) 
-0.0957746

>  <r_i_glide_hbond>  (37) 
0

>  <r_i_glide_metal>  (37) 
-0

>  <r_i_glide_rewards>  (37) 
-2.25

>  <r_i_glide_evdw>  (37) 
-16.2133

>  <r_i_glide_ecoul>  (37) 
-3.44572

>  <r_i_glide_erotb>  (37) 
0

>  <r_i_glide_esite>  (37) 
-0.307614

>  <r_i_glide_emodel>  (37) 
-25.6428

>  <r_i_glide_energy>  (37) 
-19.659

>  <r_i_glide_einternal>  (37) 
0

>  <r_i_glide_intrahb_reward>  (37) 
-0

>  <i_i_glide_confnum>  (37) 
1

>  <i_i_glide_posenum>  (37) 
34

>  <r_i_glide_eff_state_penalty>  (37) 
0

>  <ligand_id>  (37) 
8

>  <original_smiles>  (37) 
c1cnc2nnnn2c1

>  <smiles>  (37) 
[H]c1nc2nnnn2c([H])c1[H]

$$$$
8:0:1
     RDKit          3D

 12 13  0  0  1  0  0  0  0  0999 V2000
    0.2407  -10.1176    3.0060 C   0  0  0  0  0  0  0  0  0  0  0  0
   -0.9620   -9.3967    2.8758 C   0  0  0  0  0  0  0  0  0  0  0  0
   -1.0607   -8.1442    2.3877 N   0  0  0  0  0  0  0  0  0  0  0  0
    0.1296   -7.6163    2.0083 C   0  0  0  0  0  0  0  0  0  0  0  0
    0.4035   -6.4260    1.4837 N   0  0  0  0  0  0  0  0  0  0  0  0
    1.7840   -6.4069    1.3025 N   0  0  0  0  0  0  0  0  0  0  0  0
    2.3692   -7.5061    1.6785 N   0  0  0  0  0  0  0  0  0  0  0  0
    1.3555   -8.2826    2.1184 N   0  0  0  0  0  0  0  0  0  0  0  0
    1.4859   -9.5734    2.6229 C   0  0  0  0  0  0  0  0  0  0  0  0
    0.2132  -11.1159    3.4166 H   0  0  0  0  0  0  0  0  0  0  0  0
   -1.8914   -9.8541    3.1832 H   0  0  0  0  0  0  0  0  0  0  0  0
    2.4497  -10.0580    2.6919 H   0  0  0  0  0  0  0  0  0  0  0  0
  1  9  2  0
  1  2  1  0
  1 10  1  0
  2  3  2  0
  2 11  1  0
  3  4  1  0
  4  8  1  0
  4  5  2  0
  5  6  1  0
  6  7  2  0
  7  8  1  0
  8  9  1  0
  9 12  1  0
M  END
>  <i_m_ct_stereo_status>  (38) 
1

>  <s_m_source_file>  (38) 
/var/tmp/pbs.5076255.sched01/tmpj20d55gn/0_c3see42.sdf

>  <i_m_source_file_index>  (38) 
16

>  <i_lp_mmshare_version>  (38) 
48012

>  <i_f3d_flags>  (38) 
0

>  <s_epik_input>  (38) 
bjFbY0hdW2NIXVtjSF1uKGMxMilubm4y

>  <s_epik_cmdline>  (38) 
J2VwaWtfcHl0aG9uJywgJy1waHQnLCAnMi4wJywgJy1waCcsICc3LjAnLCAnLXRuJywgJzgnLCAnLW1hJywgJzIwMCcsICctaW1hZScsICc8aW5maWxlLm1hZT4nLCAnLW9tYWUnLCAnPG91dGZpbGUubWFlPic=

>  <r_lp_tautomer_probability>  (38) 
1

>  <r_epik_Ionization_Penalty>  (38) 
3.47943e-11

>  <r_epik_Ionization_Penalty_Charging>  (38) 
0

>  <r_epik_Ionization_Penalty_Neutral>  (38) 
3.47943e-11

>  <r_epik_State_Penalty>  (38) 
-0

>  <r_epik_Charging_Adjusted_Penalty>  (38) 
0

>  <i_epik_Tot_Q>  (38) 
0

>  <i_epik_Tot_abs_Q>  (38) 
0

>  <s_lp_Force_Field>  (38) 
OPLS3e

>  <r_lp_Energy>  (38) 
14.6899

>  <b_lp_Chiralities_Consistent>  (38) 
1

>  <s_lp_Variant>  (38) 
8:0-1

>  <s_i_glide_gridfile>  (38) 
pfpi4k_grid

>  <i_i_glide_lignum>  (38) 
16

>  <i_i_glide_rotatable_bonds>  (38) 
0

>  <r_i_docking_score>  (38) 
-3.91551

>  <r_i_glide_ligand_efficiency>  (38) 
-0.435057

>  <r_i_glide_ligand_efficiency_sa>  (38) 
-0.904954

>  <r_i_glide_ligand_efficiency_ln>  (38) 
-1.22466

>  <r_i_glide_gscore>  (38) 
-3.91551

>  <r_i_glide_lipo>  (38) 
-0.077281

>  <r_i_glide_hbond>  (38) 
0

>  <r_i_glide_metal>  (38) 
-0

>  <r_i_glide_rewards>  (38) 
-2.25

>  <r_i_glide_evdw>  (38) 
-14.4358

>  <r_i_glide_ecoul>  (38) 
-4.08919

>  <r_i_glide_erotb>  (38) 
0

>  <r_i_glide_esite>  (38) 
-0.253061

>  <r_i_glide_emodel>  (38) 
-24.4107

>  <r_i_glide_energy>  (38) 
-18.525

>  <r_i_glide_einternal>  (38) 
0

>  <r_i_glide_intrahb_reward>  (38) 
-0

>  <i_i_glide_confnum>  (38) 
1

>  <i_i_glide_posenum>  (38) 
12

>  <r_i_glide_eff_state_penalty>  (38) 
0

>  <ligand_id>  (38) 
8

>  <original_smiles>  (38) 
c1cnc2nnnn2c1

>  <smiles>  (38) 
[H]c1nc2nnnn2c([H])c1[H]

$$$$
8:0:2
     RDKit          3D

 12 13  0  0  1  0  0  0  0  0999 V2000
    1.5031  -10.3229    2.9033 C   0  0  0  0  0  0  0  0  0  0  0  0
    0.1642   -9.9838    3.1758 C   0  0  0  0  0  0  0  0  0  0  0  0
   -0.4197   -8.8146    2.8498 N   0  0  0  0  0  0  0  0  0  0  0  0
    0.4095   -7.9518    2.2130 C   0  0  0  0  0  0  0  0  0  0  0  0
    0.1762   -6.7254    1.7500 N   0  0  0  0  0  0  0  0  0  0  0  0
    1.3836   -6.3014    1.2012 N   0  0  0  0  0  0  0  0  0  0  0  0
    2.3349   -7.1813    1.3029 N   0  0  0  0  0  0  0  0  0  0  0  0
    1.7504   -8.2288    1.9218 N   0  0  0  0  0  0  0  0  0  0  0  0
    2.3769   -9.4316    2.2436 C   0  0  0  0  0  0  0  0  0  0  0  0
    1.8712  -11.2941    3.2042 H   0  0  0  0  0  0  0  0  0  0  0  0
   -0.4731  -10.6934    3.6803 H   0  0  0  0  0  0  0  0  0  0  0  0
    3.4125   -9.6138    1.9980 H   0  0  0  0  0  0  0  0  0  0  0  0
  1  9  2  0
  1  2  1  0
  1 10  1  0
  2  3  2  0
  2 11  1  0
  3  4  1  0
  4  8  1  0
  4  5  2  0
  5  6  1  0
  6  7  2  0
  7  8  1  0
  8  9  1  0
  9 12  1  0
M  END
>  <i_m_ct_stereo_status>  (39) 
1

>  <s_m_source_file>  (39) 
/var/tmp/pbs.5076255.sched01/tmpj20d55gn/0_c3see42.sdf

>  <i_m_source_file_index>  (39) 
16

>  <i_lp_mmshare_version>  (39) 
48012

>  <i_f3d_flags>  (39) 
0

>  <s_epik_input>  (39) 
bjFbY0hdW2NIXVtjSF1uKGMxMilubm4y

>  <s_epik_cmdline>  (39) 
J2VwaWtfcHl0aG9uJywgJy1waHQnLCAnMi4wJywgJy1waCcsICc3LjAnLCAnLXRuJywgJzgnLCAnLW1hJywgJzIwMCcsICctaW1hZScsICc8aW5maWxlLm1hZT4nLCAnLW9tYWUnLCAnPG91dGZpbGUubWFlPic=

>  <r_lp_tautomer_probability>  (39) 
1

>  <r_epik_Ionization_Penalty>  (39) 
3.47943e-11

>  <r_epik_Ionization_Penalty_Charging>  (39) 
0

>  <r_epik_Ionization_Penalty_Neutral>  (39) 
3.47943e-11

>  <r_epik_State_Penalty>  (39) 
-0

>  <r_epik_Charging_Adjusted_Penalty>  (39) 
0

>  <i_epik_Tot_Q>  (39) 
0

>  <i_epik_Tot_abs_Q>  (39) 
0

>  <s_lp_Force_Field>  (39) 
OPLS3e

>  <r_lp_Energy>  (39) 
14.6899

>  <b_lp_Chiralities_Consistent>  (39) 
1

>  <s_lp_Variant>  (39) 
8:0-1

>  <s_i_glide_gridfile>  (39) 
pfpi4k_grid

>  <i_i_glide_lignum>  (39) 
16

>  <i_i_glide_rotatable_bonds>  (39) 
0

>  <r_i_docking_score>  (39) 
-3.90643

>  <r_i_glide_ligand_efficiency>  (39) 
-0.434048

>  <r_i_glide_ligand_efficiency_sa>  (39) 
-0.902857

>  <r_i_glide_ligand_efficiency_ln>  (39) 
-1.22182

>  <r_i_glide_gscore>  (39) 
-3.90643

>  <r_i_glide_lipo>  (39) 
-0.154441

>  <r_i_glide_hbond>  (39) 
0

>  <r_i_glide_metal>  (39) 
-0

>  <r_i_glide_rewards>  (39) 
-2.25

>  <r_i_glide_evdw>  (39) 
-13.9295

>  <r_i_glide_ecoul>  (39) 
-3.64994

>  <r_i_glide_erotb>  (39) 
0

>  <r_i_glide_esite>  (39) 
-0.258025

>  <r_i_glide_emodel>  (39) 
-23.451

>  <r_i_glide_energy>  (39) 
-17.5795

>  <r_i_glide_einternal>  (39) 
0

>  <r_i_glide_intrahb_reward>  (39) 
-0

>  <i_i_glide_confnum>  (39) 
2

>  <i_i_glide_posenum>  (39) 
19

>  <r_i_glide_eff_state_penalty>  (39) 
0

>  <ligand_id>  (39) 
8

>  <original_smiles>  (39) 
c1cnc2nnnn2c1

>  <smiles>  (39) 
[H]c1nc2nnnn2c([H])c1[H]

$$$$
9:0:0
     RDKit          3D

 52 57  0  0  1  0  0  0  0  0999 V2000
    5.3568   -3.1439   -2.8637 C   0  0  0  0  0  0  0  0  0  0  0  0
    4.5048   -3.7557   -1.9100 O   0  0  0  0  0  0  0  0  0  0  0  0
    4.4004   -2.8696   -0.7787 N   0  0  0  0  0  0  0  0  0  0  0  0
    3.0175   -2.8931   -0.3505 C   0  0  0  0  0  0  0  0  0  0  0  0
    3.1692   -2.3912    1.1144 C   0  0  1  0  0  0  0  0  0  0  0  0
    2.6162   -1.0810    0.8848 O   0  0  0  0  0  0  0  0  0  0  0  0
    2.3870   -3.0066    2.2404 C   0  0  1  0  0  0  0  0  0  0  0  0
    2.3805   -4.5544    2.1395 C   0  0  0  0  0  0  0  0  0  0  0  0
    1.2971   -5.1669    2.8103 C   0  0  0  0  0  0  0  0  0  0  0  0
    1.0702   -6.5488    2.7608 C   0  0  0  0  0  0  0  0  0  0  0  0
    1.9453   -7.3620    2.0310 C   0  0  0  0  0  0  0  0  0  0  0  0
    3.0310   -6.7861    1.3507 C   0  0  0  0  0  0  0  0  0  0  0  0
    3.2795   -5.3942    1.3650 C   0  0  0  0  0  0  0  0  0  0  0  0
    4.5625   -4.9920    0.5466 C   0  0  0  0  0  0  0  0  0  0  0  0
    5.0656   -3.4887    0.3600 C   0  0  2  0  0  0  0  0  0  0  0  0
    4.6772   -2.5789    1.5640 C   0  0  2  0  0  0  0  0  0  0  0  0
    5.1997   -3.4397    2.8344 C   0  0  0  0  0  0  0  0  0  0  0  0
    5.0354   -3.0264    4.3238 C   0  0  2  0  0  0  0  0  0  0  0  0
    5.4420   -4.1536    5.2880 C   0  0  0  0  0  0  0  0  0  0  0  0
    6.6025   -4.3330    5.6691 O   0  0  0  0  0  0  0  0  0  0  0  0
    4.3705   -4.8878    5.6655 O   0  0  0  0  0  0  0  0  0  0  0  0
    3.2402   -4.2495    5.3296 C   0  0  0  0  0  0  0  0  0  0  0  0
    2.0868   -4.6182    5.5574 O   0  0  0  0  0  0  0  0  0  0  0  0
    3.5811   -2.9108    4.7061 C   0  0  2  0  0  0  0  0  0  0  0  0
    2.7116   -2.2565    3.6234 C   0  0  1  0  0  0  0  0  0  0  0  0
    3.3495   -0.8372    3.5515 C   0  0  0  0  0  0  0  0  0  0  0  0
    4.4206   -0.3887    2.8362 C   0  0  0  0  0  0  0  0  0  0  0  0
    5.2209   -1.1276    1.7399 C   0  0  1  0  0  0  0  0  0  0  0  0
    6.6085   -1.0619    1.9993 O   0  0  0  0  0  0  0  0  0  0  0  0
    5.4351   -3.7812   -3.7445 H   0  0  0  0  0  0  0  0  0  0  0  0
    6.3597   -3.0187   -2.4619 H   0  0  0  0  0  0  0  0  0  0  0  0
    4.9873   -2.1709   -3.1919 H   0  0  0  0  0  0  0  0  0  0  0  0
    2.4386   -2.2550   -1.0165 H   0  0  0  0  0  0  0  0  0  0  0  0
    2.5589   -3.8759   -0.4509 H   0  0  0  0  0  0  0  0  0  0  0  0
    1.8998   -1.1031    0.2381 H   0  0  0  0  0  0  0  0  0  0  0  0
    1.3583   -2.7202    2.0465 H   0  0  0  0  0  0  0  0  0  0  0  0
    0.6156   -4.5417    3.3684 H   0  0  0  0  0  0  0  0  0  0  0  0
    0.2305   -6.9801    3.2855 H   0  0  0  0  0  0  0  0  0  0  0  0
    1.7827   -8.4269    1.9933 H   0  0  0  0  0  0  0  0  0  0  0  0
    3.6951   -7.4374    0.8005 H   0  0  0  0  0  0  0  0  0  0  0  0
    5.3845   -5.5207    1.0278 H   0  0  0  0  0  0  0  0  0  0  0  0
    4.5120   -5.4980   -0.4185 H   0  0  0  0  0  0  0  0  0  0  0  0
    6.1383   -3.4696    0.1618 H   0  0  0  0  0  0  0  0  0  0  0  0
    4.9067   -4.4758    2.8618 H   0  0  0  0  0  0  0  0  0  0  0  0
    6.2569   -3.5382    2.6525 H   0  0  0  0  0  0  0  0  0  0  0  0
    5.5869   -2.1214    4.5675 H   0  0  0  0  0  0  0  0  0  0  0  0
    3.5472   -2.2446    5.5682 H   0  0  0  0  0  0  0  0  0  0  0  0
    1.7388   -2.1101    4.0913 H   0  0  0  0  0  0  0  0  0  0  0  0
    2.8906   -0.1278    4.2262 H   0  0  0  0  0  0  0  0  0  0  0  0
    4.6945    0.6431    2.9816 H   0  0  0  0  0  0  0  0  0  0  0  0
    5.0878   -0.5738    0.8079 H   0  0  0  0  0  0  0  0  0  0  0  0
    6.9224   -0.1643    1.9553 H   0  0  0  0  0  0  0  0  0  0  0  0
  1  2  1  0
  1 30  1  0
  1 31  1  0
  1 32  1  0
  2  3  1  0
  3 15  1  0
  3  4  1  0
  4  5  1  0
  4 33  1  0
  4 34  1  0
  5 16  1  0
  5  6  1  6
  5  7  1  0
  6 35  1  0
  7 25  1  0
  7  8  1  0
  7 36  1  6
  8 13  2  0
  8  9  1  0
  9 10  2  0
  9 37  1  0
 10 11  1  0
 10 38  1  0
 11 12  2  0
 11 39  1  0
 12 13  1  0
 12 40  1  0
 13 14  1  0
 14 15  1  0
 14 41  1  0
 14 42  1  0
 15 16  1  0
 15 43  1  6
 16 28  1  0
 16 17  1  1
 17 44  1  0
 17 45  1  0
 17 18  1  0
 18 19  1  0
 18 46  1  1
 18 24  1  0
 19 20  2  0
 19 21  1  0
 21 22  1  0
 22 24  1  0
 22 23  2  0
 24 25  1  0
 24 47  1  1
 25 26  1  0
 25 48  1  1
 26 27  2  0
 26 49  1  0
 27 28  1  0
 27 50  1  0
 28 29  1  0
 28 51  1  6
 29 52  1  0
M  END
>  <i_m_ct_stereo_status>  (40) 
1

>  <s_m_source_file>  (40) 
/var/tmp/pbs.5076255.sched01/tmpj20d55gn/0_c3see42.sdf

>  <i_m_source_file_index>  (40) 
17

>  <i_lp_mmshare_version>  (40) 
48012

>  <i_f3d_flags>  (40) 
0

>  <s_epik_input>  (40) 
W0NIM11PTihbQ0gyXTEpW0NAQEhdMltDSDJdYyhbY0hdW2NIXVtjSF1bY0hdMyljM1tDQEhdKFtDQF0xKFtDQF0yNDUpW09IXSlbQ0BIXShbQ0hdPVtDSF1bQ0BIXTVbT0hdKWM2YyhbQ0gyXTQpYyhbT0hdKW9jNltPSF0=

>  <s_epik_cmdline>  (40) 
J2VwaWtfcHl0aG9uJywgJy1waHQnLCAnMi4wJywgJy1waCcsICc3LjAnLCAnLXRuJywgJzgnLCAnLW1hJywgJzIwMCcsICctaW1hZScsICc8aW5maWxlLm1hZT4nLCAnLW9tYWUnLCAnPG91dGZpbGUubWFlPic=

>  <r_lp_tautomer_probability>  (40) 
1

>  <r_epik_Ionization_Penalty>  (40) 
0.0106545

>  <r_epik_Ionization_Penalty_Charging>  (40) 
0

>  <r_epik_Ionization_Penalty_Neutral>  (40) 
0.0106545

>  <r_epik_State_Penalty>  (40) 
0.0081589

>  <r_epik_Charging_Adjusted_Penalty>  (40) 
0.0081589

>  <i_epik_Tot_Q>  (40) 
0

>  <i_epik_Tot_abs_Q>  (40) 
0

>  <s_epik_Chemistry_Notes>  (40) 
This compound has a N-S or N-O group and may undergo hydrolysis at high or low pH.

>  <s_lp_Force_Field>  (40) 
OPLS3e

>  <r_lp_Energy>  (40) 
109.47

>  <b_lp_Chiralities_Consistent>  (40) 
1

>  <s_lp_Variant>  (40) 
9:0-1

>  <s_i_glide_gridfile>  (40) 
pfpi4k_grid

>  <i_i_glide_lignum>  (40) 
17

>  <i_i_glide_rotatable_bonds>  (40) 
3

>  <r_i_docking_score>  (40) 
-3.87378

>  <r_i_glide_ligand_efficiency>  (40) 
-0.133579

>  <r_i_glide_ligand_efficiency_sa>  (40) 
-0.410395

>  <r_i_glide_ligand_efficiency_ln>  (40) 
-0.886997

>  <r_i_glide_gscore>  (40) 
-3.87378

>  <r_i_glide_lipo>  (40) 
-0.647176

>  <r_i_glide_hbond>  (40) 
-0.456

>  <r_i_glide_metal>  (40) 
-0

>  <r_i_glide_rewards>  (40) 
-0.705609

>  <r_i_glide_evdw>  (40) 
-15.4165

>  <r_i_glide_ecoul>  (40) 
-8.44856

>  <r_i_glide_erotb>  (40) 
0

>  <r_i_glide_esite>  (40) 
-0.026881

>  <r_i_glide_emodel>  (40) 
-29.7698

>  <r_i_glide_energy>  (40) 
-23.8651

>  <r_i_glide_einternal>  (40) 
1.01995

>  <r_i_glide_intrahb_reward>  (40) 
-0

>  <i_i_glide_confnum>  (40) 
2

>  <i_i_glide_posenum>  (40) 
36

>  <r_i_glide_eff_state_penalty>  (40) 
0

>  <ligand_id>  (40) 
9

>  <original_smiles>  (40) 
CON1CC2(O)C3c4ccccc4CC1C21Cc2c(O)oc(O)c2C3C=CC1O

>  <smiles>  (40) 
[H]OC1([H])C([H])=C([H])C2([H])C3([H])C(=O)OC(=O)C3([H])C([H])([H])C13C1([H])N(OC([H])([H])[H])C([H])([H])C3(O[H])C2([H])c2c([H])c([H])c([H])c([H])c2C1([H])[H]

$$$$
9:0:1
     RDKit          3D

 52 57  0  0  1  0  0  0  0  0999 V2000
    8.2041   -6.9453    0.9642 C   0  0  0  0  0  0  0  0  0  0  0  0
    6.8412   -6.7873    1.3328 O   0  0  0  0  0  0  0  0  0  0  0  0
    6.3612   -5.5625    0.7386 N   0  0  0  0  0  0  0  0  0  0  0  0
    4.9357   -5.7200    0.5489 C   0  0  0  0  0  0  0  0  0  0  0  0
    4.5131   -4.2289    0.4588 C   0  0  1  0  0  0  0  0  0  0  0  0
    4.2777   -4.2595   -0.9568 O   0  0  0  0  0  0  0  0  0  0  0  0
    3.2600   -3.7454    1.1240 C   0  0  1  0  0  0  0  0  0  0  0  0
    3.1403   -4.3008    2.5688 C   0  0  0  0  0  0  0  0  0  0  0  0
    1.8185   -4.3263    3.0682 C   0  0  0  0  0  0  0  0  0  0  0  0
    1.5050   -4.8496    4.3306 C   0  0  0  0  0  0  0  0  0  0  0  0
    2.5239   -5.3837    5.1249 C   0  0  0  0  0  0  0  0  0  0  0  0
    3.8470   -5.3921    4.6520 C   0  0  0  0  0  0  0  0  0  0  0  0
    4.1993   -4.8688    3.3835 C   0  0  0  0  0  0  0  0  0  0  0  0
    5.7418   -4.9675    3.0953 C   0  0  0  0  0  0  0  0  0  0  0  0
    6.4170   -4.4936    1.7297 C   0  0  2  0  0  0  0  0  0  0  0  0
    5.6583   -3.3109    1.0657 C   0  0  2  0  0  0  0  0  0  0  0  0
    5.5130   -2.2488    2.2779 C   0  0  0  0  0  0  0  0  0  0  0  0
    4.7449   -0.9074    2.1870 C   0  0  2  0  0  0  0  0  0  0  0  0
    4.6163   -0.2626    3.5682 C   0  0  0  0  0  0  0  0  0  0  0  0
    5.5343    0.3747    4.0911 O   0  0  0  0  0  0  0  0  0  0  0  0
    3.4083   -0.5212    4.1258 O   0  0  0  0  0  0  0  0  0  0  0  0
    2.5882   -1.0739    3.2081 C   0  0  0  0  0  0  0  0  0  0  0  0
    1.4258   -1.4287    3.3871 O   0  0  0  0  0  0  0  0  0  0  0  0
    3.2881   -1.0944    1.8597 C   0  0  2  0  0  0  0  0  0  0  0  0
    3.0445   -2.1854    0.8056 C   0  0  1  0  0  0  0  0  0  0  0  0
    3.7881   -1.5740   -0.4232 C   0  0  0  0  0  0  0  0  0  0  0  0
    5.1038   -1.6448   -0.7839 C   0  0  0  0  0  0  0  0  0  0  0  0
    6.2147   -2.5012   -0.1424 C   0  0  1  0  0  0  0  0  0  0  0  0
    7.3318   -1.6899    0.1642 O   0  0  0  0  0  0  0  0  0  0  0  0
    8.5908   -7.8705    1.3899 H   0  0  0  0  0  0  0  0  0  0  0  0
    8.8190   -6.1330    1.3512 H   0  0  0  0  0  0  0  0  0  0  0  0
    8.3407   -6.9979   -0.1168 H   0  0  0  0  0  0  0  0  0  0  0  0
    4.7429   -6.3234   -0.3412 H   0  0  0  0  0  0  0  0  0  0  0  0
    4.4657   -6.2721    1.3634 H   0  0  0  0  0  0  0  0  0  0  0  0
    3.6763   -4.9568   -1.1889 H   0  0  0  0  0  0  0  0  0  0  0  0
    2.4454   -4.2527    0.6029 H   0  0  0  0  0  0  0  0  0  0  0  0
    1.0140   -3.9085    2.4825 H   0  0  0  0  0  0  0  0  0  0  0  0
    0.4835   -4.8338    4.6806 H   0  0  0  0  0  0  0  0  0  0  0  0
    2.2901   -5.7904    6.0993 H   0  0  0  0  0  0  0  0  0  0  0  0
    4.6126   -5.8142    5.2862 H   0  0  0  0  0  0  0  0  0  0  0  0
    6.2160   -4.3945    3.8906 H   0  0  0  0  0  0  0  0  0  0  0  0
    6.0549   -5.9808    3.3457 H   0  0  0  0  0  0  0  0  0  0  0  0
    7.4670   -4.2517    1.8939 H   0  0  0  0  0  0  0  0  0  0  0  0
    5.1433   -2.6579    3.2069 H   0  0  0  0  0  0  0  0  0  0  0  0
    6.5297   -1.9671    2.5372 H   0  0  0  0  0  0  0  0  0  0  0  0
    5.2234   -0.2036    1.5076 H   0  0  0  0  0  0  0  0  0  0  0  0
    2.9512   -0.1565    1.4157 H   0  0  0  0  0  0  0  0  0  0  0  0
    1.9846   -2.1226    0.5811 H   0  0  0  0  0  0  0  0  0  0  0  0
    3.1475   -0.9602   -1.0382 H   0  0  0  0  0  0  0  0  0  0  0  0
    5.3996   -1.1126   -1.6755 H   0  0  0  0  0  0  0  0  0  0  0  0
    6.5639   -3.1924   -0.9108 H   0  0  0  0  0  0  0  0  0  0  0  0
    7.1127   -1.1570    0.9159 H   0  0  0  0  0  0  0  0  0  0  0  0
  1  2  1  0
  1 30  1  0
  1 31  1  0
  1 32  1  0
  2  3  1  0
  3 15  1  0
  3  4  1  0
  4  5  1  0
  4 33  1  0
  4 34  1  0
  5 16  1  0
  5  6  1  6
  5  7  1  0
  6 35  1  0
  7 25  1  0
  7  8  1  0
  7 36  1  6
  8 13  2  0
  8  9  1  0
  9 10  2  0
  9 37  1  0
 10 11  1  0
 10 38  1  0
 11 12  2  0
 11 39  1  0
 12 13  1  0
 12 40  1  0
 13 14  1  0
 14 15  1  0
 14 41  1  0
 14 42  1  0
 15 16  1  0
 15 43  1  1
 16 28  1  0
 16 17  1  1
 17 44  1  0
 17 45  1  0
 17 18  1  0
 18 19  1  0
 18 46  1  6
 18 24  1  0
 19 20  2  0
 19 21  1  0
 21 22  1  0
 22 24  1  0
 22 23  2  0
 24 25  1  0
 24 47  1  6
 25 26  1  0
 25 48  1  6
 26 27  2  0
 26 49  1  0
 27 28  1  0
 27 50  1  0
 28 29  1  0
 28 51  1  6
 29 52  1  0
M  END
>  <i_m_ct_stereo_status>  (41) 
1

>  <s_m_source_file>  (41) 
/var/tmp/pbs.5076255.sched01/tmpj20d55gn/0_c3see42.sdf

>  <i_m_source_file_index>  (41) 
17

>  <i_lp_mmshare_version>  (41) 
48012

>  <i_f3d_flags>  (41) 
0

>  <s_epik_input>  (41) 
W0NIM11PTihbQ0gyXTEpW0NAQEhdMltDSDJdYyhbY0hdW2NIXVtjSF1bY0hdMyljM1tDQEhdKFtDQF0xKFtDQF0yNDUpW09IXSlbQ0BIXShbQ0hdPVtDSF1bQ0BIXTVbT0hdKWM2YyhbQ0gyXTQpYyhbT0hdKW9jNltPSF0=

>  <s_epik_cmdline>  (41) 
J2VwaWtfcHl0aG9uJywgJy1waHQnLCAnMi4wJywgJy1waCcsICc3LjAnLCAnLXRuJywgJzgnLCAnLW1hJywgJzIwMCcsICctaW1hZScsICc8aW5maWxlLm1hZT4nLCAnLW9tYWUnLCAnPG91dGZpbGUubWFlPic=

>  <r_lp_tautomer_probability>  (41) 
1

>  <r_epik_Ionization_Penalty>  (41) 
0.0106545

>  <r_epik_Ionization_Penalty_Charging>  (41) 
0

>  <r_epik_Ionization_Penalty_Neutral>  (41) 
0.0106545

>  <r_epik_State_Penalty>  (41) 
0.0081589

>  <r_epik_Charging_Adjusted_Penalty>  (41) 
0.0081589

>  <i_epik_Tot_Q>  (41) 
0

>  <i_epik_Tot_abs_Q>  (41) 
0

>  <s_epik_Chemistry_Notes>  (41) 
This compound has a N-S or N-O group and may undergo hydrolysis at high or low pH.

>  <s_lp_Force_Field>  (41) 
OPLS3e

>  <r_lp_Energy>  (41) 
109.47

>  <b_lp_Chiralities_Consistent>  (41) 
1

>  <s_lp_Variant>  (41) 
9:0-1

>  <s_i_glide_gridfile>  (41) 
pfpi4k_grid

>  <i_i_glide_lignum>  (41) 
17

>  <i_i_glide_rotatable_bonds>  (41) 
3

>  <r_i_docking_score>  (41) 
-3.70646

>  <r_i_glide_ligand_efficiency>  (41) 
-0.127809

>  <r_i_glide_ligand_efficiency_sa>  (41) 
-0.39267

>  <r_i_glide_ligand_efficiency_ln>  (41) 
-0.848686

>  <r_i_glide_gscore>  (41) 
-3.70646

>  <r_i_glide_lipo>  (41) 
-0.42132

>  <r_i_glide_hbond>  (41) 
-0.376553

>  <r_i_glide_metal>  (41) 
-0

>  <r_i_glide_rewards>  (41) 
-0.932274

>  <r_i_glide_evdw>  (41) 
-21.5931

>  <r_i_glide_ecoul>  (41) 
-5.95956

>  <r_i_glide_erotb>  (41) 
0

>  <r_i_glide_esite>  (41) 
-0.0027283

>  <r_i_glide_emodel>  (41) 
-33.7231

>  <r_i_glide_energy>  (41) 
-27.5526

>  <r_i_glide_einternal>  (41) 
0.397285

>  <r_i_glide_intrahb_reward>  (41) 
-0

>  <i_i_glide_confnum>  (41) 
2

>  <i_i_glide_posenum>  (41) 
23

>  <r_i_glide_eff_state_penalty>  (41) 
0

>  <ligand_id>  (41) 
9

>  <original_smiles>  (41) 
CON1CC2(O)C3c4ccccc4CC1C21Cc2c(O)oc(O)c2C3C=CC1O

>  <smiles>  (41) 
[H]OC1([H])C([H])=C([H])C2([H])C3([H])C(=O)OC(=O)C3([H])C([H])([H])C13C1([H])N(OC([H])([H])[H])C([H])([H])C3(O[H])C2([H])c2c([H])c([H])c([H])c([H])c2C1([H])[H]

$$$$
9:0:2
     RDKit          3D

 52 57  0  0  1  0  0  0  0  0999 V2000
   10.2435   -2.6052    0.9349 C   0  0  0  0  0  0  0  0  0  0  0  0
    9.3286   -3.6079    0.6192 O   0  0  0  0  0  0  0  0  0  0  0  0
    8.1639   -2.9757    0.0441 N   0  0  0  0  0  0  0  0  0  0  0  0
    7.5961   -3.9805   -0.7615 C   0  0  0  0  0  0  0  0  0  0  0  0
    6.1045   -3.5871   -0.8715 C   0  0  1  0  0  0  0  0  0  0  0  0
    6.1576   -3.1629   -2.2435 O   0  0  0  0  0  0  0  0  0  0  0  0
    4.9683   -4.5724   -0.7890 C   0  0  1  0  0  0  0  0  0  0  0  0
    5.2265   -5.6181    0.3238 C   0  0  0  0  0  0  0  0  0  0  0  0
    4.5169   -6.8273    0.1502 C   0  0  0  0  0  0  0  0  0  0  0  0
    4.6271   -7.8951    1.0585 C   0  0  0  0  0  0  0  0  0  0  0  0
    5.5212   -7.8072    2.1333 C   0  0  0  0  0  0  0  0  0  0  0  0
    6.2860   -6.6361    2.3020 C   0  0  0  0  0  0  0  0  0  0  0  0
    6.1488   -5.5250    1.4199 C   0  0  0  0  0  0  0  0  0  0  0  0
    7.0282   -4.3117    1.8548 C   0  0  0  0  0  0  0  0  0  0  0  0
    7.1187   -2.9142    1.0569 C   0  0  2  0  0  0  0  0  0  0  0  0
    5.8247   -2.5809    0.3013 C   0  0  2  0  0  0  0  0  0  0  0  0
    4.7469   -2.6968    1.4929 C   0  0  0  0  0  0  0  0  0  0  0  0
    3.2414   -2.5013    1.3023 C   0  0  2  0  0  0  0  0  0  0  0  0
    2.5026   -2.9408    2.5604 C   0  0  0  0  0  0  0  0  0  0  0  0
    2.3119   -2.1703    3.5092 O   0  0  0  0  0  0  0  0  0  0  0  0
    2.1418   -4.2415    2.4982 O   0  0  0  0  0  0  0  0  0  0  0  0
    2.2210   -4.6610    1.2211 C   0  0  0  0  0  0  0  0  0  0  0  0
    1.8975   -5.7885    0.7850 O   0  0  0  0  0  0  0  0  0  0  0  0
    2.7136   -3.5328    0.3522 C   0  0  2  0  0  0  0  0  0  0  0  0
    3.5717   -3.7537   -0.8841 C   0  0  1  0  0  0  0  0  0  0  0  0
    3.5743   -2.3515   -1.5623 C   0  0  0  0  0  0  0  0  0  0  0  0
    4.3565   -1.2733   -1.3134 C   0  0  0  0  0  0  0  0  0  0  0  0
    5.5822   -1.2229   -0.3859 C   0  0  1  0  0  0  0  0  0  0  0  0
    5.4691   -0.1618    0.5211 O   0  0  0  0  0  0  0  0  0  0  0  0
   11.2114   -2.9725    1.2827 H   0  0  0  0  0  0  0  0  0  0  0  0
    9.8238   -1.9289    1.6417 H   0  0  0  0  0  0  0  0  0  0  0  0
   10.3284   -2.0083    0.0854 H   0  0  0  0  0  0  0  0  0  0  0  0
    8.1637   -4.0096   -1.6911 H   0  0  0  0  0  0  0  0  0  0  0  0
    7.7697   -4.9552   -0.3071 H   0  0  0  0  0  0  0  0  0  0  0  0
    5.2824   -2.9248   -2.4977 H   0  0  0  0  0  0  0  0  0  0  0  0
    5.0165   -5.1649   -1.7042 H   0  0  0  0  0  0  0  0  0  0  0  0
    3.8693   -6.8987   -0.6904 H   0  0  0  0  0  0  0  0  0  0  0  0
    4.0458   -8.7833    0.9088 H   0  0  0  0  0  0  0  0  0  0  0  0
    5.6375   -8.6324    2.8168 H   0  0  0  0  0  0  0  0  0  0  0  0
    6.9743   -6.5806    3.1234 H   0  0  0  0  0  0  0  0  0  0  0  0
    6.5972   -4.1066    2.8231 H   0  0  0  0  0  0  0  0  0  0  0  0
    8.0268   -4.6972    2.0842 H   0  0  0  0  0  0  0  0  0  0  0  0
    7.3190   -2.0784    1.7036 H   0  0  0  0  0  0  0  0  0  0  0  0
    4.7700   -3.6213    2.0393 H   0  0  0  0  0  0  0  0  0  0  0  0
    5.0418   -1.9611    2.2390 H   0  0  0  0  0  0  0  0  0  0  0  0
    2.9641   -1.4984    1.0053 H   0  0  0  0  0  0  0  0  0  0  0  0
    1.8016   -3.1310   -0.0368 H   0  0  0  0  0  0  0  0  0  0  0  0
    2.8909   -4.2946   -1.5226 H   0  0  0  0  0  0  0  0  0  0  0  0
    2.7631   -2.2162   -2.2678 H   0  0  0  0  0  0  0  0  0  0  0  0
    4.1615   -0.3604   -1.8693 H   0  0  0  0  0  0  0  0  0  0  0  0
    6.4406   -1.0198   -1.0141 H   0  0  0  0  0  0  0  0  0  0  0  0
    5.4135    0.6473    0.0220 H   0  0  0  0  0  0  0  0  0  0  0  0
  1  2  1  0
  1 30  1  0
  1 31  1  0
  1 32  1  0
  2  3  1  0
  3 15  1  0
  3  4  1  0
  4  5  1  0
  4 33  1  0
  4 34  1  0
  5 16  1  0
  5  6  1  6
  5  7  1  0
  6 35  1  0
  7 25  1  0
  7  8  1  0
  7 36  1  6
  8 13  2  0
  8  9  1  0
  9 10  2  0
  9 37  1  0
 10 11  1  0
 10 38  1  0
 11 12  2  0
 11 39  1  0
 12 13  1  0
 12 40  1  0
 13 14  1  0
 14 15  1  0
 14 41  1  0
 14 42  1  0
 15 16  1  0
 15 43  1  1
 16 28  1  0
 16 17  1  1
 17 44  1  0
 17 45  1  0
 17 18  1  0
 18 19  1  0
 18 46  1  6
 18 24  1  0
 19 20  2  0
 19 21  1  0
 21 22  1  0
 22 24  1  0
 22 23  2  0
 24 25  1  0
 24 47  1  6
 25 26  1  0
 25 48  1  6
 26 27  2  0
 26 49  1  0
 27 28  1  0
 27 50  1  0
 28 29  1  0
 28 51  1  6
 29 52  1  0
M  END
>  <i_m_ct_stereo_status>  (42) 
1

>  <s_m_source_file>  (42) 
/var/tmp/pbs.5076255.sched01/tmpj20d55gn/0_c3see42.sdf

>  <i_m_source_file_index>  (42) 
17

>  <i_lp_mmshare_version>  (42) 
48012

>  <i_f3d_flags>  (42) 
0

>  <s_epik_input>  (42) 
W0NIM11PTihbQ0gyXTEpW0NAQEhdMltDSDJdYyhbY0hdW2NIXVtjSF1bY0hdMyljM1tDQEhdKFtDQF0xKFtDQF0yNDUpW09IXSlbQ0BIXShbQ0hdPVtDSF1bQ0BIXTVbT0hdKWM2YyhbQ0gyXTQpYyhbT0hdKW9jNltPSF0=

>  <s_epik_cmdline>  (42) 
J2VwaWtfcHl0aG9uJywgJy1waHQnLCAnMi4wJywgJy1waCcsICc3LjAnLCAnLXRuJywgJzgnLCAnLW1hJywgJzIwMCcsICctaW1hZScsICc8aW5maWxlLm1hZT4nLCAnLW9tYWUnLCAnPG91dGZpbGUubWFlPic=

>  <r_lp_tautomer_probability>  (42) 
1

>  <r_epik_Ionization_Penalty>  (42) 
0.0106545

>  <r_epik_Ionization_Penalty_Charging>  (42) 
0

>  <r_epik_Ionization_Penalty_Neutral>  (42) 
0.0106545

>  <r_epik_State_Penalty>  (42) 
0.0081589

>  <r_epik_Charging_Adjusted_Penalty>  (42) 
0.0081589

>  <i_epik_Tot_Q>  (42) 
0

>  <i_epik_Tot_abs_Q>  (42) 
0

>  <s_epik_Chemistry_Notes>  (42) 
This compound has a N-S or N-O group and may undergo hydrolysis at high or low pH.

>  <s_lp_Force_Field>  (42) 
OPLS3e

>  <r_lp_Energy>  (42) 
109.47

>  <b_lp_Chiralities_Consistent>  (42) 
1

>  <s_lp_Variant>  (42) 
9:0-1

>  <s_i_glide_gridfile>  (42) 
pfpi4k_grid

>  <i_i_glide_lignum>  (42) 
17

>  <i_i_glide_rotatable_bonds>  (42) 
3

>  <r_i_docking_score>  (42) 
-3.4878

>  <r_i_glide_ligand_efficiency>  (42) 
-0.120269

>  <r_i_glide_ligand_efficiency_sa>  (42) 
-0.369504

>  <r_i_glide_ligand_efficiency_ln>  (42) 
-0.798618

>  <r_i_glide_gscore>  (42) 
-3.4878

>  <r_i_glide_lipo>  (42) 
-0.70908

>  <r_i_glide_hbond>  (42) 
-0.386621

>  <r_i_glide_metal>  (42) 
-0

>  <r_i_glide_rewards>  (42) 
-0.936241

>  <r_i_glide_evdw>  (42) 
-9.49427

>  <r_i_glide_ecoul>  (42) 
-6.18162

>  <r_i_glide_erotb>  (42) 
0

>  <r_i_glide_esite>  (42) 
-0.0539006

>  <r_i_glide_emodel>  (42) 
-19.9558

>  <r_i_glide_energy>  (42) 
-15.6759

>  <r_i_glide_einternal>  (42) 
0.990404

>  <r_i_glide_intrahb_reward>  (42) 
-0

>  <i_i_glide_confnum>  (42) 
1

>  <i_i_glide_posenum>  (42) 
2

>  <r_i_glide_eff_state_penalty>  (42) 
0

>  <ligand_id>  (42) 
9

>  <original_smiles>  (42) 
CON1CC2(O)C3c4ccccc4CC1C21Cc2c(O)oc(O)c2C3C=CC1O

>  <smiles>  (42) 
[H]OC1([H])C([H])=C([H])C2([H])C3([H])C(=O)OC(=O)C3([H])C([H])([H])C13C1([H])N(OC([H])([H])[H])C([H])([H])C3(O[H])C2([H])c2c([H])c([H])c([H])c([H])c2C1([H])[H]

$$$$
10:0:0
     RDKit          3D

 33 36  0  0  1  0  0  0  0  0999 V2000
    4.3506   -2.7442   -3.3689 C   0  0  0  0  0  0  0  0  0  0  0  0
    5.1602   -3.0491   -2.1342 C   0  0  0  0  0  0  0  0  0  0  0  0
    6.3551   -2.6247   -2.0398 N   0  0  0  0  0  0  0  0  0  0  0  0
    7.1348   -2.9060   -0.9623 C   0  0  0  0  0  0  0  0  0  0  0  0
    8.2897   -2.3486   -0.6298 N   0  0  0  0  0  0  0  0  0  0  0  0
    8.6187   -3.0790    0.4723 C   0  0  0  0  0  0  0  0  0  0  0  0
    7.7518   -4.0147    0.8356 N   0  0  0  0  0  0  0  0  0  0  0  0
    6.7632   -3.8441   -0.0658 N   0  0  0  0  0  0  0  0  0  0  0  0
    5.5485   -4.6397   -0.1342 C   0  0  1  0  0  0  0  0  0  0  0  0
    5.0492   -5.2039    1.1781 C   0  0  0  0  0  0  0  0  0  0  0  0
    5.1138   -4.5302    2.3380 N   0  0  0  0  0  0  0  0  0  0  0  0
    4.4872   -5.2472    3.3346 C   0  0  0  0  0  0  0  0  0  0  0  0
    4.2631   -4.8418    4.6718 C   0  0  0  0  0  0  0  0  0  0  0  0
    3.5855   -5.6910    5.5453 C   0  0  0  0  0  0  0  0  0  0  0  0
    3.1293   -6.9409    5.0635 C   0  0  0  0  0  0  0  0  0  0  0  0
    3.2627   -7.3522    3.7907 N   0  0  0  0  0  0  0  0  0  0  0  0
    3.9454   -6.4973    2.9606 C   0  0  0  0  0  0  0  0  0  0  0  0
    4.2207   -6.7682    1.2411 S   0  0  0  0  0  0  0  0  0  0  0  0
    4.4803   -3.8713   -1.0186 C   0  0  1  0  0  0  0  0  0  0  0  0
    3.4897   -2.9383   -0.3088 C   0  0  0  0  0  0  0  0  0  0  0  0
    2.2175   -3.0951   -0.7221 N   0  0  0  0  0  0  0  0  0  0  0  0
    3.8750   -1.7263    0.7569 S   0  0  0  0  0  0  0  0  0  0  0  0
    4.0352   -3.6589   -3.8898 H   0  0  0  0  0  0  0  0  0  0  0  0
    4.9677   -2.1547   -4.0553 H   0  0  0  0  0  0  0  0  0  0  0  0
    3.4684   -2.1331   -3.1382 H   0  0  0  0  0  0  0  0  0  0  0  0
    9.5163   -2.9248    1.0328 H   0  0  0  0  0  0  0  0  0  0  0  0
    5.8159   -5.5099   -0.7229 H   0  0  0  0  0  0  0  0  0  0  0  0
    4.6092   -3.8718    4.9859 H   0  0  0  0  0  0  0  0  0  0  0  0
    3.4321   -5.4164    6.5639 H   0  0  0  0  0  0  0  0  0  0  0  0
    2.6389   -7.6251    5.7379 H   0  0  0  0  0  0  0  0  0  0  0  0
    3.8625   -4.6431   -1.5040 H   0  0  0  0  0  0  0  0  0  0  0  0
    2.0256   -3.7129   -1.5116 H   0  0  0  0  0  0  0  0  0  0  0  0
    1.5890   -2.2989   -0.5379 H   0  0  0  0  0  0  0  0  0  0  0  0
  1  2  1  0
  1 23  1  0
  1 24  1  0
  1 25  1  0
  2 19  1  0
  2  3  2  0
  3  4  1  0
  4  8  1  0
  4  5  2  0
  5  6  1  0
  6  7  2  0
  6 26  1  0
  7  8  1  0
  8  9  1  0
  9 10  1  0
  9 19  1  0
  9 27  1  6
 10 18  1  0
 10 11  2  0
 11 12  1  0
 12 17  2  0
 12 13  1  0
 13 14  2  0
 13 28  1  0
 14 15  1  0
 14 29  1  0
 15 16  2  0
 15 30  1  0
 16 17  1  0
 17 18  1  0
 19 20  1  0
 19 31  1  6
 20 21  1  0
 20 22  2  0
 21 32  1  0
 21 33  1  0
M  END
>  <i_m_ct_stereo_status>  (43) 
1

>  <s_m_source_file>  (43) 
/var/tmp/pbs.5076255.sched01/tmpj20d55gn/0_c3see42.sdf

>  <i_m_source_file_index>  (43) 
19

>  <i_lp_mmshare_version>  (43) 
48012

>  <i_f3d_flags>  (43) 
0

>  <s_epik_input>  (43) 
bjFbY0hdbm4oYzEyKVtDQEhdKFtDQEhdKEMoPU4yKVtDSDNdKUMoPVMpW05IMl0pYyhuMylzYyhjMzQpbltjSF1bY0hdW2NIXTQ=

>  <s_epik_cmdline>  (43) 
J2VwaWtfcHl0aG9uJywgJy1waHQnLCAnMi4wJywgJy1waCcsICc3LjAnLCAnLXRuJywgJzgnLCAnLW1hJywgJzIwMCcsICctaW1hZScsICc8aW5maWxlLm1hZT4nLCAnLW9tYWUnLCAnPG91dGZpbGUubWFlPic=

>  <r_lp_tautomer_probability>  (43) 
1

>  <r_epik_Ionization_Penalty>  (43) 
2.14418e-05

>  <r_epik_Ionization_Penalty_Charging>  (43) 
0

>  <r_epik_Ionization_Penalty_Neutral>  (43) 
2.14418e-05

>  <r_epik_State_Penalty>  (43) 
-0

>  <r_epik_Charging_Adjusted_Penalty>  (43) 
0

>  <i_epik_Tot_Q>  (43) 
0

>  <i_epik_Tot_abs_Q>  (43) 
0

>  <s_epik_Chemistry_Notes>  (43) 
This compound has an imine and may undergo hydrolysis.

>  <s_lp_Force_Field>  (43) 
OPLS3e

>  <r_lp_Energy>  (43) 
28.9613

>  <b_lp_Chiralities_Consistent>  (43) 
1

>  <s_lp_Variant>  (43) 
10:0-1

>  <s_i_glide_gridfile>  (43) 
pfpi4k_grid

>  <i_i_glide_lignum>  (43) 
19

>  <i_i_glide_rotatable_bonds>  (43) 
2

>  <r_i_docking_score>  (43) 
-4.32161

>  <r_i_glide_ligand_efficiency>  (43) 
-0.196437

>  <r_i_glide_ligand_efficiency_sa>  (43) 
-0.550424

>  <r_i_glide_ligand_efficiency_ln>  (43) 
-1.05636

>  <r_i_glide_gscore>  (43) 
-4.32161

>  <r_i_glide_lipo>  (43) 
-0.339339

>  <r_i_glide_hbond>  (43) 
-0.2899

>  <r_i_glide_metal>  (43) 
-0

>  <r_i_glide_rewards>  (43) 
-1.67869

>  <r_i_glide_evdw>  (43) 
-22.9043

>  <r_i_glide_ecoul>  (43) 
-6.26817

>  <r_i_glide_erotb>  (43) 
0.173208

>  <r_i_glide_esite>  (43) 
-0.101452

>  <r_i_glide_emodel>  (43) 
-38.712

>  <r_i_glide_energy>  (43) 
-29.1725

>  <r_i_glide_einternal>  (43) 
0.0361381

>  <r_i_glide_intrahb_reward>  (43) 
-0

>  <i_i_glide_confnum>  (43) 
3

>  <i_i_glide_posenum>  (43) 
6

>  <r_i_glide_eff_state_penalty>  (43) 
0

>  <ligand_id>  (43) 
10

>  <original_smiles>  (43) 
CC1=Nc2ncnn2C(c2nc3cccnc3s2)C1C(N)=S

>  <smiles>  (43) 
[H]c1nc2n(n1)C([H])(c1nc3c([H])c([H])c([H])nc3s1)C([H])(C(=S)N([H])[H])C(C([H])([H])[H])=N2

$$$$
10:0:1
     RDKit          3D

 33 36  0  0  1  0  0  0  0  0999 V2000
    0.8177    1.3645    1.4225 C   0  0  0  0  0  0  0  0  0  0  0  0
    0.4459    0.7624    2.7550 C   0  0  0  0  0  0  0  0  0  0  0  0
    0.7097   -0.4623    2.9758 N   0  0  0  0  0  0  0  0  0  0  0  0
    0.3186   -1.0981    4.1273 C   0  0  0  0  0  0  0  0  0  0  0  0
    0.6433   -2.3155    4.5390 N   0  0  0  0  0  0  0  0  0  0  0  0
   -0.0476   -2.3746    5.7107 C   0  0  0  0  0  0  0  0  0  0  0  0
   -0.8362   -1.3438    5.9730 N   0  0  0  0  0  0  0  0  0  0  0  0
   -0.5234   -0.4777    4.9707 N   0  0  0  0  0  0  0  0  0  0  0  0
   -1.1335    0.8489    4.7820 C   0  0  1  0  0  0  0  0  0  0  0  0
   -1.5470    1.5764    6.0543 C   0  0  0  0  0  0  0  0  0  0  0  0
   -1.1718    1.2118    7.2864 N   0  0  0  0  0  0  0  0  0  0  0  0
   -1.5954    2.1378    8.2328 C   0  0  0  0  0  0  0  0  0  0  0  0
   -1.3401    2.1490    9.6224 C   0  0  0  0  0  0  0  0  0  0  0  0
   -1.9127    3.1528   10.4240 C   0  0  0  0  0  0  0  0  0  0  0  0
   -2.7038    4.1409    9.8103 C   0  0  0  0  0  0  0  0  0  0  0  0
   -2.9487    4.2074    8.4789 N   0  0  0  0  0  0  0  0  0  0  0  0
   -2.3932    3.2041    7.7342 C   0  0  0  0  0  0  0  0  0  0  0  0
   -2.5539    3.0401    5.9807 S   0  0  0  0  0  0  0  0  0  0  0  0
   -0.2532    1.6906    3.7731 C   0  0  1  0  0  0  0  0  0  0  0  0
    0.8532    2.6064    4.3479 C   0  0  0  0  0  0  0  0  0  0  0  0
    1.0540    3.7450    3.6631 N   0  0  0  0  0  0  0  0  0  0  0  0
    1.8262    2.3196    5.6733 S   0  0  0  0  0  0  0  0  0  0  0  0
   -0.0619    1.7532    0.9015 H   0  0  0  0  0  0  0  0  0  0  0  0
    1.2615    0.5850    0.8049 H   0  0  0  0  0  0  0  0  0  0  0  0
    1.5665    2.1535    1.5294 H   0  0  0  0  0  0  0  0  0  0  0  0
    0.0124   -3.2161    6.3947 H   0  0  0  0  0  0  0  0  0  0  0  0
   -2.0688    0.6498    4.2528 H   0  0  0  0  0  0  0  0  0  0  0  0
   -0.7165    1.3869   10.0576 H   0  0  0  0  0  0  0  0  0  0  0  0
   -1.7659    3.1447   11.4926 H   0  0  0  0  0  0  0  0  0  0  0  0
   -3.1638    4.9076   10.4155 H   0  0  0  0  0  0  0  0  0  0  0  0
   -0.9375    2.3597    3.2354 H   0  0  0  0  0  0  0  0  0  0  0  0
    0.6154    3.8890    2.7436 H   0  0  0  0  0  0  0  0  0  0  0  0
    1.7812    4.3662    3.9874 H   0  0  0  0  0  0  0  0  0  0  0  0
  1  2  1  0
  1 23  1  0
  1 24  1  0
  1 25  1  0
  2 19  1  0
  2  3  2  0
  3  4  1  0
  4  8  1  0
  4  5  2  0
  5  6  1  0
  6  7  2  0
  6 26  1  0
  7  8  1  0
  8  9  1  0
  9 10  1  0
  9 19  1  0
  9 27  1  6
 10 18  1  0
 10 11  2  0
 11 12  1  0
 12 17  2  0
 12 13  1  0
 13 14  2  0
 13 28  1  0
 14 15  1  0
 14 29  1  0
 15 16  2  0
 15 30  1  0
 16 17  1  0
 17 18  1  0
 19 20  1  0
 19 31  1  6
 20 21  1  0
 20 22  2  0
 21 32  1  0
 21 33  1  0
M  END
>  <i_m_ct_stereo_status>  (44) 
1

>  <s_m_source_file>  (44) 
/var/tmp/pbs.5076255.sched01/tmpj20d55gn/0_c3see42.sdf

>  <i_m_source_file_index>  (44) 
19

>  <i_lp_mmshare_version>  (44) 
48012

>  <i_f3d_flags>  (44) 
0

>  <s_epik_input>  (44) 
bjFbY0hdbm4oYzEyKVtDQEhdKFtDQEhdKEMoPU4yKVtDSDNdKUMoPVMpW05IMl0pYyhuMylzYyhjMzQpbltjSF1bY0hdW2NIXTQ=

>  <s_epik_cmdline>  (44) 
J2VwaWtfcHl0aG9uJywgJy1waHQnLCAnMi4wJywgJy1waCcsICc3LjAnLCAnLXRuJywgJzgnLCAnLW1hJywgJzIwMCcsICctaW1hZScsICc8aW5maWxlLm1hZT4nLCAnLW9tYWUnLCAnPG91dGZpbGUubWFlPic=

>  <r_lp_tautomer_probability>  (44) 
1

>  <r_epik_Ionization_Penalty>  (44) 
2.14418e-05

>  <r_epik_Ionization_Penalty_Charging>  (44) 
0

>  <r_epik_Ionization_Penalty_Neutral>  (44) 
2.14418e-05

>  <r_epik_State_Penalty>  (44) 
-0

>  <r_epik_Charging_Adjusted_Penalty>  (44) 
0

>  <i_epik_Tot_Q>  (44) 
0

>  <i_epik_Tot_abs_Q>  (44) 
0

>  <s_epik_Chemistry_Notes>  (44) 
This compound has an imine and may undergo hydrolysis.

>  <s_lp_Force_Field>  (44) 
OPLS3e

>  <r_lp_Energy>  (44) 
28.9613

>  <b_lp_Chiralities_Consistent>  (44) 
1

>  <s_lp_Variant>  (44) 
10:0-1

>  <s_i_glide_gridfile>  (44) 
pfpi4k_grid

>  <i_i_glide_lignum>  (44) 
19

>  <i_i_glide_rotatable_bonds>  (44) 
2

>  <r_i_docking_score>  (44) 
-3.73332

>  <r_i_glide_ligand_efficiency>  (44) 
-0.169696

>  <r_i_glide_ligand_efficiency_sa>  (44) 
-0.475496

>  <r_i_glide_ligand_efficiency_ln>  (44) 
-0.912559

>  <r_i_glide_gscore>  (44) 
-3.73332

>  <r_i_glide_lipo>  (44) 
-0.159733

>  <r_i_glide_hbond>  (44) 
-0.155707

>  <r_i_glide_metal>  (44) 
-0

>  <r_i_glide_rewards>  (44) 
-1.16315

>  <r_i_glide_evdw>  (44) 
-26.1441

>  <r_i_glide_ecoul>  (44) 
-6.26046

>  <r_i_glide_erotb>  (44) 
0.173208

>  <r_i_glide_esite>  (44) 
-0.181665

>  <r_i_glide_emodel>  (44) 
-40.1041

>  <r_i_glide_energy>  (44) 
-32.4046

>  <r_i_glide_einternal>  (44) 
1.93198

>  <r_i_glide_intrahb_reward>  (44) 
-0

>  <i_i_glide_confnum>  (44) 
3

>  <i_i_glide_posenum>  (44) 
1

>  <r_i_glide_eff_state_penalty>  (44) 
0

>  <ligand_id>  (44) 
10

>  <original_smiles>  (44) 
CC1=Nc2ncnn2C(c2nc3cccnc3s2)C1C(N)=S

>  <smiles>  (44) 
[H]c1nc2n(n1)C([H])(c1nc3c([H])c([H])c([H])nc3s1)C([H])(C(=S)N([H])[H])C(C([H])([H])[H])=N2

$$$$
10:0:2
     RDKit          3D

 33 36  0  0  1  0  0  0  0  0999 V2000
    1.5166    1.0148    1.7922 C   0  0  0  0  0  0  0  0  0  0  0  0
    1.5217    2.1374    2.8096 C   0  0  0  0  0  0  0  0  0  0  0  0
    2.2086    3.1910    2.5809 N   0  0  0  0  0  0  0  0  0  0  0  0
    2.2492    4.2346    3.4655 C   0  0  0  0  0  0  0  0  0  0  0  0
    2.7306    5.4632    3.2767 N   0  0  0  0  0  0  0  0  0  0  0  0
    2.5192    6.0058    4.5079 C   0  0  0  0  0  0  0  0  0  0  0  0
    2.0330    5.1828    5.4286 N   0  0  0  0  0  0  0  0  0  0  0  0
    1.7928    4.0569    4.7109 N   0  0  0  0  0  0  0  0  0  0  0  0
    1.2757    2.8039    5.2749 C   0  0  1  0  0  0  0  0  0  0  0  0
    0.3710    2.9392    6.4858 C   0  0  0  0  0  0  0  0  0  0  0  0
   -0.2855    4.0675    6.7962 N   0  0  0  0  0  0  0  0  0  0  0  0
   -1.1042    3.8701    7.9037 C   0  0  0  0  0  0  0  0  0  0  0  0
   -1.9795    4.7936    8.5117 C   0  0  0  0  0  0  0  0  0  0  0  0
   -2.7339    4.3971    9.6321 C   0  0  0  0  0  0  0  0  0  0  0  0
   -2.6009    3.0827   10.1188 C   0  0  0  0  0  0  0  0  0  0  0  0
   -1.7900    2.1484    9.5672 N   0  0  0  0  0  0  0  0  0  0  0  0
   -1.0664    2.5697    8.4832 C   0  0  0  0  0  0  0  0  0  0  0  0
    0.0493    1.5513    7.5611 S   0  0  0  0  0  0  0  0  0  0  0  0
    0.7028    1.9129    4.1039 C   0  0  1  0  0  0  0  0  0  0  0  0
   -0.7972    2.0507    3.7447 C   0  0  0  0  0  0  0  0  0  0  0  0
   -1.3877    0.8851    3.4229 N   0  0  0  0  0  0  0  0  0  0  0  0
   -1.7530    3.4220    3.7051 S   0  0  0  0  0  0  0  0  0  0  0  0
    1.9273    0.0912    2.2086 H   0  0  0  0  0  0  0  0  0  0  0  0
    2.1525    1.2968    0.9539 H   0  0  0  0  0  0  0  0  0  0  0  0
    0.5184    0.8338    1.3826 H   0  0  0  0  0  0  0  0  0  0  0  0
    2.7660    7.0355    4.7600 H   0  0  0  0  0  0  0  0  0  0  0  0
    2.1593    2.2785    5.6458 H   0  0  0  0  0  0  0  0  0  0  0  0
   -2.0506    5.7926    8.1172 H   0  0  0  0  0  0  0  0  0  0  0  0
   -3.3846    5.1139   10.1081 H   0  0  0  0  0  0  0  0  0  0  0  0
   -3.1652    2.7721   10.9871 H   0  0  0  0  0  0  0  0  0  0  0  0
    0.8449    0.8764    4.4223 H   0  0  0  0  0  0  0  0  0  0  0  0
   -0.8193    0.0556    3.3035 H   0  0  0  0  0  0  0  0  0  0  0  0
   -2.3803    0.9062    3.1634 H   0  0  0  0  0  0  0  0  0  0  0  0
  1  2  1  0
  1 23  1  0
  1 24  1  0
  1 25  1  0
  2 19  1  0
  2  3  2  0
  3  4  1  0
  4  8  1  0
  4  5  2  0
  5  6  1  0
  6  7  2  0
  6 26  1  0
  7  8  1  0
  8  9  1  0
  9 10  1  0
  9 19  1  0
  9 27  1  1
 10 18  1  0
 10 11  2  0
 11 12  1  0
 12 17  2  0
 12 13  1  0
 13 14  2  0
 13 28  1  0
 14 15  1  0
 14 29  1  0
 15 16  2  0
 15 30  1  0
 16 17  1  0
 17 18  1  0
 19 20  1  0
 19 31  1  1
 20 21  1  0
 20 22  2  0
 21 32  1  0
 21 33  1  0
M  END
>  <i_m_ct_stereo_status>  (45) 
1

>  <s_m_source_file>  (45) 
/var/tmp/pbs.5076255.sched01/tmpj20d55gn/0_c3see42.sdf

>  <i_m_source_file_index>  (45) 
19

>  <i_lp_mmshare_version>  (45) 
48012

>  <i_f3d_flags>  (45) 
0

>  <s_epik_input>  (45) 
bjFbY0hdbm4oYzEyKVtDQEhdKFtDQEhdKEMoPU4yKVtDSDNdKUMoPVMpW05IMl0pYyhuMylzYyhjMzQpbltjSF1bY0hdW2NIXTQ=

>  <s_epik_cmdline>  (45) 
J2VwaWtfcHl0aG9uJywgJy1waHQnLCAnMi4wJywgJy1waCcsICc3LjAnLCAnLXRuJywgJzgnLCAnLW1hJywgJzIwMCcsICctaW1hZScsICc8aW5maWxlLm1hZT4nLCAnLW9tYWUnLCAnPG91dGZpbGUubWFlPic=

>  <r_lp_tautomer_probability>  (45) 
1

>  <r_epik_Ionization_Penalty>  (45) 
2.14418e-05

>  <r_epik_Ionization_Penalty_Charging>  (45) 
0

>  <r_epik_Ionization_Penalty_Neutral>  (45) 
2.14418e-05

>  <r_epik_State_Penalty>  (45) 
-0

>  <r_epik_Charging_Adjusted_Penalty>  (45) 
0

>  <i_epik_Tot_Q>  (45) 
0

>  <i_epik_Tot_abs_Q>  (45) 
0

>  <s_epik_Chemistry_Notes>  (45) 
This compound has an imine and may undergo hydrolysis.

>  <s_lp_Force_Field>  (45) 
OPLS3e

>  <r_lp_Energy>  (45) 
28.9613

>  <b_lp_Chiralities_Consistent>  (45) 
1

>  <s_lp_Variant>  (45) 
10:0-1

>  <s_i_glide_gridfile>  (45) 
pfpi4k_grid

>  <i_i_glide_lignum>  (45) 
19

>  <i_i_glide_rotatable_bonds>  (45) 
2

>  <r_i_docking_score>  (45) 
-3.67215

>  <r_i_glide_ligand_efficiency>  (45) 
-0.166916

>  <r_i_glide_ligand_efficiency_sa>  (45) 
-0.467705

>  <r_i_glide_ligand_efficiency_ln>  (45) 
-0.897607

>  <r_i_glide_gscore>  (45) 
-3.67215

>  <r_i_glide_lipo>  (45) 
-0.0127113

>  <r_i_glide_hbond>  (45) 
-0.32

>  <r_i_glide_metal>  (45) 
-0

>  <r_i_glide_rewards>  (45) 
-1.16315

>  <r_i_glide_evdw>  (45) 
-25.7861

>  <r_i_glide_ecoul>  (45) 
-5.52144

>  <r_i_glide_erotb>  (45) 
0.173208

>  <r_i_glide_esite>  (45) 
-0.231979

>  <r_i_glide_emodel>  (45) 
-39.3703

>  <r_i_glide_energy>  (45) 
-31.3075

>  <r_i_glide_einternal>  (45) 
1.10217

>  <r_i_glide_intrahb_reward>  (45) 
-0

>  <i_i_glide_confnum>  (45) 
1

>  <i_i_glide_posenum>  (45) 
26

>  <r_i_glide_eff_state_penalty>  (45) 
0

>  <ligand_id>  (45) 
10

>  <original_smiles>  (45) 
CC1=Nc2ncnn2C(c2nc3cccnc3s2)C1C(N)=S

>  <smiles>  (45) 
[H]c1nc2n(n1)C([H])(c1nc3c([H])c([H])c([H])nc3s1)C([H])(C(=S)N([H])[H])C(C([H])([H])[H])=N2

$$$$
11:0:0
     RDKit          3D

 25 26  0  0  1  0  0  0  0  0999 V2000
    3.5164   -3.5641   -0.5784 C   0  0  0  0  0  0  0  0  0  0  0  0
    4.5659   -2.5567   -1.0889 C   0  0  2  0  0  0  0  0  0  0  0  0
    4.4185   -2.3390   -2.6059 C   0  0  0  0  0  0  0  0  0  0  0  0
    4.7896   -3.1996   -3.4066 O   0  0  0  0  0  0  0  0  0  0  0  0
    3.8902   -1.1673   -2.9890 N   0  0  0  0  0  0  0  0  0  0  0  0
    3.7583   -0.7359   -4.3394 C   0  0  0  0  0  0  0  0  0  0  0  0
    4.0554    0.7146   -4.6130 C   0  0  0  0  0  0  0  0  0  0  0  0
    2.6421    0.2184   -4.7109 C   0  0  0  0  0  0  0  0  0  0  0  0
    5.9298   -2.9654   -0.7261 N   0  0  0  0  0  0  0  0  0  0  0  0
    6.3708   -3.9387    0.0833 C   0  0  0  0  0  0  0  0  0  0  0  0
    7.6872   -3.9668    0.2384 N   0  0  0  0  0  0  0  0  0  0  0  0
    8.0275   -2.9126   -0.5580 C   0  0  0  0  0  0  0  0  0  0  0  0
    7.0166   -2.2570   -1.1250 N   0  0  0  0  0  0  0  0  0  0  0  0
    2.4935   -3.2575   -0.8161 H   0  0  0  0  0  0  0  0  0  0  0  0
    3.5724   -3.6676    0.5075 H   0  0  0  0  0  0  0  0  0  0  0  0
    3.6857   -4.5525   -1.0112 H   0  0  0  0  0  0  0  0  0  0  0  0
    4.3768   -1.6034   -0.5930 H   0  0  0  0  0  0  0  0  0  0  0  0
    3.5177   -0.5511   -2.2801 H   0  0  0  0  0  0  0  0  0  0  0  0
    4.0347   -1.4395   -5.1187 H   0  0  0  0  0  0  0  0  0  0  0  0
    4.2994    1.3504   -3.7661 H   0  0  0  0  0  0  0  0  0  0  0  0
    4.5864    0.9306   -5.5305 H   0  0  0  0  0  0  0  0  0  0  0  0
    2.2287    0.1497   -5.7157 H   0  0  0  0  0  0  0  0  0  0  0  0
    1.9562    0.5434   -3.9372 H   0  0  0  0  0  0  0  0  0  0  0  0
    5.7191   -4.6338    0.5893 H   0  0  0  0  0  0  0  0  0  0  0  0
    9.0562   -2.6026   -0.6917 H   0  0  0  0  0  0  0  0  0  0  0  0
  1  2  1  0
  1 14  1  0
  1 15  1  0
  1 16  1  0
  2  3  1  0
  2  9  1  0
  2 17  1  1
  3  4  2  0
  3  5  1  0
  5  6  1  0
  5 18  1  0
  6  8  1  0
  6  7  1  0
  6 19  1  0
  7  8  1  0
  7 20  1  0
  7 21  1  0
  8 22  1  0
  8 23  1  0
  9 13  1  0
  9 10  1  0
 10 11  2  0
 10 24  1  0
 11 12  1  0
 12 13  2  0
 12 25  1  0
M  END
>  <i_m_ct_stereo_status>  (46) 
1

>  <s_m_source_file>  (46) 
/var/tmp/pbs.5076255.sched01/tmpj20d55gn/0_c3see42.sdf

>  <i_m_source_file_index>  (46) 
20

>  <i_lp_mmshare_version>  (46) 
48012

>  <i_f3d_flags>  (46) 
0

>  <s_epik_input>  (46) 
bjFbY0hdbltjSF1uMVtDQEhdKFtDSDNdKUMoPU8pW05IXVtDSF0yW0NIMl1bQ0gyXTI=

>  <s_epik_cmdline>  (46) 
J2VwaWtfcHl0aG9uJywgJy1waHQnLCAnMi4wJywgJy1waCcsICc3LjAnLCAnLXRuJywgJzgnLCAnLW1hJywgJzIwMCcsICctaW1hZScsICc8aW5maWxlLm1hZT4nLCAnLW9tYWUnLCAnPG91dGZpbGUubWFlPic=

>  <r_lp_tautomer_probability>  (46) 
1

>  <r_epik_Ionization_Penalty>  (46) 
1.23061e-05

>  <r_epik_Ionization_Penalty_Charging>  (46) 
0

>  <r_epik_Ionization_Penalty_Neutral>  (46) 
1.23061e-05

>  <r_epik_State_Penalty>  (46) 
-0

>  <r_epik_Charging_Adjusted_Penalty>  (46) 
0

>  <i_epik_Tot_Q>  (46) 
0

>  <i_epik_Tot_abs_Q>  (46) 
0

>  <s_lp_Force_Field>  (46) 
OPLS3e

>  <r_lp_Energy>  (46) 
6.94908

>  <b_lp_Chiralities_Consistent>  (46) 
1

>  <s_lp_Variant>  (46) 
11:0-1

>  <s_i_glide_gridfile>  (46) 
pfpi4k_grid

>  <i_i_glide_lignum>  (46) 
20

>  <i_i_glide_rotatable_bonds>  (46) 
4

>  <r_i_docking_score>  (46) 
-3.84363

>  <r_i_glide_ligand_efficiency>  (46) 
-0.295664

>  <r_i_glide_ligand_efficiency_sa>  (46) 
-0.695205

>  <r_i_glide_ligand_efficiency_ln>  (46) 
-1.07817

>  <r_i_glide_gscore>  (46) 
-3.84363

>  <r_i_glide_lipo>  (46) 
-0.39806

>  <r_i_glide_hbond>  (46) 
-0.16

>  <r_i_glide_metal>  (46) 
-0

>  <r_i_glide_rewards>  (46) 
-2.56899

>  <r_i_glide_evdw>  (46) 
-22.9314

>  <r_i_glide_ecoul>  (46) 
-3.60268

>  <r_i_glide_erotb>  (46) 
0.970387

>  <r_i_glide_esite>  (46) 
0

>  <r_i_glide_emodel>  (46) 
-31.9165

>  <r_i_glide_energy>  (46) 
-26.5341

>  <r_i_glide_einternal>  (46) 
2.41

>  <r_i_glide_intrahb_reward>  (46) 
-0

>  <i_i_glide_confnum>  (46) 
2

>  <i_i_glide_posenum>  (46) 
10

>  <r_i_glide_eff_state_penalty>  (46) 
0

>  <ligand_id>  (46) 
11

>  <original_smiles>  (46) 
CC(C(=O)NC1CC1)n1cncn1

>  <smiles>  (46) 
[H]c1nc([H])n(C([H])(C(=O)N([H])C2([H])C([H])([H])C2([H])[H])C([H])([H])[H])n1

$$$$
11:0:1
     RDKit          3D

 25 26  0  0  1  0  0  0  0  0999 V2000
    3.5183   -3.8068   -0.6149 C   0  0  0  0  0  0  0  0  0  0  0  0
    3.6167   -2.3096   -0.9457 C   0  0  2  0  0  0  0  0  0  0  0  0
    3.9713   -2.0514   -2.4179 C   0  0  0  0  0  0  0  0  0  0  0  0
    4.7161   -2.8135   -3.0325 O   0  0  0  0  0  0  0  0  0  0  0  0
    3.4185   -0.9669   -2.9806 N   0  0  0  0  0  0  0  0  0  0  0  0
    3.5572   -0.6216   -4.3515 C   0  0  0  0  0  0  0  0  0  0  0  0
    3.9446    0.7964   -4.6732 C   0  0  0  0  0  0  0  0  0  0  0  0
    2.5459    0.3290   -4.9405 C   0  0  0  0  0  0  0  0  0  0  0  0
    4.5441   -1.6229   -0.0638 N   0  0  0  0  0  0  0  0  0  0  0  0
    4.3204   -0.6448    0.8163 C   0  0  0  0  0  0  0  0  0  0  0  0
    5.3988   -0.2784    1.4959 N   0  0  0  0  0  0  0  0  0  0  0  0
    6.3188   -1.1131    0.9158 C   0  0  0  0  0  0  0  0  0  0  0  0
    5.8625   -1.9343   -0.0223 N   0  0  0  0  0  0  0  0  0  0  0  0
    2.7587   -4.2510   -1.2536 H   0  0  0  0  0  0  0  0  0  0  0  0
    3.2166   -3.9807    0.4196 H   0  0  0  0  0  0  0  0  0  0  0  0
    4.4629   -4.3240   -0.7805 H   0  0  0  0  0  0  0  0  0  0  0  0
    2.6258   -1.8976   -0.7643 H   0  0  0  0  0  0  0  0  0  0  0  0
    2.7825   -0.4027   -2.4296 H   0  0  0  0  0  0  0  0  0  0  0  0
    3.8853   -1.4038   -5.0366 H   0  0  0  0  0  0  0  0  0  0  0  0
    4.1082    1.4612   -3.8297 H   0  0  0  0  0  0  0  0  0  0  0  0
    4.5998    0.9420   -5.5224 H   0  0  0  0  0  0  0  0  0  0  0  0
    2.2787    0.1622   -5.9722 H   0  0  0  0  0  0  0  0  0  0  0  0
    1.7567    0.7352   -4.3178 H   0  0  0  0  0  0  0  0  0  0  0  0
    3.3465   -0.1993    0.9706 H   0  0  0  0  0  0  0  0  0  0  0  0
    7.3652   -1.0745    1.1791 H   0  0  0  0  0  0  0  0  0  0  0  0
  1  2  1  0
  1 14  1  0
  1 15  1  0
  1 16  1  0
  2  3  1  0
  2  9  1  0
  2 17  1  6
  3  4  2  0
  3  5  1  0
  5  6  1  0
  5 18  1  0
  6  8  1  0
  6  7  1  0
  6 19  1  0
  7  8  1  0
  7 20  1  0
  7 21  1  0
  8 22  1  0
  8 23  1  0
  9 13  1  0
  9 10  1  0
 10 11  2  0
 10 24  1  0
 11 12  1  0
 12 13  2  0
 12 25  1  0
M  END
>  <i_m_ct_stereo_status>  (47) 
1

>  <s_m_source_file>  (47) 
/var/tmp/pbs.5076255.sched01/tmpj20d55gn/0_c3see42.sdf

>  <i_m_source_file_index>  (47) 
20

>  <i_lp_mmshare_version>  (47) 
48012

>  <i_f3d_flags>  (47) 
0

>  <s_epik_input>  (47) 
bjFbY0hdbltjSF1uMVtDQEhdKFtDSDNdKUMoPU8pW05IXVtDSF0yW0NIMl1bQ0gyXTI=

>  <s_epik_cmdline>  (47) 
J2VwaWtfcHl0aG9uJywgJy1waHQnLCAnMi4wJywgJy1waCcsICc3LjAnLCAnLXRuJywgJzgnLCAnLW1hJywgJzIwMCcsICctaW1hZScsICc8aW5maWxlLm1hZT4nLCAnLW9tYWUnLCAnPG91dGZpbGUubWFlPic=

>  <r_lp_tautomer_probability>  (47) 
1

>  <r_epik_Ionization_Penalty>  (47) 
1.23061e-05

>  <r_epik_Ionization_Penalty_Charging>  (47) 
0

>  <r_epik_Ionization_Penalty_Neutral>  (47) 
1.23061e-05

>  <r_epik_State_Penalty>  (47) 
-0

>  <r_epik_Charging_Adjusted_Penalty>  (47) 
0

>  <i_epik_Tot_Q>  (47) 
0

>  <i_epik_Tot_abs_Q>  (47) 
0

>  <s_lp_Force_Field>  (47) 
OPLS3e

>  <r_lp_Energy>  (47) 
6.94908

>  <b_lp_Chiralities_Consistent>  (47) 
1

>  <s_lp_Variant>  (47) 
11:0-1

>  <s_i_glide_gridfile>  (47) 
pfpi4k_grid

>  <i_i_glide_lignum>  (47) 
20

>  <i_i_glide_rotatable_bonds>  (47) 
4

>  <r_i_docking_score>  (47) 
-3.64848

>  <r_i_glide_ligand_efficiency>  (47) 
-0.280652

>  <r_i_glide_ligand_efficiency_sa>  (47) 
-0.659907

>  <r_i_glide_ligand_efficiency_ln>  (47) 
-1.02343

>  <r_i_glide_gscore>  (47) 
-3.64848

>  <r_i_glide_lipo>  (47) 
-0.346039

>  <r_i_glide_hbond>  (47) 
-0.17913

>  <r_i_glide_metal>  (47) 
-0

>  <r_i_glide_rewards>  (47) 
-2.42524

>  <r_i_glide_evdw>  (47) 
-21.782

>  <r_i_glide_ecoul>  (47) 
-3.68951

>  <r_i_glide_erotb>  (47) 
0.970387

>  <r_i_glide_esite>  (47) 
-0.0259285

>  <r_i_glide_emodel>  (47) 
-31.3041

>  <r_i_glide_energy>  (47) 
-25.4715

>  <r_i_glide_einternal>  (47) 
1.0188

>  <r_i_glide_intrahb_reward>  (47) 
-0

>  <i_i_glide_confnum>  (47) 
1

>  <i_i_glide_posenum>  (47) 
8

>  <r_i_glide_eff_state_penalty>  (47) 
0

>  <ligand_id>  (47) 
11

>  <original_smiles>  (47) 
CC(C(=O)NC1CC1)n1cncn1

>  <smiles>  (47) 
[H]c1nc([H])n(C([H])(C(=O)N([H])C2([H])C([H])([H])C2([H])[H])C([H])([H])[H])n1

$$$$
11:0:2
     RDKit          3D

 25 26  0  0  1  0  0  0  0  0999 V2000
    3.5168   -3.9703   -0.7113 C   0  0  0  0  0  0  0  0  0  0  0  0
    3.8616   -2.5170   -1.0703 C   0  0  2  0  0  0  0  0  0  0  0  0
    3.9328   -2.2878   -2.5857 C   0  0  0  0  0  0  0  0  0  0  0  0
    4.3985   -3.1476   -3.3338 O   0  0  0  0  0  0  0  0  0  0  0  0
    3.4977   -1.1004   -3.0331 N   0  0  0  0  0  0  0  0  0  0  0  0
    3.5584   -0.6774   -4.3929 C   0  0  0  0  0  0  0  0  0  0  0  0
    3.9841    0.7495   -4.6469 C   0  0  0  0  0  0  0  0  0  0  0  0
    2.5582    0.3413   -4.8891 C   0  0  0  0  0  0  0  0  0  0  0  0
    5.1279   -2.1423   -0.4509 N   0  0  0  0  0  0  0  0  0  0  0  0
    6.3816   -2.5264   -0.7135 C   0  0  0  0  0  0  0  0  0  0  0  0
    7.2841   -1.9785    0.0868 N   0  0  0  0  0  0  0  0  0  0  0  0
    6.4585   -1.2704    0.9140 C   0  0  0  0  0  0  0  0  0  0  0  0
    5.1589   -1.3165    0.6220 N   0  0  0  0  0  0  0  0  0  0  0  0
    2.5591   -4.2535   -1.1430 H   0  0  0  0  0  0  0  0  0  0  0  0
    3.4503   -4.1058    0.3703 H   0  0  0  0  0  0  0  0  0  0  0  0
    4.2775   -4.6610   -1.0795 H   0  0  0  0  0  0  0  0  0  0  0  0
    3.0698   -1.8810   -0.6662 H   0  0  0  0  0  0  0  0  0  0  0  0
    3.0750   -0.4651   -2.3699 H   0  0  0  0  0  0  0  0  0  0  0  0
    3.8518   -1.4211   -5.1287 H   0  0  0  0  0  0  0  0  0  0  0  0
    4.2050    1.3573   -3.7744 H   0  0  0  0  0  0  0  0  0  0  0  0
    4.5916    0.9508   -5.5199 H   0  0  0  0  0  0  0  0  0  0  0  0
    2.2317    0.2697   -5.9201 H   0  0  0  0  0  0  0  0  0  0  0  0
    1.8101    0.7046   -4.1944 H   0  0  0  0  0  0  0  0  0  0  0  0
    6.6410   -3.2141   -1.5073 H   0  0  0  0  0  0  0  0  0  0  0  0
    6.8195   -0.6996    1.7532 H   0  0  0  0  0  0  0  0  0  0  0  0
  1  2  1  0
  1 14  1  0
  1 15  1  0
  1 16  1  0
  2  3  1  0
  2  9  1  0
  2 17  1  1
  3  4  2  0
  3  5  1  0
  5  6  1  0
  5 18  1  0
  6  8  1  0
  6  7  1  0
  6 19  1  0
  7  8  1  0
  7 20  1  0
  7 21  1  0
  8 22  1  0
  8 23  1  0
  9 13  1  0
  9 10  1  0
 10 11  2  0
 10 24  1  0
 11 12  1  0
 12 13  2  0
 12 25  1  0
M  END
>  <i_m_ct_stereo_status>  (48) 
1

>  <s_m_source_file>  (48) 
/var/tmp/pbs.5076255.sched01/tmpj20d55gn/0_c3see42.sdf

>  <i_m_source_file_index>  (48) 
20

>  <i_lp_mmshare_version>  (48) 
48012

>  <i_f3d_flags>  (48) 
0

>  <s_epik_input>  (48) 
bjFbY0hdbltjSF1uMVtDQEhdKFtDSDNdKUMoPU8pW05IXVtDSF0yW0NIMl1bQ0gyXTI=

>  <s_epik_cmdline>  (48) 
J2VwaWtfcHl0aG9uJywgJy1waHQnLCAnMi4wJywgJy1waCcsICc3LjAnLCAnLXRuJywgJzgnLCAnLW1hJywgJzIwMCcsICctaW1hZScsICc8aW5maWxlLm1hZT4nLCAnLW9tYWUnLCAnPG91dGZpbGUubWFlPic=

>  <r_lp_tautomer_probability>  (48) 
1

>  <r_epik_Ionization_Penalty>  (48) 
1.23061e-05

>  <r_epik_Ionization_Penalty_Charging>  (48) 
0

>  <r_epik_Ionization_Penalty_Neutral>  (48) 
1.23061e-05

>  <r_epik_State_Penalty>  (48) 
-0

>  <r_epik_Charging_Adjusted_Penalty>  (48) 
0

>  <i_epik_Tot_Q>  (48) 
0

>  <i_epik_Tot_abs_Q>  (48) 
0

>  <s_lp_Force_Field>  (48) 
OPLS3e

>  <r_lp_Energy>  (48) 
6.94908

>  <b_lp_Chiralities_Consistent>  (48) 
1

>  <s_lp_Variant>  (48) 
11:0-1

>  <s_i_glide_gridfile>  (48) 
pfpi4k_grid

>  <i_i_glide_lignum>  (48) 
20

>  <i_i_glide_rotatable_bonds>  (48) 
4

>  <r_i_docking_score>  (48) 
-3.29995

>  <r_i_glide_ligand_efficiency>  (48) 
-0.253842

>  <r_i_glide_ligand_efficiency_sa>  (48) 
-0.596868

>  <r_i_glide_ligand_efficiency_ln>  (48) 
-0.925665

>  <r_i_glide_gscore>  (48) 
-3.29995

>  <r_i_glide_lipo>  (48) 
-0.355923

>  <r_i_glide_hbond>  (48) 
-0.052005

>  <r_i_glide_metal>  (48) 
-0

>  <r_i_glide_rewards>  (48) 
-2.33996

>  <r_i_glide_evdw>  (48) 
-22.9625

>  <r_i_glide_ecoul>  (48) 
-2.27002

>  <r_i_glide_erotb>  (48) 
0.970387

>  <r_i_glide_esite>  (48) 
-0.0338161

>  <r_i_glide_emodel>  (48) 
-30.5794

>  <r_i_glide_energy>  (48) 
-25.2325

>  <r_i_glide_einternal>  (48) 
0.666718

>  <r_i_glide_intrahb_reward>  (48) 
-0

>  <i_i_glide_confnum>  (48) 
1

>  <i_i_glide_posenum>  (48) 
11

>  <r_i_glide_eff_state_penalty>  (48) 
0

>  <ligand_id>  (48) 
11

>  <original_smiles>  (48) 
CC(C(=O)NC1CC1)n1cncn1

>  <smiles>  (48) 
[H]c1nc([H])n(C([H])(C(=O)N([H])C2([H])C([H])([H])C2([H])[H])C([H])([H])[H])n1

$$$$
12:0:0
     RDKit          3D

 49 55  0  0  1  0  0  0  0  0999 V2000
    4.7633   -4.7879    4.9452 C   0  0  0  0  0  0  0  0  0  0  0  0
    4.4779   -3.7818    4.0959 C   0  0  0  0  0  0  0  0  0  0  0  0
    4.6150   -2.3505    4.3499 C   0  0  0  0  0  0  0  0  0  0  0  0
    4.9277   -1.7329    5.3666 O   0  0  0  0  0  0  0  0  0  0  0  0
    4.0744   -2.0473    2.9190 C   0  0  2  0  0  0  0  0  0  0  0  0
    3.6459   -0.5739    2.5137 C   0  0  2  0  0  0  0  0  0  0  0  0
    3.3560   -0.1944    1.0168 C   0  0  0  0  0  0  0  0  0  0  0  0
    4.3404   -1.1520    0.2557 C   0  0  1  0  0  0  0  0  0  0  0  0
    4.3733   -2.2278   -1.1139 C   0  0  0  0  0  0  0  0  0  0  0  0
    3.1930   -1.8568   -2.0686 C   0  0  0  0  0  0  0  0  0  0  0  0
    5.6070   -1.8582   -1.9522 C   0  0  0  0  0  0  0  0  0  0  0  0
    4.2553   -3.9146   -1.1392 C   0  0  1  0  0  0  0  0  0  0  0  0
    5.3643   -4.6467   -0.6583 O   0  0  0  0  0  0  0  0  0  0  0  0
    4.2099   -5.1690   -0.0049 C   0  0  1  0  0  0  0  0  0  0  0  0
    4.1724   -5.0941    1.7237 C   0  0  1  0  0  0  0  0  0  0  0  0
    5.3467   -5.7794    2.1701 O   0  0  0  0  0  0  0  0  0  0  0  0
    3.7114   -3.7266    2.7322 C   0  0  2  0  0  0  0  0  0  0  0  0
    4.1503   -3.4332    1.5504 C   0  0  1  0  0  0  0  0  0  0  0  0
    2.6589   -3.1561    1.3792 O   0  0  0  0  0  0  0  0  0  0  0  0
    5.6310   -2.7057    1.6081 C   0  0  1  0  0  0  0  0  0  0  0  0
    6.9168   -2.8235    0.7887 C   0  0  0  0  0  0  0  0  0  0  0  0
    7.6513   -3.9941    0.4159 C   0  0  0  0  0  0  0  0  0  0  0  0
    8.7383   -3.5816   -0.2859 C   0  0  0  0  0  0  0  0  0  0  0  0
    8.8550   -2.2377   -0.2127 O   0  0  0  0  0  0  0  0  0  0  0  0
    7.7715   -1.7993    0.4777 C   0  0  0  0  0  0  0  0  0  0  0  0
    4.9719   -1.5226    1.6832 C   0  0  2  0  0  0  0  0  0  0  0  0
    5.0810   -0.3243    2.4422 O   0  0  0  0  0  0  0  0  0  0  0  0
    4.5185   -5.8027    4.6797 H   0  0  0  0  0  0  0  0  0  0  0  0
    5.2057   -4.6091    5.9103 H   0  0  0  0  0  0  0  0  0  0  0  0
    3.1242   -0.0039    3.2902 H   0  0  0  0  0  0  0  0  0  0  0  0
    2.2664   -0.2015    0.8315 H   0  0  0  0  0  0  0  0  0  0  0  0
    3.6567    0.8440    0.8529 H   0  0  0  0  0  0  0  0  0  0  0  0
    3.3342   -1.4276    0.0775 H   0  0  0  0  0  0  0  0  0  0  0  0
    3.2684   -2.3343   -3.0486 H   0  0  0  0  0  0  0  0  0  0  0  0
    3.1130   -0.7784   -2.2367 H   0  0  0  0  0  0  0  0  0  0  0  0
    2.2501   -2.2325   -1.6657 H   0  0  0  0  0  0  0  0  0  0  0  0
    5.4102   -1.9188   -3.0224 H   0  0  0  0  0  0  0  0  0  0  0  0
    6.4561   -2.5159   -1.7971 H   0  0  0  0  0  0  0  0  0  0  0  0
    5.9026   -0.8308   -1.7622 H   0  0  0  0  0  0  0  0  0  0  0  0
    3.9984   -4.2495   -2.1384 H   0  0  0  0  0  0  0  0  0  0  0  0
    3.9526   -6.1565   -0.3771 H   0  0  0  0  0  0  0  0  0  0  0  0
    3.4203   -5.8404    1.9683 H   0  0  0  0  0  0  0  0  0  0  0  0
    6.1022   -5.2439    1.9748 H   0  0  0  0  0  0  0  0  0  0  0  0
    3.4943   -3.1826    0.7570 H   0  0  0  0  0  0  0  0  0  0  0  0
    2.5319   -2.4881    0.7214 H   0  0  0  0  0  0  0  0  0  0  0  0
    6.1796   -2.9521    2.5154 H   0  0  0  0  0  0  0  0  0  0  0  0
    7.3864   -5.0337    0.5411 H   0  0  0  0  0  0  0  0  0  0  0  0
    9.5009   -4.0953   -0.8511 H   0  0  0  0  0  0  0  0  0  0  0  0
    7.7747   -0.7361    0.6646 H   0  0  0  0  0  0  0  0  0  0  0  0
  1  2  2  0
  1 28  1  0
  1 29  1  0
 17  2  1  6
  2  3  1  0
  3  4  2  0
  5  3  1  1
  5 17  1  0
  5 26  1  0
  5  6  1  0
  6 27  1  0
  6  7  1  0
  6 30  1  1
  7  8  1  0
  7 31  1  0
  7 32  1  0
  8 26  1  0
  8  9  1  0
  8 33  1  6
  9 10  1  0
  9 11  1  0
  9 12  1  0
 10 34  1  0
 10 35  1  0
 10 36  1  0
 11 37  1  0
 11 38  1  0
 11 39  1  0
 12 14  1  0
 12 13  1  0
 12 40  1  6
 13 14  1  0
 14 15  1  0
 14 41  1  6
 15 16  1  0
 15 17  1  0
 15 42  1  1
 16 43  1  0
 17 18  1  0
 18 19  1  0
 18 20  1  0
 18 44  1  6
 19 45  1  0
 20 21  1  0
 20 26  1  0
 20 46  1  1
 21 25  2  0
 21 22  1  0
 22 23  2  0
 22 47  1  0
 23 24  1  0
 23 48  1  0
 24 25  1  0
 25 49  1  0
 26 27  1  1
M  END
>  <i_m_ct_stereo_status>  (49) 
1

>  <s_m_source_file>  (49) 
/var/tmp/pbs.5076255.sched01/tmpj20d55gn/0_c3see42.sdf

>  <i_m_source_file_index>  (49) 
21

>  <i_lp_mmshare_version>  (49) 
48012

>  <i_f3d_flags>  (49) 
0

>  <s_epik_input>  (49) 
Tz1DMUMoPVtDSDJdKVtDQEBdMihDMTM0KVtDQEhdKFtPSF0pW0NASF01W0NASF0oTzUpQyhbQ0gzXSkoW0NIM10pW0NASF02W0NAXTQoT1tDQEhdM1tDSDJdNilbQ0BASF0oW0NAQEhdMltPSF0pYzdbY0hdW2NIXW9bY0hdNw==

>  <s_epik_cmdline>  (49) 
J2VwaWtfcHl0aG9uJywgJy1waHQnLCAnMi4wJywgJy1waCcsICc3LjAnLCAnLXRuJywgJzgnLCAnLW1hJywgJzIwMCcsICctaW1hZScsICc8aW5maWxlLm1hZT4nLCAnLW9tYWUnLCAnPG91dGZpbGUubWFlPic=

>  <r_lp_tautomer_probability>  (49) 
1

>  <r_epik_Ionization_Penalty>  (49) 
1.31901e-06

>  <r_epik_Ionization_Penalty_Charging>  (49) 
0

>  <r_epik_Ionization_Penalty_Neutral>  (49) 
1.31901e-06

>  <r_epik_State_Penalty>  (49) 
-0

>  <r_epik_Charging_Adjusted_Penalty>  (49) 
0

>  <i_epik_Tot_Q>  (49) 
0

>  <i_epik_Tot_abs_Q>  (49) 
0

>  <s_lp_Force_Field>  (49) 
OPLS3e

>  <r_lp_Energy>  (49) 
580.851

>  <b_lp_Chiralities_Consistent>  (49) 
1

>  <s_lp_Variant>  (49) 
12:0-1

>  <s_i_glide_gridfile>  (49) 
pfpi4k_grid

>  <i_i_glide_lignum>  (49) 
21

>  <i_i_glide_rotatable_bonds>  (49) 
3

>  <r_i_docking_score>  (49) 
-2.91576

>  <r_i_glide_ligand_efficiency>  (49) 
-0.107991

>  <r_i_glide_ligand_efficiency_sa>  (49) 
-0.323974

>  <r_i_glide_ligand_efficiency_ln>  (49) 
-0.678742

>  <r_i_glide_gscore>  (49) 
-2.91576

>  <r_i_glide_lipo>  (49) 
-0.447286

>  <r_i_glide_hbond>  (49) 
-0.0536542

>  <r_i_glide_metal>  (49) 
-0

>  <r_i_glide_rewards>  (49) 
-0.915355

>  <r_i_glide_evdw>  (49) 
-24.7593

>  <r_i_glide_ecoul>  (49) 
-2.68079

>  <r_i_glide_erotb>  (49) 
0.140617

>  <r_i_glide_esite>  (49) 
0

>  <r_i_glide_emodel>  (49) 
-31.1219

>  <r_i_glide_energy>  (49) 
-27.4401

>  <r_i_glide_einternal>  (49) 
0.60434

>  <r_i_glide_intrahb_reward>  (49) 
-0

>  <i_i_glide_confnum>  (49) 
1

>  <i_i_glide_posenum>  (49) 
5

>  <r_i_glide_eff_state_penalty>  (49) 
0

>  <ligand_id>  (49) 
12

>  <original_smiles>  (49) 
C=C1C(=O)C23C4CC5C(C)(C)C6OC6C(O)C12C(O)C(c1ccoc1)C53O4

>  <smiles>  (49) 
[H]OC1([H])C2([H])OC2([H])C(C([H])([H])[H])(C([H])([H])[H])C2([H])C([H])([H])C3([H])OC24C([H])(c2c([H])oc([H])c2[H])C([H])(O[H])C12C(=C([H])[H])C(=O)C342

$$$$
12:0:1
     RDKit          3D

 49 55  0  0  1  0  0  0  0  0999 V2000
    4.7501   -4.7863    4.9415 C   0  0  0  0  0  0  0  0  0  0  0  0
    4.4757   -3.7855    4.0915 C   0  0  0  0  0  0  0  0  0  0  0  0
    4.6152   -2.3585    4.3478 C   0  0  0  0  0  0  0  0  0  0  0  0
    4.9383   -1.7480    5.3716 O   0  0  0  0  0  0  0  0  0  0  0  0
    4.0749   -2.0504    2.9166 C   0  0  2  0  0  0  0  0  0  0  0  0
    3.6596   -0.5713    2.5140 C   0  0  2  0  0  0  0  0  0  0  0  0
    3.3711   -0.1887    1.0157 C   0  0  0  0  0  0  0  0  0  0  0  0
    4.3470   -1.1561    0.2540 C   0  0  1  0  0  0  0  0  0  0  0  0
    4.3685   -2.2329   -1.1131 C   0  0  0  0  0  0  0  0  0  0  0  0
    3.1962   -1.8498   -2.0718 C   0  0  0  0  0  0  0  0  0  0  0  0
    5.6077   -1.8662   -1.9516 C   0  0  0  0  0  0  0  0  0  0  0  0
    4.2352   -3.9140   -1.1454 C   0  0  1  0  0  0  0  0  0  0  0  0
    5.3461   -4.6550   -0.6651 O   0  0  0  0  0  0  0  0  0  0  0  0
    4.1869   -5.1775   -0.0065 C   0  0  1  0  0  0  0  0  0  0  0  0
    4.1466   -5.1003    1.7157 C   0  0  1  0  0  0  0  0  0  0  0  0
    5.3155   -5.7825    2.1707 O   0  0  0  0  0  0  0  0  0  0  0  0
    3.7060   -3.7292    2.7349 C   0  0  2  0  0  0  0  0  0  0  0  0
    4.1449   -3.4388    1.5513 C   0  0  1  0  0  0  0  0  0  0  0  0
    2.6563   -3.1712    1.3784 O   0  0  0  0  0  0  0  0  0  0  0  0
    5.6286   -2.7220    1.6058 C   0  0  1  0  0  0  0  0  0  0  0  0
    6.9085   -2.8416    0.7848 C   0  0  0  0  0  0  0  0  0  0  0  0
    7.6432   -4.0185    0.4186 C   0  0  0  0  0  0  0  0  0  0  0  0
    8.7303   -3.6078   -0.2867 C   0  0  0  0  0  0  0  0  0  0  0  0
    8.8515   -2.2619   -0.2220 O   0  0  0  0  0  0  0  0  0  0  0  0
    7.7721   -1.8198    0.4681 C   0  0  0  0  0  0  0  0  0  0  0  0
    4.9748   -1.5349    1.6811 C   0  0  2  0  0  0  0  0  0  0  0  0
    5.1008   -0.3364    2.4387 O   0  0  0  0  0  0  0  0  0  0  0  0
    4.4925   -5.7979    4.6801 H   0  0  0  0  0  0  0  0  0  0  0  0
    5.1928   -4.6081    5.9062 H   0  0  0  0  0  0  0  0  0  0  0  0
    3.1395    0.0035    3.2861 H   0  0  0  0  0  0  0  0  0  0  0  0
    2.2824   -0.1916    0.8267 H   0  0  0  0  0  0  0  0  0  0  0  0
    3.6828    0.8458    0.8500 H   0  0  0  0  0  0  0  0  0  0  0  0
    3.3379   -1.4277    0.0778 H   0  0  0  0  0  0  0  0  0  0  0  0
    3.2707   -2.3288   -3.0483 H   0  0  0  0  0  0  0  0  0  0  0  0
    3.1240   -0.7721   -2.2363 H   0  0  0  0  0  0  0  0  0  0  0  0
    2.2530   -2.2257   -1.6697 H   0  0  0  0  0  0  0  0  0  0  0  0
    5.4108   -1.9319   -3.0209 H   0  0  0  0  0  0  0  0  0  0  0  0
    6.4527   -2.5314   -1.7943 H   0  0  0  0  0  0  0  0  0  0  0  0
    5.9098   -0.8411   -1.7622 H   0  0  0  0  0  0  0  0  0  0  0  0
    3.9753   -4.2479   -2.1442 H   0  0  0  0  0  0  0  0  0  0  0  0
    3.9191   -6.1614   -0.3855 H   0  0  0  0  0  0  0  0  0  0  0  0
    3.3832   -5.8348    1.9680 H   0  0  0  0  0  0  0  0  0  0  0  0
    5.3745   -6.6035    1.7217 H   0  0  0  0  0  0  0  0  0  0  0  0
    3.4974   -3.1755    0.7631 H   0  0  0  0  0  0  0  0  0  0  0  0
    2.5402   -2.4911    0.7309 H   0  0  0  0  0  0  0  0  0  0  0  0
    6.1757   -2.9740    2.5086 H   0  0  0  0  0  0  0  0  0  0  0  0
    7.3713   -5.0530    0.5674 H   0  0  0  0  0  0  0  0  0  0  0  0
    9.4840   -4.1292   -0.8538 H   0  0  0  0  0  0  0  0  0  0  0  0
    7.7783   -0.7565    0.6558 H   0  0  0  0  0  0  0  0  0  0  0  0
  1  2  2  0
  1 28  1  0
  1 29  1  0
 17  2  1  6
  2  3  1  0
  3  4  2  0
  5  3  1  1
  5 17  1  0
  5 26  1  0
  5  6  1  0
  6 27  1  0
  6  7  1  0
  6 30  1  1
  7  8  1  0
  7 31  1  0
  7 32  1  0
  8 26  1  0
  8  9  1  0
  8 33  1  6
  9 10  1  0
  9 11  1  0
  9 12  1  0
 10 34  1  0
 10 35  1  0
 10 36  1  0
 11 37  1  0
 11 38  1  0
 11 39  1  0
 12 14  1  0
 12 13  1  0
 12 40  1  6
 13 14  1  0
 14 15  1  0
 14 41  1  6
 15 16  1  0
 15 17  1  0
 15 42  1  1
 16 43  1  0
 17 18  1  0
 18 19  1  0
 18 20  1  0
 18 44  1  6
 19 45  1  0
 20 21  1  0
 20 26  1  0
 20 46  1  1
 21 25  2  0
 21 22  1  0
 22 23  2  0
 22 47  1  0
 23 24  1  0
 23 48  1  0
 24 25  1  0
 25 49  1  0
 26 27  1  1
M  END
>  <i_m_ct_stereo_status>  (50) 
1

>  <s_m_source_file>  (50) 
/var/tmp/pbs.5076255.sched01/tmpj20d55gn/0_c3see42.sdf

>  <i_m_source_file_index>  (50) 
21

>  <i_lp_mmshare_version>  (50) 
48012

>  <i_f3d_flags>  (50) 
0

>  <s_epik_input>  (50) 
Tz1DMUMoPVtDSDJdKVtDQEBdMihDMTM0KVtDQEhdKFtPSF0pW0NASF01W0NASF0oTzUpQyhbQ0gzXSkoW0NIM10pW0NASF02W0NAXTQoT1tDQEhdM1tDSDJdNilbQ0BASF0oW0NAQEhdMltPSF0pYzdbY0hdW2NIXW9bY0hdNw==

>  <s_epik_cmdline>  (50) 
J2VwaWtfcHl0aG9uJywgJy1waHQnLCAnMi4wJywgJy1waCcsICc3LjAnLCAnLXRuJywgJzgnLCAnLW1hJywgJzIwMCcsICctaW1hZScsICc8aW5maWxlLm1hZT4nLCAnLW9tYWUnLCAnPG91dGZpbGUubWFlPic=

>  <r_lp_tautomer_probability>  (50) 
1

>  <r_epik_Ionization_Penalty>  (50) 
1.31901e-06

>  <r_epik_Ionization_Penalty_Charging>  (50) 
0

>  <r_epik_Ionization_Penalty_Neutral>  (50) 
1.31901e-06

>  <r_epik_State_Penalty>  (50) 
-0

>  <r_epik_Charging_Adjusted_Penalty>  (50) 
0

>  <i_epik_Tot_Q>  (50) 
0

>  <i_epik_Tot_abs_Q>  (50) 
0

>  <s_lp_Force_Field>  (50) 
OPLS3e

>  <r_lp_Energy>  (50) 
580.851

>  <b_lp_Chiralities_Consistent>  (50) 
1

>  <s_lp_Variant>  (50) 
12:0-1

>  <s_i_glide_gridfile>  (50) 
pfpi4k_grid

>  <i_i_glide_lignum>  (50) 
21

>  <i_i_glide_rotatable_bonds>  (50) 
3

>  <r_i_docking_score>  (50) 
-2.90431

>  <r_i_glide_ligand_efficiency>  (50) 
-0.107567

>  <r_i_glide_ligand_efficiency_sa>  (50) 
-0.322701

>  <r_i_glide_ligand_efficiency_ln>  (50) 
-0.676075

>  <r_i_glide_gscore>  (50) 
-2.90431

>  <r_i_glide_lipo>  (50) 
-0.448824

>  <r_i_glide_hbond>  (50) 
-0.0507987

>  <r_i_glide_metal>  (50) 
-0

>  <r_i_glide_rewards>  (50) 
-0.915353

>  <r_i_glide_evdw>  (50) 
-24.7404

>  <r_i_glide_ecoul>  (50) 
-2.61951

>  <r_i_glide_erotb>  (50) 
0.140617

>  <r_i_glide_esite>  (50) 
0

>  <r_i_glide_emodel>  (50) 
-30.8891

>  <r_i_glide_energy>  (50) 
-27.3599

>  <r_i_glide_einternal>  (50) 
0.9406

>  <r_i_glide_intrahb_reward>  (50) 
-0

>  <i_i_glide_confnum>  (50) 
3

>  <i_i_glide_posenum>  (50) 
11

>  <r_i_glide_eff_state_penalty>  (50) 
0

>  <ligand_id>  (50) 
12

>  <original_smiles>  (50) 
C=C1C(=O)C23C4CC5C(C)(C)C6OC6C(O)C12C(O)C(c1ccoc1)C53O4

>  <smiles>  (50) 
[H]OC1([H])C2([H])OC2([H])C(C([H])([H])[H])(C([H])([H])[H])C2([H])C([H])([H])C3([H])OC24C([H])(c2c([H])oc([H])c2[H])C([H])(O[H])C12C(=C([H])[H])C(=O)C342

$$$$
13:0:0
     RDKit          3D

 67 74  0  0  1  0  0  0  0  0999 V2000
    2.1007    1.6132    8.7578 C   0  0  0  0  0  0  0  0  0  0  0  0
    1.7329    2.1372    7.4889 O   0  0  0  0  0  0  0  0  0  0  0  0
    2.0635    1.3619    6.3424 C   0  0  2  0  0  0  0  0  0  0  0  0
    1.1620   -0.0946    6.3551 C   0  0  1  0  0  0  0  0  0  0  0  0
    1.2114   -1.5881    5.5843 C   0  0  0  0  0  0  0  0  0  0  0  0
    1.4018   -1.7477    4.1426 C   0  0  0  0  0  0  0  0  0  0  0  0
    1.9959   -0.5341    3.1671 C   0  0  1  0  0  0  0  0  0  0  0  0
    3.1283   -0.9373    2.3037 N   0  0  0  0  0  0  0  0  0  0  0  0
    2.8300   -1.8792    1.2044 C   0  0  0  0  0  0  0  0  0  0  0  0
    3.1155   -3.3420    1.5856 C   0  0  0  0  0  0  0  0  0  0  0  0
    3.0917   -4.3315    0.4037 C   0  0  0  0  0  0  0  0  0  0  0  0
    3.1211   -5.7169    0.8889 N   0  0  0  0  0  0  0  0  0  0  0  0
    4.3234   -6.5305    0.7769 C   0  0  0  0  0  0  0  0  0  0  0  0
    3.9025   -7.9499    1.1931 C   0  0  0  0  0  0  0  0  0  0  0  0
    2.4937   -7.8162    1.7792 C   0  0  0  0  0  0  0  0  0  0  0  0
    2.0930   -6.3921    1.4325 C   0  0  0  0  0  0  0  0  0  0  0  0
    0.9610   -5.9522    1.6304 O   0  0  0  0  0  0  0  0  0  0  0  0
    1.2815    0.8538    2.7141 C   0  0  0  0  0  0  0  0  0  0  0  0
    0.0321    0.7890    2.4723 N   0  0  0  0  0  0  0  0  0  0  0  0
   -0.7245    1.4981    3.4291 C   0  0  0  0  0  0  0  0  0  0  0  0
   -1.8272    2.2927    3.0893 C   0  0  0  0  0  0  0  0  0  0  0  0
   -2.5681    2.9448    4.0859 C   0  0  0  0  0  0  0  0  0  0  0  0
   -2.1904    2.8429    5.4454 C   0  0  0  0  0  0  0  0  0  0  0  0
   -1.0811    2.0553    5.8066 C   0  0  0  0  0  0  0  0  0  0  0  0
   -0.3412    1.3874    4.8127 C   0  0  0  0  0  0  0  0  0  0  0  0
    0.8440    0.4100    5.1433 C   0  0  1  0  0  0  0  0  0  0  0  0
    2.4383    0.0785    4.3603 C   0  0  2  0  0  0  0  0  0  0  0  0
    3.7243    0.8692    4.7935 C   0  0  1  0  0  0  0  0  0  0  0  0
    3.6687    2.3672    4.9163 C   0  0  2  0  0  0  0  0  0  0  0  0
    4.4478    2.2358    6.2125 C   0  0  0  0  0  0  0  0  0  0  0  0
    3.5402    1.0308    6.3043 C   0  0  1  0  0  0  0  0  0  0  0  0
    2.2047    2.4837    5.0058 C   0  0  1  0  0  0  0  0  0  0  0  0
    1.8780    2.2702    3.3441 C   0  0  0  0  0  0  0  0  0  0  0  0
    1.7230    2.2872    9.5260 H   0  0  0  0  0  0  0  0  0  0  0  0
    3.1828    1.5644    8.8863 H   0  0  0  0  0  0  0  0  0  0  0  0
    1.6773    0.6259    8.9426 H   0  0  0  0  0  0  0  0  0  0  0  0
    0.3104   -0.0713    7.0307 H   0  0  0  0  0  0  0  0  0  0  0  0
    0.9485   -2.4365    6.1819 H   0  0  0  0  0  0  0  0  0  0  0  0
    1.2617   -2.7225    3.7433 H   0  0  0  0  0  0  0  0  0  0  0  0
    3.4760   -0.0886    1.8895 H   0  0  0  0  0  0  0  0  0  0  0  0
    1.8089   -1.7643    0.8780 H   0  0  0  0  0  0  0  0  0  0  0  0
    3.4483   -1.6098    0.3537 H   0  0  0  0  0  0  0  0  0  0  0  0
    4.0784   -3.4240    2.0916 H   0  0  0  0  0  0  0  0  0  0  0  0
    2.3656   -3.6789    2.2932 H   0  0  0  0  0  0  0  0  0  0  0  0
    2.1875   -4.1957   -0.1923 H   0  0  0  0  0  0  0  0  0  0  0  0
    3.9305   -4.1413   -0.2728 H   0  0  0  0  0  0  0  0  0  0  0  0
    4.7196   -6.5152   -0.2394 H   0  0  0  0  0  0  0  0  0  0  0  0
    5.0912   -6.1428    1.4483 H   0  0  0  0  0  0  0  0  0  0  0  0
    3.8875   -8.6182    0.3323 H   0  0  0  0  0  0  0  0  0  0  0  0
    4.5978   -8.3845    1.9109 H   0  0  0  0  0  0  0  0  0  0  0  0
    1.7963   -8.5375    1.3501 H   0  0  0  0  0  0  0  0  0  0  0  0
    2.4977   -7.9394    2.8626 H   0  0  0  0  0  0  0  0  0  0  0  0
   -2.1621    2.3771    2.0738 H   0  0  0  0  0  0  0  0  0  0  0  0
   -3.4495    3.4967    3.7997 H   0  0  0  0  0  0  0  0  0  0  0  0
   -2.7843    3.3353    6.2096 H   0  0  0  0  0  0  0  0  0  0  0  0
   -0.8154    1.9561    6.8557 H   0  0  0  0  0  0  0  0  0  0  0  0
   -0.0576   -0.1525    4.8200 H   0  0  0  0  0  0  0  0  0  0  0  0
    3.0989   -0.7125    4.7648 H   0  0  0  0  0  0  0  0  0  0  0  0
    4.7031    0.4842    4.4972 H   0  0  0  0  0  0  0  0  0  0  0  0
    4.1989    2.9240    4.1539 H   0  0  0  0  0  0  0  0  0  0  0  0
    5.5229    2.0298    6.1286 H   0  0  0  0  0  0  0  0  0  0  0  0
    4.1985    3.0176    6.9286 H   0  0  0  0  0  0  0  0  0  0  0  0
    3.9178    0.2107    6.9116 H   0  0  0  0  0  0  0  0  0  0  0  0
    1.9472    3.4894    5.3142 H   0  0  0  0  0  0  0  0  0  0  0  0
    3.8462   -1.3525    2.8753 H   0  0  0  0  0  0  0  0  0  0  0  0
    2.7391    2.5177    2.7178 H   0  0  0  0  0  0  0  0  0  0  0  0
    1.2026    3.0753    3.0681 H   0  0  0  0  0  0  0  0  0  0  0  0
  1  2  1  0
  1 34  1  0
  1 35  1  0
  1 36  1  0
  3  2  1  1
  3 31  1  0
  3 32  1  0
  3  4  1  0
  4 26  1  0
  4  5  1  0
  4 37  1  1
  5  6  2  0
  5 38  1  0
  6  7  1  0
  6 39  1  0
  7 27  1  0
  7  8  1  6
  7 18  1  0
  8  9  1  0
  8 40  1  0
  8 65  1  0
  9 10  1  0
  9 41  1  0
  9 42  1  0
 10 11  1  0
 10 43  1  0
 10 44  1  0
 11 12  1  0
 11 45  1  0
 11 46  1  0
 12 16  1  0
 12 13  1  0
 13 14  1  0
 13 47  1  0
 13 48  1  0
 14 15  1  0
 14 49  1  0
 14 50  1  0
 15 16  1  0
 15 51  1  0
 15 52  1  0
 16 17  2  0
 18 19  2  0
 18 33  1  0
 19 20  1  0
 20 25  2  0
 20 21  1  0
 21 22  2  0
 21 53  1  0
 22 23  1  0
 22 54  1  0
 23 24  2  0
 23 55  1  0
 24 25  1  0
 24 56  1  0
 25 26  1  0
 26 27  1  0
 26 57  1  6
 27 28  1  0
 27 58  1  1
 28 31  1  0
 28 29  1  0
 28 59  1  1
 29 30  1  0
 29 32  1  0
 29 60  1  6
 30 31  1  0
 30 61  1  0
 30 62  1  0
 31 63  1  1
 32 64  1  1
 32 33  1  0
 33 66  1  0
 33 67  1  0
M  CHG  1   8   1
M  END
>  <i_m_ct_stereo_status>  (51) 
1

>  <s_m_source_file>  (51) 
/var/tmp/pbs.5076255.sched01/tmpj20d55gn/0_c3see42.sdf

>  <i_m_source_file_index>  (51) 
22

>  <i_lp_mmshare_version>  (51) 
48012

>  <i_f3d_flags>  (51) 
1

>  <s_epik_input>  (51) 
W0NIM11PW0NAXTEyW0NASF0zW0NASF00YzVjKFtjSF1bY0hdW2NIXVtjSF01KU49QzZbQ0BdKFtDSF09W0NIXTMpKFtDSF00W0NASF03W0NASF0oW0NIMl1bQ0BASF0xNylbQ0BIXTJbQ0gyXTYpW05IXVtDSDJdW0NIMl1bQ0gyXU44W0NIMl1bQ0gyXVtDSDJdQzg9Tw==

>  <s_epik_cmdline>  (51) 
J2VwaWtfcHl0aG9uJywgJy1waHQnLCAnMi4wJywgJy1waCcsICc3LjAnLCAnLXRuJywgJzgnLCAnLW1hJywgJzIwMCcsICctaW1hZScsICc8aW5maWxlLm1hZT4nLCAnLW9tYWUnLCAnPG91dGZpbGUubWFlPic=

>  <r_lp_tautomer_probability>  (51) 
0.999601

>  <r_epik_Ionization_Penalty>  (51) 
0.0093899

>  <r_epik_Ionization_Penalty_Charging>  (51) 
0.00668977

>  <r_epik_Ionization_Penalty_Neutral>  (51) 
0.00270013

>  <r_epik_State_Penalty>  (51) 
0.00682784

>  <r_epik_Charging_Adjusted_Penalty>  (51) 
0.0135176

>  <i_epik_Tot_Q>  (51) 
1

>  <i_epik_Tot_abs_Q>  (51) 
1

>  <s_epik_Chemistry_Notes>  (51) 
This compound has an imine and may undergo hydrolysis.

>  <s_lp_Force_Field>  (51) 
OPLS3e

>  <r_lp_Energy>  (51) 
515.173

>  <b_lp_Chiralities_Consistent>  (51) 
1

>  <s_lp_Variant>  (51) 
13:0-1

>  <s_i_glide_gridfile>  (51) 
pfpi4k_grid

>  <i_i_glide_lignum>  (51) 
22

>  <i_i_glide_rotatable_bonds>  (51) 
6

>  <r_i_docking_score>  (51) 
-2.38787

>  <r_i_glide_ligand_efficiency>  (51) 
-0.0723597

>  <r_i_glide_ligand_efficiency_sa>  (51) 
-0.232096

>  <r_i_glide_ligand_efficiency_ln>  (51) 
-0.53105

>  <r_i_glide_gscore>  (51) 
-2.38787

>  <r_i_glide_lipo>  (51) 
-0.15133

>  <r_i_glide_hbond>  (51) 
-0.144331

>  <r_i_glide_metal>  (51) 
-0

>  <r_i_glide_rewards>  (51) 
-0.377806

>  <r_i_glide_evdw>  (51) 
-25.3496

>  <r_i_glide_ecoul>  (51) 
-5.23394

>  <r_i_glide_erotb>  (51) 
0.404762

>  <r_i_glide_esite>  (51) 
-0.0665946

>  <r_i_glide_emodel>  (51) 
-33.8502

>  <r_i_glide_energy>  (51) 
-30.5835

>  <r_i_glide_einternal>  (51) 
2.75239

>  <r_i_glide_intrahb_reward>  (51) 
-0

>  <i_i_glide_confnum>  (51) 
3

>  <i_i_glide_posenum>  (51) 
14

>  <r_i_glide_eff_state_penalty>  (51) 
0

>  <ligand_id>  (51) 
13

>  <original_smiles>  (51) 
COC12C3C=CC4(NCCCN5CCCC5=O)C5=Nc6ccccc6C3C4C3C(CC31)C2C5

>  <smiles>  (51) 
[H]C1=C([H])C2([N+]([H])([H])C([H])([H])C([H])([H])C([H])([H])N3C(=O)C([H])([H])C([H])([H])C3([H])[H])C3=Nc4c([H])c([H])c([H])c([H])c4C4([H])C1([H])C1(OC([H])([H])[H])C([H])(C3([H])[H])C3([H])C([H])([H])C1([H])C3([H])C42[H]

$$$$
13:0:1
     RDKit          3D

 67 74  0  0  1  0  0  0  0  0999 V2000
   -0.1756   -9.2327    7.7431 C   0  0  0  0  0  0  0  0  0  0  0  0
    0.5779   -8.0773    7.4042 O   0  0  0  0  0  0  0  0  0  0  0  0
    1.2146   -8.0859    6.1266 C   0  0  2  0  0  0  0  0  0  0  0  0
    0.0089   -8.0839    4.8938 C   0  0  1  0  0  0  0  0  0  0  0  0
   -0.0667   -8.3870    3.2291 C   0  0  0  0  0  0  0  0  0  0  0  0
    0.8882   -7.8507    2.2689 C   0  0  0  0  0  0  0  0  0  0  0  0
    2.3716   -7.2214    2.7169 C   0  0  1  0  0  0  0  0  0  0  0  0
    3.5168   -7.7729    1.9553 N   0  0  0  0  0  0  0  0  0  0  0  0
    3.8937   -7.0046    0.7454 C   0  0  0  0  0  0  0  0  0  0  0  0
    4.9896   -5.9711    1.0624 C   0  0  0  0  0  0  0  0  0  0  0  0
    5.3573   -5.0655   -0.1284 C   0  0  0  0  0  0  0  0  0  0  0  0
    6.5987   -4.3148    0.1176 N   0  0  0  0  0  0  0  0  0  0  0  0
    7.8481   -4.9900    0.4773 C   0  0  0  0  0  0  0  0  0  0  0  0
    8.8594   -3.8682    0.7099 C   0  0  0  0  0  0  0  0  0  0  0  0
    8.2124   -2.5914    0.1672 C   0  0  0  0  0  0  0  0  0  0  0  0
    6.7813   -3.0031   -0.1040 C   0  0  0  0  0  0  0  0  0  0  0  0
    5.9425   -2.1971   -0.4972 O   0  0  0  0  0  0  0  0  0  0  0  0
    2.7040   -5.8411    3.5225 C   0  0  0  0  0  0  0  0  0  0  0  0
    1.9922   -4.8199    3.2401 N   0  0  0  0  0  0  0  0  0  0  0  0
    1.1510   -4.4588    4.3156 C   0  0  0  0  0  0  0  0  0  0  0  0
    0.9004   -3.1124    4.6540 C   0  0  0  0  0  0  0  0  0  0  0  0
    0.0425   -2.8045    5.7279 C   0  0  0  0  0  0  0  0  0  0  0  0
   -0.5639   -3.8346    6.4786 C   0  0  0  0  0  0  0  0  0  0  0  0
   -0.3332   -5.1840    6.1440 C   0  0  0  0  0  0  0  0  0  0  0  0
    0.5181   -5.5075    5.0715 C   0  0  0  0  0  0  0  0  0  0  0  0
    0.7364   -6.9891    4.5632 C   0  0  1  0  0  0  0  0  0  0  0  0
    2.1730   -7.8970    3.9472 C   0  0  2  0  0  0  0  0  0  0  0  0
    3.1074   -8.7082    4.9226 C   0  0  1  0  0  0  0  0  0  0  0  0
    3.5992   -8.0642    6.1957 C   0  0  2  0  0  0  0  0  0  0  0  0
    3.2608   -9.3537    6.9268 C   0  0  0  0  0  0  0  0  0  0  0  0
    2.1151   -9.2908    5.9405 C   0  0  1  0  0  0  0  0  0  0  0  0
    2.5843   -6.9910    6.2476 C   0  0  1  0  0  0  0  0  0  0  0  0
    3.2865   -5.9723    5.0717 C   0  0  0  0  0  0  0  0  0  0  0  0
   -0.6292   -9.0459    8.7141 H   0  0  0  0  0  0  0  0  0  0  0  0
    0.4464  -10.1214    7.8505 H   0  0  0  0  0  0  0  0  0  0  0  0
   -0.9752   -9.4497    7.0341 H   0  0  0  0  0  0  0  0  0  0  0  0
   -0.9819   -7.8078    5.2564 H   0  0  0  0  0  0  0  0  0  0  0  0
   -0.9534   -8.9059    2.8816 H   0  0  0  0  0  0  0  0  0  0  0  0
    0.7239   -8.0104    1.2110 H   0  0  0  0  0  0  0  0  0  0  0  0
    4.3163   -7.7975    2.5757 H   0  0  0  0  0  0  0  0  0  0  0  0
    4.3061   -7.7190    0.0298 H   0  0  0  0  0  0  0  0  0  0  0  0
    3.0214   -6.5492    0.2737 H   0  0  0  0  0  0  0  0  0  0  0  0
    4.6950   -5.3058    1.8718 H   0  0  0  0  0  0  0  0  0  0  0  0
    5.8466   -6.5373    1.4252 H   0  0  0  0  0  0  0  0  0  0  0  0
    5.4172   -5.6302   -1.0581 H   0  0  0  0  0  0  0  0  0  0  0  0
    4.5219   -4.3760   -0.2811 H   0  0  0  0  0  0  0  0  0  0  0  0
    7.7696   -5.5826    1.3860 H   0  0  0  0  0  0  0  0  0  0  0  0
    8.2017   -5.6512   -0.3134 H   0  0  0  0  0  0  0  0  0  0  0  0
    9.0611   -3.8051    1.7777 H   0  0  0  0  0  0  0  0  0  0  0  0
    9.8098   -4.0501    0.2225 H   0  0  0  0  0  0  0  0  0  0  0  0
    8.2515   -1.7623    0.8714 H   0  0  0  0  0  0  0  0  0  0  0  0
    8.6907   -2.2811   -0.7628 H   0  0  0  0  0  0  0  0  0  0  0  0
    1.3652   -2.3124    4.0968 H   0  0  0  0  0  0  0  0  0  0  0  0
   -0.1618   -1.7735    5.9776 H   0  0  0  0  0  0  0  0  0  0  0  0
   -1.2326   -3.5995    7.2918 H   0  0  0  0  0  0  0  0  0  0  0  0
   -0.8258   -5.9640    6.7068 H   0  0  0  0  0  0  0  0  0  0  0  0
    0.0951   -6.4152    3.8585 H   0  0  0  0  0  0  0  0  0  0  0  0
    2.0714   -8.9512    3.6059 H   0  0  0  0  0  0  0  0  0  0  0  0
    3.8064   -9.4365    4.4949 H   0  0  0  0  0  0  0  0  0  0  0  0
    4.6606   -7.8107    6.2317 H   0  0  0  0  0  0  0  0  0  0  0  0
    3.9558  -10.1826    6.7986 H   0  0  0  0  0  0  0  0  0  0  0  0
    2.9563   -9.1934    7.9641 H   0  0  0  0  0  0  0  0  0  0  0  0
    1.6586  -10.2495    5.6782 H   0  0  0  0  0  0  0  0  0  0  0  0
    2.6130   -6.5099    7.2264 H   0  0  0  0  0  0  0  0  0  0  0  0
    3.2922   -8.7256    1.6957 H   0  0  0  0  0  0  0  0  0  0  0  0
    4.3571   -6.1682    4.9562 H   0  0  0  0  0  0  0  0  0  0  0  0
    3.3137   -4.9752    5.5153 H   0  0  0  0  0  0  0  0  0  0  0  0
  1  2  1  0
  1 34  1  0
  1 35  1  0
  1 36  1  0
  3  2  1  1
  3 31  1  0
  3 32  1  0
  3  4  1  0
  4 26  1  0
  4  5  1  0
  4 37  1  1
  5  6  2  0
  5 38  1  0
  6  7  1  0
  6 39  1  0
  7 27  1  0
  7  8  1  6
  7 18  1  0
  8  9  1  0
  8 40  1  0
  8 65  1  0
  9 10  1  0
  9 41  1  0
  9 42  1  0
 10 11  1  0
 10 43  1  0
 10 44  1  0
 11 12  1  0
 11 45  1  0
 11 46  1  0
 12 16  1  0
 12 13  1  0
 13 14  1  0
 13 47  1  0
 13 48  1  0
 14 15  1  0
 14 49  1  0
 14 50  1  0
 15 16  1  0
 15 51  1  0
 15 52  1  0
 16 17  2  0
 18 19  2  0
 18 33  1  0
 19 20  1  0
 20 25  2  0
 20 21  1  0
 21 22  2  0
 21 53  1  0
 22 23  1  0
 22 54  1  0
 23 24  2  0
 23 55  1  0
 24 25  1  0
 24 56  1  0
 25 26  1  0
 26 27  1  0
 26 57  1  6
 27 28  1  0
 27 58  1  6
 28 31  1  0
 28 29  1  0
 28 59  1  6
 29 30  1  0
 29 32  1  0
 29 60  1  6
 30 31  1  0
 30 61  1  0
 30 62  1  0
 31 63  1  6
 32 64  1  1
 32 33  1  0
 33 66  1  0
 33 67  1  0
M  CHG  1   8   1
M  END
>  <i_m_ct_stereo_status>  (52) 
1

>  <s_m_source_file>  (52) 
/var/tmp/pbs.5076255.sched01/tmpj20d55gn/0_c3see42.sdf

>  <i_m_source_file_index>  (52) 
22

>  <i_lp_mmshare_version>  (52) 
48012

>  <i_f3d_flags>  (52) 
1

>  <s_epik_input>  (52) 
W0NIM11PW0NAXTEyW0NASF0zW0NASF00YzVjKFtjSF1bY0hdW2NIXVtjSF01KU49QzZbQ0BdKFtDSF09W0NIXTMpKFtDSF00W0NASF03W0NASF0oW0NIMl1bQ0BASF0xNylbQ0BIXTJbQ0gyXTYpW05IXVtDSDJdW0NIMl1bQ0gyXU44W0NIMl1bQ0gyXVtDSDJdQzg9Tw==

>  <s_epik_cmdline>  (52) 
J2VwaWtfcHl0aG9uJywgJy1waHQnLCAnMi4wJywgJy1waCcsICc3LjAnLCAnLXRuJywgJzgnLCAnLW1hJywgJzIwMCcsICctaW1hZScsICc8aW5maWxlLm1hZT4nLCAnLW9tYWUnLCAnPG91dGZpbGUubWFlPic=

>  <r_lp_tautomer_probability>  (52) 
0.999601

>  <r_epik_Ionization_Penalty>  (52) 
0.0093899

>  <r_epik_Ionization_Penalty_Charging>  (52) 
0.00668977

>  <r_epik_Ionization_Penalty_Neutral>  (52) 
0.00270013

>  <r_epik_State_Penalty>  (52) 
0.00682784

>  <r_epik_Charging_Adjusted_Penalty>  (52) 
0.0135176

>  <i_epik_Tot_Q>  (52) 
1

>  <i_epik_Tot_abs_Q>  (52) 
1

>  <s_epik_Chemistry_Notes>  (52) 
This compound has an imine and may undergo hydrolysis.

>  <s_lp_Force_Field>  (52) 
OPLS3e

>  <r_lp_Energy>  (52) 
515.173

>  <b_lp_Chiralities_Consistent>  (52) 
1

>  <s_lp_Variant>  (52) 
13:0-1

>  <s_i_glide_gridfile>  (52) 
pfpi4k_grid

>  <i_i_glide_lignum>  (52) 
22

>  <i_i_glide_rotatable_bonds>  (52) 
6

>  <r_i_docking_score>  (52) 
-2.2122

>  <r_i_glide_ligand_efficiency>  (52) 
-0.0670363

>  <r_i_glide_ligand_efficiency_sa>  (52) 
-0.215021

>  <r_i_glide_ligand_efficiency_ln>  (52) 
-0.491981

>  <r_i_glide_gscore>  (52) 
-2.2122

>  <r_i_glide_lipo>  (52) 
-0.571869

>  <r_i_glide_hbond>  (52) 
0

>  <r_i_glide_metal>  (52) 
-0

>  <r_i_glide_rewards>  (52) 
-0.611136

>  <r_i_glide_evdw>  (52) 
-25.8437

>  <r_i_glide_ecoul>  (52) 
-0.943513

>  <r_i_glide_erotb>  (52) 
0.404762

>  <r_i_glide_esite>  (52) 
-0.000242803

>  <r_i_glide_emodel>  (52) 
-27.348

>  <r_i_glide_energy>  (52) 
-26.7872

>  <r_i_glide_einternal>  (52) 
6.63657

>  <r_i_glide_intrahb_reward>  (52) 
-0

>  <i_i_glide_confnum>  (52) 
4

>  <i_i_glide_posenum>  (52) 
34

>  <r_i_glide_eff_state_penalty>  (52) 
0

>  <ligand_id>  (52) 
13

>  <original_smiles>  (52) 
COC12C3C=CC4(NCCCN5CCCC5=O)C5=Nc6ccccc6C3C4C3C(CC31)C2C5

>  <smiles>  (52) 
[H]C1=C([H])C2([N+]([H])([H])C([H])([H])C([H])([H])C([H])([H])N3C(=O)C([H])([H])C([H])([H])C3([H])[H])C3=Nc4c([H])c([H])c([H])c([H])c4C4([H])C1([H])C1(OC([H])([H])[H])C([H])(C3([H])[H])C3([H])C([H])([H])C1([H])C3([H])C42[H]

$$$$
13:0:2
     RDKit          3D

 67 74  0  0  1  0  0  0  0  0999 V2000
    0.2415   -9.3212    8.3328 C   0  0  0  0  0  0  0  0  0  0  0  0
    1.0022   -8.2041    7.9261 O   0  0  0  0  0  0  0  0  0  0  0  0
    1.6476   -8.3416    6.6580 C   0  0  2  0  0  0  0  0  0  0  0  0
    0.4623   -8.5722    5.4206 C   0  0  1  0  0  0  0  0  0  0  0  0
    0.4363   -9.0694    3.8030 C   0  0  0  0  0  0  0  0  0  0  0  0
    1.3750   -8.5778    2.7970 C   0  0  0  0  0  0  0  0  0  0  0  0
    2.8116   -7.8117    3.1764 C   0  0  1  0  0  0  0  0  0  0  0  0
    4.0210   -8.3612    2.4879 N   0  0  0  0  0  0  0  0  0  0  0  0
    4.3283   -7.7717    1.1531 C   0  0  0  0  0  0  0  0  0  0  0  0
    4.8476   -6.2920    1.1842 C   0  0  0  0  0  0  0  0  0  0  0  0
    4.5023   -5.5061   -0.0900 C   0  0  0  0  0  0  0  0  0  0  0  0
    4.9549   -4.1217    0.0962 N   0  0  0  0  0  0  0  0  0  0  0  0
    6.3250   -3.7791   -0.2341 C   0  0  0  0  0  0  0  0  0  0  0  0
    6.4999   -2.3107    0.1664 C   0  0  0  0  0  0  0  0  0  0  0  0
    5.0947   -1.7944    0.4831 C   0  0  0  0  0  0  0  0  0  0  0  0
    4.2498   -3.0578    0.5217 C   0  0  0  0  0  0  0  0  0  0  0  0
    3.0692   -3.0434    0.8688 O   0  0  0  0  0  0  0  0  0  0  0  0
    3.0372   -6.3375    3.8100 C   0  0  0  0  0  0  0  0  0  0  0  0
    2.2487   -5.4332    3.3997 N   0  0  0  0  0  0  0  0  0  0  0  0
    1.3866   -4.9817    4.4254 C   0  0  0  0  0  0  0  0  0  0  0  0
    1.0693   -3.6115    4.5834 C   0  0  0  0  0  0  0  0  0  0  0  0
    0.1837   -3.2084    5.6090 C   0  0  0  0  0  0  0  0  0  0  0  0
   -0.3795   -4.1791    6.4729 C   0  0  0  0  0  0  0  0  0  0  0  0
   -0.0949   -5.5481    6.3237 C   0  0  0  0  0  0  0  0  0  0  0  0
    0.7996   -5.9570    5.2965 C   0  0  0  0  0  0  0  0  0  0  0  0
    1.1202   -7.4784    4.9769 C   0  0  1  0  0  0  0  0  0  0  0  0
    2.6281   -8.3670    4.4718 C   0  0  2  0  0  0  0  0  0  0  0  0
    3.5875   -8.9816    5.5465 C   0  0  1  0  0  0  0  0  0  0  0  0
    4.0220   -8.1684    6.7301 C   0  0  2  0  0  0  0  0  0  0  0  0
    3.7746   -9.3821    7.5952 C   0  0  0  0  0  0  0  0  0  0  0  0
    2.6303   -9.4950    6.6235 C   0  0  1  0  0  0  0  0  0  0  0  0
    2.9462   -7.1574    6.6503 C   0  0  1  0  0  0  0  0  0  0  0  0
    3.5994   -6.2503    5.3656 C   0  0  0  0  0  0  0  0  0  0  0  0
   -0.2136   -9.0502    9.2791 H   0  0  0  0  0  0  0  0  0  0  0  0
    0.8501  -10.2100    8.5019 H   0  0  0  0  0  0  0  0  0  0  0  0
   -0.5615   -9.5643    7.6383 H   0  0  0  0  0  0  0  0  0  0  0  0
   -0.5577   -8.2997    5.7169 H   0  0  0  0  0  0  0  0  0  0  0  0
   -0.4188   -9.6697    3.5245 H   0  0  0  0  0  0  0  0  0  0  0  0
    1.2500   -8.8740    1.7703 H   0  0  0  0  0  0  0  0  0  0  0  0
    4.8096   -8.2431    3.1143 H   0  0  0  0  0  0  0  0  0  0  0  0
    5.1212   -8.4032    0.7366 H   0  0  0  0  0  0  0  0  0  0  0  0
    3.4708   -7.9347    0.4882 H   0  0  0  0  0  0  0  0  0  0  0  0
    4.3357   -5.6328    1.8710 H   0  0  0  0  0  0  0  0  0  0  0  0
    5.9209   -6.2649    1.4652 H   0  0  0  0  0  0  0  0  0  0  0  0
    4.9035   -5.9550   -1.0140 H   0  0  0  0  0  0  0  0  0  0  0  0
    3.4089   -5.5069   -0.1917 H   0  0  0  0  0  0  0  0  0  0  0  0
    7.0479   -4.4215    0.2739 H   0  0  0  0  0  0  0  0  0  0  0  0
    6.4543   -3.8880   -1.3077 H   0  0  0  0  0  0  0  0  0  0  0  0
    7.1384   -2.2284    1.0461 H   0  0  0  0  0  0  0  0  0  0  0  0
    6.9746   -1.7447   -0.6339 H   0  0  0  0  0  0  0  0  0  0  0  0
    5.0571   -1.2654    1.4343 H   0  0  0  0  0  0  0  0  0  0  0  0
    4.7254   -1.1275   -0.2988 H   0  0  0  0  0  0  0  0  0  0  0  0
    1.5064   -2.8732    3.9263 H   0  0  0  0  0  0  0  0  0  0  0  0
   -0.0754   -2.1644    5.7157 H   0  0  0  0  0  0  0  0  0  0  0  0
   -1.0649   -3.8733    7.2522 H   0  0  0  0  0  0  0  0  0  0  0  0
   -0.5385   -6.2926    6.9800 H   0  0  0  0  0  0  0  0  0  0  0  0
    0.4583   -7.0285    4.2060 H   0  0  0  0  0  0  0  0  0  0  0  0
    2.6055   -9.4699    4.2660 H   0  0  0  0  0  0  0  0  0  0  0  0
    4.3309   -9.7114    5.2317 H   0  0  0  0  0  0  0  0  0  0  0  0
    5.0608   -7.8592    6.7213 H   0  0  0  0  0  0  0  0  0  0  0  0
    4.5252  -10.1704    7.5451 H   0  0  0  0  0  0  0  0  0  0  0  0
    3.4565   -9.1084    8.5987 H   0  0  0  0  0  0  0  0  0  0  0  0
    2.2555  -10.5006    6.4591 H   0  0  0  0  0  0  0  0  0  0  0  0
    2.9371   -6.5606    7.5721 H   0  0  0  0  0  0  0  0  0  0  0  0
    3.8408   -9.3514    2.3592 H   0  0  0  0  0  0  0  0  0  0  0  0
    4.6715   -6.4141    5.2805 H   0  0  0  0  0  0  0  0  0  0  0  0
    3.5646   -5.2169    5.6993 H   0  0  0  0  0  0  0  0  0  0  0  0
  1  2  1  0
  1 34  1  0
  1 35  1  0
  1 36  1  0
  3  2  1  1
  3 31  1  0
  3 32  1  0
  3  4  1  0
  4 26  1  0
  4  5  1  0
  4 37  1  1
  5  6  2  0
  5 38  1  0
  6  7  1  0
  6 39  1  0
  7 27  1  0
  7  8  1  6
  7 18  1  0
  8  9  1  0
  8 40  1  0
  8 65  1  0
  9 10  1  0
  9 41  1  0
  9 42  1  0
 10 11  1  0
 10 43  1  0
 10 44  1  0
 11 12  1  0
 11 45  1  0
 11 46  1  0
 12 16  1  0
 12 13  1  0
 13 14  1  0
 13 47  1  0
 13 48  1  0
 14 15  1  0
 14 49  1  0
 14 50  1  0
 15 16  1  0
 15 51  1  0
 15 52  1  0
 16 17  2  0
 18 19  2  0
 18 33  1  0
 19 20  1  0
 20 25  2  0
 20 21  1  0
 21 22  2  0
 21 53  1  0
 22 23  1  0
 22 54  1  0
 23 24  2  0
 23 55  1  0
 24 25  1  0
 24 56  1  0
 25 26  1  0
 26 27  1  0
 26 57  1  6
 27 28  1  0
 27 58  1  6
 28 31  1  0
 28 29  1  0
 28 59  1  6
 29 30  1  0
 29 32  1  0
 29 60  1  6
 30 31  1  0
 30 61  1  0
 30 62  1  0
 31 63  1  6
 32 64  1  1
 32 33  1  0
 33 66  1  0
 33 67  1  0
M  CHG  1   8   1
M  END
>  <i_m_ct_stereo_status>  (53) 
1

>  <s_m_source_file>  (53) 
/var/tmp/pbs.5076255.sched01/tmpj20d55gn/0_c3see42.sdf

>  <i_m_source_file_index>  (53) 
22

>  <i_lp_mmshare_version>  (53) 
48012

>  <i_f3d_flags>  (53) 
1

>  <s_epik_input>  (53) 
W0NIM11PW0NAXTEyW0NASF0zW0NASF00YzVjKFtjSF1bY0hdW2NIXVtjSF01KU49QzZbQ0BdKFtDSF09W0NIXTMpKFtDSF00W0NASF03W0NASF0oW0NIMl1bQ0BASF0xNylbQ0BIXTJbQ0gyXTYpW05IXVtDSDJdW0NIMl1bQ0gyXU44W0NIMl1bQ0gyXVtDSDJdQzg9Tw==

>  <s_epik_cmdline>  (53) 
J2VwaWtfcHl0aG9uJywgJy1waHQnLCAnMi4wJywgJy1waCcsICc3LjAnLCAnLXRuJywgJzgnLCAnLW1hJywgJzIwMCcsICctaW1hZScsICc8aW5maWxlLm1hZT4nLCAnLW9tYWUnLCAnPG91dGZpbGUubWFlPic=

>  <r_lp_tautomer_probability>  (53) 
0.999601

>  <r_epik_Ionization_Penalty>  (53) 
0.0093899

>  <r_epik_Ionization_Penalty_Charging>  (53) 
0.00668977

>  <r_epik_Ionization_Penalty_Neutral>  (53) 
0.00270013

>  <r_epik_State_Penalty>  (53) 
0.00682784

>  <r_epik_Charging_Adjusted_Penalty>  (53) 
0.0135176

>  <i_epik_Tot_Q>  (53) 
1

>  <i_epik_Tot_abs_Q>  (53) 
1

>  <s_epik_Chemistry_Notes>  (53) 
This compound has an imine and may undergo hydrolysis.

>  <s_lp_Force_Field>  (53) 
OPLS3e

>  <r_lp_Energy>  (53) 
515.173

>  <b_lp_Chiralities_Consistent>  (53) 
1

>  <s_lp_Variant>  (53) 
13:0-1

>  <s_i_glide_gridfile>  (53) 
pfpi4k_grid

>  <i_i_glide_lignum>  (53) 
22

>  <i_i_glide_rotatable_bonds>  (53) 
6

>  <r_i_docking_score>  (53) 
-1.67075

>  <r_i_glide_ligand_efficiency>  (53) 
-0.0506288

>  <r_i_glide_ligand_efficiency_sa>  (53) 
-0.162394

>  <r_i_glide_ligand_efficiency_ln>  (53) 
-0.371566

>  <r_i_glide_gscore>  (53) 
-1.67075

>  <r_i_glide_lipo>  (53) 
-0.322724

>  <r_i_glide_hbond>  (53) 
0

>  <r_i_glide_metal>  (53) 
-0

>  <r_i_glide_rewards>  (53) 
-0.451867

>  <r_i_glide_evdw>  (53) 
-23.4801

>  <r_i_glide_ecoul>  (53) 
-0.813366

>  <r_i_glide_erotb>  (53) 
0.404762

>  <r_i_glide_esite>  (53) 
-0.00491072

>  <r_i_glide_emodel>  (53) 
-23.8639

>  <r_i_glide_energy>  (53) 
-24.2935

>  <r_i_glide_einternal>  (53) 
4.08098

>  <r_i_glide_intrahb_reward>  (53) 
-0

>  <i_i_glide_confnum>  (53) 
4

>  <i_i_glide_posenum>  (53) 
32

>  <r_i_glide_eff_state_penalty>  (53) 
0

>  <ligand_id>  (53) 
13

>  <original_smiles>  (53) 
COC12C3C=CC4(NCCCN5CCCC5=O)C5=Nc6ccccc6C3C4C3C(CC31)C2C5

>  <smiles>  (53) 
[H]C1=C([H])C2([N+]([H])([H])C([H])([H])C([H])([H])C([H])([H])N3C(=O)C([H])([H])C([H])([H])C3([H])[H])C3=Nc4c([H])c([H])c([H])c([H])c4C4([H])C1([H])C1(OC([H])([H])[H])C([H])(C3([H])[H])C3([H])C([H])([H])C1([H])C3([H])C42[H]

$$$$
14:0:0
     RDKit          3D

 32 35  0  0  1  0  0  0  0  0999 V2000
   -4.2870   -9.3684   -5.1690 C   0  0  0  0  0  0  0  0  0  0  0  0
   -3.8721  -10.6587   -5.5556 C   0  0  0  0  0  0  0  0  0  0  0  0
   -4.4895  -11.3183   -6.6375 C   0  0  0  0  0  0  0  0  0  0  0  0
   -4.2663  -12.5516   -7.2080 N   0  0  0  0  0  0  0  0  0  0  0  0
   -5.1398  -12.7274   -8.2654 N   0  0  0  0  0  0  0  0  0  0  0  0
   -5.8702  -11.6001   -8.2851 C   0  0  0  0  0  0  0  0  0  0  0  0
   -5.5107  -10.6735   -7.3022 C   0  0  0  0  0  0  0  0  0  0  0  0
   -5.9544   -9.3779   -6.9371 C   0  0  0  0  0  0  0  0  0  0  0  0
   -5.3343   -8.7255   -5.8631 C   0  0  0  0  0  0  0  0  0  0  0  0
   -5.8644   -7.4729   -5.6113 N   0  0  0  0  0  0  0  0  0  0  0  0
   -6.8124   -7.4287   -6.5595 C   0  0  0  0  0  0  0  0  0  0  0  0
   -6.8920   -8.5114   -7.3715 N   0  0  0  0  0  0  0  0  0  0  0  0
   -7.8181   -8.7782   -8.4677 C   0  0  0  0  0  0  0  0  0  0  0  0
   -7.8870   -7.5714   -9.4228 C   0  0  0  0  0  0  0  0  0  0  0  0
   -8.9921   -7.7455  -10.4739 C   0  0  0  0  0  0  0  0  0  0  0  0
  -10.2372   -7.9657   -9.8247 O   0  0  0  0  0  0  0  0  0  0  0  0
  -10.2566   -9.1659   -9.0609 C   0  0  0  0  0  0  0  0  0  0  0  0
   -9.2248   -9.0788   -7.9247 C   0  0  0  0  0  0  0  0  0  0  0  0
   -3.6031  -13.2619   -6.9355 H   0  0  0  0  0  0  0  0  0  0  0  0
   -3.8035   -8.8737   -4.3380 H   0  0  0  0  0  0  0  0  0  0  0  0
   -3.0673  -11.1415   -5.0176 H   0  0  0  0  0  0  0  0  0  0  0  0
   -6.6472  -11.4675   -9.0177 H   0  0  0  0  0  0  0  0  0  0  0  0
   -7.4729   -6.5805   -6.6680 H   0  0  0  0  0  0  0  0  0  0  0  0
   -7.4834   -9.6210   -9.0568 H   0  0  0  0  0  0  0  0  0  0  0  0
   -8.0947   -6.6576   -8.8644 H   0  0  0  0  0  0  0  0  0  0  0  0
   -6.9226   -7.4295   -9.9148 H   0  0  0  0  0  0  0  0  0  0  0  0
   -9.0667   -6.8446  -11.0837 H   0  0  0  0  0  0  0  0  0  0  0  0
   -8.7658   -8.5722  -11.1462 H   0  0  0  0  0  0  0  0  0  0  0  0
  -11.2570   -9.3074   -8.6501 H   0  0  0  0  0  0  0  0  0  0  0  0
  -10.0522  -10.0212   -9.7052 H   0  0  0  0  0  0  0  0  0  0  0  0
   -9.2261  -10.0042   -7.3457 H   0  0  0  0  0  0  0  0  0  0  0  0
   -9.5232   -8.2848   -7.2410 H   0  0  0  0  0  0  0  0  0  0  0  0
  1  9  2  0
  1  2  1  0
  1 20  1  0
  2  3  2  0
  2 21  1  0
  3  7  1  0
  3  4  1  0
  4 19  1  0
  4  5  1  0
  5  6  2  0
  6  7  1  0
  6 22  1  0
  7  8  2  0
  8 12  1  0
  8  9  1  0
  9 10  1  0
 10 11  2  0
 11 12  1  0
 11 23  1  0
 12 13  1  0
 13 18  1  0
 13 14  1  0
 13 24  1  0
 14 15  1  0
 14 25  1  0
 14 26  1  0
 15 16  1  0
 15 27  1  0
 15 28  1  0
 16 17  1  0
 17 18  1  0
 17 29  1  0
 17 30  1  0
 18 31  1  0
 18 32  1  0
M  END
>  <i_m_ct_stereo_status>  (54) 
1

>  <s_m_source_file>  (54) 
/var/tmp/pbs.5076255.sched01/tmpj20d55gn/0_c3see42.sdf

>  <i_m_source_file_index>  (54) 
23

>  <i_lp_mmshare_version>  (54) 
48012

>  <i_f3d_flags>  (54) 
0

>  <s_epik_input>  (54) 
W25IXTFuW2NIXWMoYzEyKWMzYyhbY0hdW2NIXTIpbltjSF1uM1tDSF00W0NIMl1bQ0gyXU9bQ0gyXVtDSDJdNA==

>  <s_epik_cmdline>  (54) 
J2VwaWtfcHl0aG9uJywgJy1waHQnLCAnMi4wJywgJy1waCcsICc3LjAnLCAnLXRuJywgJzgnLCAnLW1hJywgJzIwMCcsICctaW1hZScsICc8aW5maWxlLm1hZT4nLCAnLW9tYWUnLCAnPG91dGZpbGUubWFlPic=

>  <r_epik_Ionization_Penalty>  (54) 
0.00696292

>  <r_epik_Ionization_Penalty_Charging>  (54) 
0

>  <r_epik_Ionization_Penalty_Neutral>  (54) 
0.00696292

>  <r_epik_State_Penalty>  (54) 
0.00517771

>  <r_epik_Charging_Adjusted_Penalty>  (54) 
0.00517771

>  <i_epik_Tot_Q>  (54) 
0

>  <i_epik_Tot_abs_Q>  (54) 
0

>  <s_lp_Force_Field>  (54) 
OPLS3e

>  <r_lp_Energy>  (54) 
5.42812

>  <b_lp_Chiralities_Consistent>  (54) 
1

>  <s_lp_Variant>  (54) 
14:0-1

>  <s_i_glide_gridfile>  (54) 
pfpi4k_grid

>  <i_i_glide_lignum>  (54) 
23

>  <i_i_glide_rotatable_bonds>  (54) 
1

>  <r_i_docking_score>  (54) 
-5.0851

>  <r_i_glide_ligand_efficiency>  (54) 
-0.282505

>  <r_i_glide_ligand_efficiency_sa>  (54) 
-0.740374

>  <r_i_glide_ligand_efficiency_ln>  (54) 
-1.3071

>  <r_i_glide_gscore>  (54) 
-5.0851

>  <r_i_glide_lipo>  (54) 
-1.25255

>  <r_i_glide_hbond>  (54) 
0

>  <r_i_glide_metal>  (54) 
-0

>  <r_i_glide_rewards>  (54) 
-2.42746

>  <r_i_glide_evdw>  (54) 
-25.1915

>  <r_i_glide_ecoul>  (54) 
-2.71501

>  <r_i_glide_erotb>  (54) 
0.295446

>  <r_i_glide_esite>  (54) 
-0.0337097

>  <r_i_glide_emodel>  (54) 
-36.4873

>  <r_i_glide_energy>  (54) 
-27.9065

>  <r_i_glide_einternal>  (54) 
0.0200998

>  <r_i_glide_intrahb_reward>  (54) 
-0

>  <i_i_glide_confnum>  (54) 
2

>  <i_i_glide_posenum>  (54) 
2

>  <r_i_glide_eff_state_penalty>  (54) 
0

>  <ligand_id>  (54) 
14

>  <original_smiles>  (54) 
c1cc2[nH]ncc2c2c1ncn2C1CCOCC1

>  <smiles>  (54) 
[H]c1c([H])c2c(c([H])nn2[H])c2c1nc([H])n2C1([H])C([H])([H])C([H])([H])OC([H])([H])C1([H])[H]

$$$$
14:0:1
     RDKit          3D

 32 35  0  0  1  0  0  0  0  0999 V2000
    6.5440   -5.1774    0.7406 C   0  0  0  0  0  0  0  0  0  0  0  0
    5.5798   -6.0779    1.2371 C   0  0  0  0  0  0  0  0  0  0  0  0
    4.2184   -5.8813    1.0373 C   0  0  0  0  0  0  0  0  0  0  0  0
    3.1094   -6.6227    1.4185 N   0  0  0  0  0  0  0  0  0  0  0  0
    1.9683   -5.9548    1.0095 N   0  0  0  0  0  0  0  0  0  0  0  0
    2.4408   -4.8544    0.3766 C   0  0  0  0  0  0  0  0  0  0  0  0
    3.8201   -4.7563    0.3458 C   0  0  0  0  0  0  0  0  0  0  0  0
    4.7763   -3.8257   -0.2055 C   0  0  0  0  0  0  0  0  0  0  0  0
    6.1291   -4.0515    0.0097 C   0  0  0  0  0  0  0  0  0  0  0  0
    6.9564   -3.0867   -0.5462 N   0  0  0  0  0  0  0  0  0  0  0  0
    6.0237   -2.2986   -1.0910 C   0  0  0  0  0  0  0  0  0  0  0  0
    4.7230   -2.7074   -0.9634 N   0  0  0  0  0  0  0  0  0  0  0  0
    3.4842   -2.0931   -1.4606 C   0  0  0  0  0  0  0  0  0  0  0  0
    2.5991   -3.0448   -2.3115 C   0  0  0  0  0  0  0  0  0  0  0  0
    3.2831   -3.4120   -3.6242 C   0  0  0  0  0  0  0  0  0  0  0  0
    3.5304   -2.2465   -4.4066 O   0  0  0  0  0  0  0  0  0  0  0  0
    4.3932   -1.3570   -3.7293 C   0  0  0  0  0  0  0  0  0  0  0  0
    3.7952   -0.8788   -2.3840 C   0  0  0  0  0  0  0  0  0  0  0  0
    3.0639   -7.4855    1.9499 H   0  0  0  0  0  0  0  0  0  0  0  0
    7.5870   -5.3338    0.9121 H   0  0  0  0  0  0  0  0  0  0  0  0
    5.9041   -6.9265    1.8008 H   0  0  0  0  0  0  0  0  0  0  0  0
    1.7880   -4.0913   -0.0337 H   0  0  0  0  0  0  0  0  0  0  0  0
    6.3056   -1.3961   -1.6199 H   0  0  0  0  0  0  0  0  0  0  0  0
    2.9535   -1.7349   -0.5781 H   0  0  0  0  0  0  0  0  0  0  0  0
    2.4136   -4.0200   -1.8820 H   0  0  0  0  0  0  0  0  0  0  0  0
    1.6318   -2.5738   -2.5042 H   0  0  0  0  0  0  0  0  0  0  0  0
    4.2043   -3.9716   -3.4041 H   0  0  0  0  0  0  0  0  0  0  0  0
    2.6228   -4.0983   -4.1587 H   0  0  0  0  0  0  0  0  0  0  0  0
    5.3385   -1.8813   -3.5849 H   0  0  0  0  0  0  0  0  0  0  0  0
    4.5852   -0.5112   -4.3844 H   0  0  0  0  0  0  0  0  0  0  0  0
    2.8750   -0.3268   -2.5940 H   0  0  0  0  0  0  0  0  0  0  0  0
    4.4583   -0.1523   -1.8927 H   0  0  0  0  0  0  0  0  0  0  0  0
  1  9  2  0
  1  2  1  0
  1 20  1  0
  2  3  2  0
  2 21  1  0
  3  7  1  0
  3  4  1  0
  4 19  1  0
  4  5  1  0
  5  6  2  0
  6  7  1  0
  6 22  1  0
  7  8  2  0
  8 12  1  0
  8  9  1  0
  9 10  1  0
 10 11  2  0
 11 12  1  0
 11 23  1  0
 12 13  1  0
 13 18  1  0
 13 14  1  0
 13 24  1  0
 14 15  1  0
 14 25  1  0
 14 26  1  0
 15 16  1  0
 15 27  1  0
 15 28  1  0
 16 17  1  0
 17 18  1  0
 17 29  1  0
 17 30  1  0
 18 31  1  0
 18 32  1  0
M  END
>  <i_m_ct_stereo_status>  (55) 
1

>  <s_m_source_file>  (55) 
/var/tmp/pbs.5076255.sched01/tmpj20d55gn/0_c3see42.sdf

>  <i_m_source_file_index>  (55) 
23

>  <i_lp_mmshare_version>  (55) 
48012

>  <i_f3d_flags>  (55) 
0

>  <s_epik_input>  (55) 
W25IXTFuW2NIXWMoYzEyKWMzYyhbY0hdW2NIXTIpbltjSF1uM1tDSF00W0NIMl1bQ0gyXU9bQ0gyXVtDSDJdNA==

>  <s_epik_cmdline>  (55) 
J2VwaWtfcHl0aG9uJywgJy1waHQnLCAnMi4wJywgJy1waCcsICc3LjAnLCAnLXRuJywgJzgnLCAnLW1hJywgJzIwMCcsICctaW1hZScsICc8aW5maWxlLm1hZT4nLCAnLW9tYWUnLCAnPG91dGZpbGUubWFlPic=

>  <r_epik_Ionization_Penalty>  (55) 
0.00696292

>  <r_epik_Ionization_Penalty_Charging>  (55) 
0

>  <r_epik_Ionization_Penalty_Neutral>  (55) 
0.00696292

>  <r_epik_State_Penalty>  (55) 
0.00517771

>  <r_epik_Charging_Adjusted_Penalty>  (55) 
0.00517771

>  <i_epik_Tot_Q>  (55) 
0

>  <i_epik_Tot_abs_Q>  (55) 
0

>  <s_lp_Force_Field>  (55) 
OPLS3e

>  <r_lp_Energy>  (55) 
5.42812

>  <b_lp_Chiralities_Consistent>  (55) 
1

>  <s_lp_Variant>  (55) 
14:0-1

>  <s_i_glide_gridfile>  (55) 
pfpi4k_grid

>  <i_i_glide_lignum>  (55) 
23

>  <i_i_glide_rotatable_bonds>  (55) 
1

>  <r_i_docking_score>  (55) 
-4.24666

>  <r_i_glide_ligand_efficiency>  (55) 
-0.235926

>  <r_i_glide_ligand_efficiency_sa>  (55) 
-0.6183

>  <r_i_glide_ligand_efficiency_ln>  (55) 
-1.09158

>  <r_i_glide_gscore>  (55) 
-4.24666

>  <r_i_glide_lipo>  (55) 
-0.712851

>  <r_i_glide_hbond>  (55) 
-0.32

>  <r_i_glide_metal>  (55) 
-0

>  <r_i_glide_rewards>  (55) 
-1.75721

>  <r_i_glide_evdw>  (55) 
-22.6515

>  <r_i_glide_ecoul>  (55) 
-3.84578

>  <r_i_glide_erotb>  (55) 
0.295446

>  <r_i_glide_esite>  (55) 
-0.0426094

>  <r_i_glide_emodel>  (55) 
-32.6792

>  <r_i_glide_energy>  (55) 
-26.4973

>  <r_i_glide_einternal>  (55) 
0.228458

>  <r_i_glide_intrahb_reward>  (55) 
-0

>  <i_i_glide_confnum>  (55) 
3

>  <i_i_glide_posenum>  (55) 
1

>  <r_i_glide_eff_state_penalty>  (55) 
0

>  <ligand_id>  (55) 
14

>  <original_smiles>  (55) 
c1cc2[nH]ncc2c2c1ncn2C1CCOCC1

>  <smiles>  (55) 
[H]c1c([H])c2c(c([H])nn2[H])c2c1nc([H])n2C1([H])C([H])([H])C([H])([H])OC([H])([H])C1([H])[H]

$$$$
14:0:2
     RDKit          3D

 32 35  0  0  1  0  0  0  0  0999 V2000
    2.2068   -3.7294    2.8082 C   0  0  0  0  0  0  0  0  0  0  0  0
    2.0867   -2.5769    3.6012 C   0  0  0  0  0  0  0  0  0  0  0  0
    2.4864   -1.3207    3.0998 C   0  0  0  0  0  0  0  0  0  0  0  0
    2.4680   -0.0760    3.6782 N   0  0  0  0  0  0  0  0  0  0  0  0
    2.9702    0.8415    2.7749 N   0  0  0  0  0  0  0  0  0  0  0  0
    3.2729    0.1256    1.6795 C   0  0  0  0  0  0  0  0  0  0  0  0
    2.9970   -1.2453    1.8174 C   0  0  0  0  0  0  0  0  0  0  0  0
    3.1300   -2.3922    0.9879 C   0  0  0  0  0  0  0  0  0  0  0  0
    2.7190   -3.6381    1.5096 C   0  0  0  0  0  0  0  0  0  0  0  0
    2.8774   -4.6768    0.6464 N   0  0  0  0  0  0  0  0  0  0  0  0
    3.4186   -4.0396   -0.3960 C   0  0  0  0  0  0  0  0  0  0  0  0
    3.5738   -2.6781   -0.2602 N   0  0  0  0  0  0  0  0  0  0  0  0
    4.1322   -1.6759   -1.1917 C   0  0  0  0  0  0  0  0  0  0  0  0
    3.3783   -1.5859   -2.5292 C   0  0  0  0  0  0  0  0  0  0  0  0
    3.6113   -2.8250   -3.4068 C   0  0  0  0  0  0  0  0  0  0  0  0
    5.0225   -3.0538   -3.5588 O   0  0  0  0  0  0  0  0  0  0  0  0
    5.8299   -3.1488   -2.3715 C   0  0  0  0  0  0  0  0  0  0  0  0
    5.6208   -1.9136   -1.4781 C   0  0  0  0  0  0  0  0  0  0  0  0
    2.1605    0.1923    4.5977 H   0  0  0  0  0  0  0  0  0  0  0  0
    1.9133   -4.7055    3.1618 H   0  0  0  0  0  0  0  0  0  0  0  0
    1.6834   -2.6708    4.6083 H   0  0  0  0  0  0  0  0  0  0  0  0
    3.6898    0.5792    0.8074 H   0  0  0  0  0  0  0  0  0  0  0  0
    3.7093   -4.6281   -1.2546 H   0  0  0  0  0  0  0  0  0  0  0  0
    4.0577   -0.6905   -0.7493 H   0  0  0  0  0  0  0  0  0  0  0  0
    2.3170   -1.4497   -2.3453 H   0  0  0  0  0  0  0  0  0  0  0  0
    3.6906   -0.6964   -3.0685 H   0  0  0  0  0  0  0  0  0  0  0  0
    3.1038   -3.7151   -2.9973 H   0  0  0  0  0  0  0  0  0  0  0  0
    3.1705   -2.6599   -4.4008 H   0  0  0  0  0  0  0  0  0  0  0  0
    5.6250   -4.0774   -1.8170 H   0  0  0  0  0  0  0  0  0  0  0  0
    6.8879   -3.2098   -2.6628 H   0  0  0  0  0  0  0  0  0  0  0  0
    6.0196   -1.0390   -1.9831 H   0  0  0  0  0  0  0  0  0  0  0  0
    6.1834   -1.9932   -0.5448 H   0  0  0  0  0  0  0  0  0  0  0  0
  1  9  2  0
  1  2  1  0
  1 20  1  0
  2  3  2  0
  2 21  1  0
  3  7  1  0
  3  4  1  0
  4 19  1  0
  4  5  1  0
  5  6  2  0
  6  7  1  0
  6 22  1  0
  7  8  2  0
  8 12  1  0
  8  9  1  0
  9 10  1  0
 10 11  2  0
 11 12  1  0
 11 23  1  0
 12 13  1  0
 13 18  1  0
 13 14  1  0
 13 24  1  0
 14 15  1  0
 14 25  1  0
 14 26  1  0
 15 16  1  0
 15 27  1  0
 15 28  1  0
 16 17  1  0
 17 18  1  0
 17 29  1  0
 17 30  1  0
 18 31  1  0
 18 32  1  0
M  END
>  <i_m_ct_stereo_status>  (56) 
1

>  <s_m_source_file>  (56) 
/var/tmp/pbs.5076255.sched01/tmpj20d55gn/0_c3see42.sdf

>  <i_m_source_file_index>  (56) 
23

>  <i_lp_mmshare_version>  (56) 
48012

>  <i_f3d_flags>  (56) 
0

>  <s_epik_input>  (56) 
W25IXTFuW2NIXWMoYzEyKWMzYyhbY0hdW2NIXTIpbltjSF1uM1tDSF00W0NIMl1bQ0gyXU9bQ0gyXVtDSDJdNA==

>  <s_epik_cmdline>  (56) 
J2VwaWtfcHl0aG9uJywgJy1waHQnLCAnMi4wJywgJy1waCcsICc3LjAnLCAnLXRuJywgJzgnLCAnLW1hJywgJzIwMCcsICctaW1hZScsICc8aW5maWxlLm1hZT4nLCAnLW9tYWUnLCAnPG91dGZpbGUubWFlPic=

>  <r_epik_Ionization_Penalty>  (56) 
0.00696292

>  <r_epik_Ionization_Penalty_Charging>  (56) 
0

>  <r_epik_Ionization_Penalty_Neutral>  (56) 
0.00696292

>  <r_epik_State_Penalty>  (56) 
0.00517771

>  <r_epik_Charging_Adjusted_Penalty>  (56) 
0.00517771

>  <i_epik_Tot_Q>  (56) 
0

>  <i_epik_Tot_abs_Q>  (56) 
0

>  <s_lp_Force_Field>  (56) 
OPLS3e

>  <r_lp_Energy>  (56) 
5.42812

>  <b_lp_Chiralities_Consistent>  (56) 
1

>  <s_lp_Variant>  (56) 
14:0-1

>  <s_i_glide_gridfile>  (56) 
pfpi4k_grid

>  <i_i_glide_lignum>  (56) 
23

>  <i_i_glide_rotatable_bonds>  (56) 
1

>  <r_i_docking_score>  (56) 
-3.29019

>  <r_i_glide_ligand_efficiency>  (56) 
-0.182788

>  <r_i_glide_ligand_efficiency_sa>  (56) 
-0.479041

>  <r_i_glide_ligand_efficiency_ln>  (56) 
-0.845727

>  <r_i_glide_gscore>  (56) 
-3.29019

>  <r_i_glide_lipo>  (56) 
-0.411236

>  <r_i_glide_hbond>  (56) 
0

>  <r_i_glide_metal>  (56) 
-0

>  <r_i_glide_rewards>  (56) 
-1.75721

>  <r_i_glide_evdw>  (56) 
-22.9691

>  <r_i_glide_ecoul>  (56) 
-1.46998

>  <r_i_glide_erotb>  (56) 
0.295446

>  <r_i_glide_esite>  (56) 
-0.048242

>  <r_i_glide_emodel>  (56) 
-28.0283

>  <r_i_glide_energy>  (56) 
-24.4391

>  <r_i_glide_einternal>  (56) 
2.29403

>  <r_i_glide_intrahb_reward>  (56) 
-0

>  <i_i_glide_confnum>  (56) 
4

>  <i_i_glide_posenum>  (56) 
3

>  <r_i_glide_eff_state_penalty>  (56) 
0

>  <ligand_id>  (56) 
14

>  <original_smiles>  (56) 
c1cc2[nH]ncc2c2c1ncn2C1CCOCC1

>  <smiles>  (56) 
[H]c1c([H])c2c(c([H])nn2[H])c2c1nc([H])n2C1([H])C([H])([H])C([H])([H])OC([H])([H])C1([H])[H]

$$$$
16:0:0
     RDKit          3D

 50 53  0  0  1  0  0  0  0  0999 V2000
    5.3544   -1.7072   -1.9012 C   0  0  0  0  0  0  0  0  0  0  0  0
    4.4029   -1.7145   -0.7233 C   0  0  0  0  0  0  0  0  0  0  0  0
    4.5883   -1.0097    0.4069 C   0  0  0  0  0  0  0  0  0  0  0  0
    3.7016   -0.9908    1.5856 C   0  0  0  0  0  0  0  0  0  0  0  0
    2.5516   -1.8112    1.6862 C   0  0  0  0  0  0  0  0  0  0  0  0
    1.7274   -1.7561    2.8249 C   0  0  0  0  0  0  0  0  0  0  0  0
    2.0327   -0.8694    3.8704 C   0  0  0  0  0  0  0  0  0  0  0  0
    3.1636   -0.0374    3.7805 C   0  0  0  0  0  0  0  0  0  0  0  0
    3.9976   -0.1107    2.6479 C   0  0  0  0  0  0  0  0  0  0  0  0
    3.4051    0.9585    4.9008 C   0  0  0  0  0  0  0  0  0  0  0  0
    2.0904    1.7011    5.2526 C   0  0  1  0  0  0  0  0  0  0  0  0
    1.8326    2.8111    4.1754 C   0  0  0  0  0  0  0  0  0  0  0  0
    0.3465    3.0711    3.8423 C   0  0  2  0  0  0  0  0  0  0  0  0
   -0.4352    3.5682    5.0440 C   0  0  0  0  0  0  0  0  0  0  0  0
   -0.5298    4.8175    5.1116 O   0  0  0  0  0  0  0  0  0  0  0  0
   -0.9195    2.4676    5.7045 C   0  0  0  0  0  0  0  0  0  0  0  0
   -1.7941    2.3800    6.8957 C   0  0  0  0  0  0  0  0  0  0  0  0
   -2.1865    1.3170    7.3745 O   0  0  0  0  0  0  0  0  0  0  0  0
   -2.0917    3.5990    7.3896 O   0  0  0  0  0  0  0  0  0  0  0  0
   -2.8607    3.7481    8.5707 C   0  0  0  0  0  0  0  0  0  0  0  0
   -0.4824    1.2142    4.9634 C   0  0  2  0  0  0  0  0  0  0  0  0
    0.8831    0.7075    5.5128 C   0  0  1  0  0  0  0  0  0  0  0  0
    1.1665   -0.7615    5.1055 C   0  0  0  0  0  0  0  0  0  0  0  0
   -0.2414    1.7384    3.5951 N   0  0  1  0  0  0  0  0  0  0  0  0
   -1.4226    1.7475    2.7010 C   0  0  0  0  0  0  0  0  0  0  0  0
    4.8428   -1.3492   -2.7960 H   0  0  0  0  0  0  0  0  0  0  0  0
    5.7264   -2.7142   -2.0972 H   0  0  0  0  0  0  0  0  0  0  0  0
    6.2080   -1.0617   -1.7096 H   0  0  0  0  0  0  0  0  0  0  0  0
    3.5329   -2.3395   -0.8504 H   0  0  0  0  0  0  0  0  0  0  0  0
    5.4743   -0.3942    0.4766 H   0  0  0  0  0  0  0  0  0  0  0  0
    2.2827   -2.4846    0.8916 H   0  0  0  0  0  0  0  0  0  0  0  0
    0.8504   -2.3854    2.8850 H   0  0  0  0  0  0  0  0  0  0  0  0
    4.8624    0.5319    2.5832 H   0  0  0  0  0  0  0  0  0  0  0  0
    3.7631    0.4067    5.7692 H   0  0  0  0  0  0  0  0  0  0  0  0
    4.1987    1.6595    4.6351 H   0  0  0  0  0  0  0  0  0  0  0  0
    2.2626    2.2334    6.1903 H   0  0  0  0  0  0  0  0  0  0  0  0
    2.3108    3.7446    4.4802 H   0  0  0  0  0  0  0  0  0  0  0  0
    2.3156    2.5371    3.2368 H   0  0  0  0  0  0  0  0  0  0  0  0
    0.2416    3.7395    2.9839 H   0  0  0  0  0  0  0  0  0  0  0  0
   -2.9751    4.8069    8.8056 H   0  0  0  0  0  0  0  0  0  0  0  0
   -2.3787    3.2735    9.4245 H   0  0  0  0  0  0  0  0  0  0  0  0
   -3.8568    3.3284    8.4459 H   0  0  0  0  0  0  0  0  0  0  0  0
   -1.2437    0.4318    4.9551 H   0  0  0  0  0  0  0  0  0  0  0  0
    0.7473    0.6624    6.5958 H   0  0  0  0  0  0  0  0  0  0  0  0
    0.2512   -1.3444    5.0055 H   0  0  0  0  0  0  0  0  0  0  0  0
    1.7305   -1.2369    5.9121 H   0  0  0  0  0  0  0  0  0  0  0  0
   -2.2413    2.3499    3.1097 H   0  0  0  0  0  0  0  0  0  0  0  0
   -1.7736    0.7229    2.5550 H   0  0  0  0  0  0  0  0  0  0  0  0
   -1.1423    2.1431    1.7186 H   0  0  0  0  0  0  0  0  0  0  0  0
    0.4592    1.1803    3.1389 H   0  0  0  0  0  0  0  0  0  0  0  0
  1  2  1  0
  1 26  1  0
  1 27  1  0
  1 28  1  0
  2  3  2  3
  2 29  1  0
  3  4  1  0
  3 30  1  0
  4  9  2  0
  4  5  1  0
  5  6  2  0
  5 31  1  0
  6  7  1  0
  6 32  1  0
  7 23  1  0
  7  8  2  0
  8  9  1  0
  8 10  1  0
  9 33  1  0
 10 11  1  0
 10 34  1  0
 10 35  1  0
 11 22  1  0
 11 12  1  0
 11 36  1  1
 12 13  1  0
 12 37  1  0
 12 38  1  0
 13 24  1  0
 13 14  1  0
 13 39  1  6
 14 15  1  0
 14 16  2  0
 16 17  1  0
 16 21  1  0
 17 18  2  0
 17 19  1  0
 19 20  1  0
 20 40  1  0
 20 41  1  0
 20 42  1  0
 21 22  1  0
 21 24  1  0
 21 43  1  6
 22 23  1  0
 22 44  1  1
 23 45  1  0
 23 46  1  0
 24 25  1  0
 24 50  1  6
 25 47  1  0
 25 48  1  0
 25 49  1  0
M  CHG  2  15  -1  24   1
M  END
>  <i_m_ct_stereo_status>  (57) 
1

>  <s_m_source_file>  (57) 
/var/tmp/pbs.5076255.sched01/tmpj20d55gn/0_c3see42.sdf

>  <i_m_source_file_index>  (57) 
24

>  <i_lp_mmshare_version>  (57) 
48012

>  <i_f3d_flags>  (57) 
0

>  <s_epik_input>  (57) 
W0NIM10vW0NIXT1bQ0hdL2MoW2NIXVtjSF0xKVtjSF1jKGMxMilbQ0gyXVtDQEBIXTNbQ0BIXShbQ0gyXTIpW0NASF00W0NASF0oQyg9TylPW0NIM10pQyg9TylbQ0BASF0oW0NIMl0zKU40W0NIM10=

>  <s_epik_cmdline>  (57) 
J2VwaWtfcHl0aG9uJywgJy1waHQnLCAnMi4wJywgJy1waCcsICc3LjAnLCAnLXRuJywgJzgnLCAnLW1hJywgJzIwMCcsICctaW1hZScsICc8aW5maWxlLm1hZT4nLCAnLW9tYWUnLCAnPG91dGZpbGUubWFlPic=

>  <r_epik_Ionization_Penalty>  (57) 
2.30586e-05

>  <r_epik_Ionization_Penalty_Charging>  (57) 
2.30585e-05

>  <r_epik_Ionization_Penalty_Neutral>  (57) 
4.51834e-11

>  <r_epik_State_Penalty>  (57) 
9.61511e-06

>  <r_epik_Charging_Adjusted_Penalty>  (57) 
3.26736e-05

>  <i_epik_Tot_Q>  (57) 
0

>  <i_epik_Tot_abs_Q>  (57) 
2

>  <s_epik_Chemistry_Notes>  (57) 
This compound has an ester and may undergo hydrolysis at high or low pH.

>  <s_lp_Force_Field>  (57) 
OPLS3e

>  <r_lp_Energy>  (57) 
25.0865

>  <b_lp_Chiralities_Consistent>  (57) 
1

>  <s_lp_Variant>  (57) 
16:0-1

>  <s_i_glide_gridfile>  (57) 
pfpi4k_grid

>  <i_i_glide_lignum>  (57) 
24

>  <i_i_glide_rotatable_bonds>  (57) 
3

>  <r_i_docking_score>  (57) 
-2.9136

>  <r_i_glide_ligand_efficiency>  (57) 
-0.116544

>  <r_i_glide_ligand_efficiency_sa>  (57) 
-0.340777

>  <r_i_glide_ligand_efficiency_ln>  (57) 
-0.69061

>  <r_i_glide_gscore>  (57) 
-2.9136

>  <r_i_glide_lipo>  (57) 
-0.155989

>  <r_i_glide_hbond>  (57) 
-0.16

>  <r_i_glide_metal>  (57) 
-0

>  <r_i_glide_rewards>  (57) 
-1.09942

>  <r_i_glide_evdw>  (57) 
-19.8969

>  <r_i_glide_ecoul>  (57) 
-5.33363

>  <r_i_glide_erotb>  (57) 
0.328519

>  <r_i_glide_esite>  (57) 
-0.0318185

>  <r_i_glide_emodel>  (57) 
-31.1958

>  <r_i_glide_energy>  (57) 
-25.2305

>  <r_i_glide_einternal>  (57) 
0.0521661

>  <r_i_glide_intrahb_reward>  (57) 
-0

>  <i_i_glide_confnum>  (57) 
1

>  <i_i_glide_posenum>  (57) 
1

>  <r_i_glide_eff_state_penalty>  (57) 
0

>  <ligand_id>  (57) 
16

>  <original_smiles>  (57) 
CC=Cc1ccc2c(c1)CC1CC3C(=O)C(C(=O)OC)C(C1C2)N3C

>  <smiles>  (57) 
[H]C(=C([H])C([H])([H])[H])c1c([H])c([H])c2c(c1[H])C([H])([H])C1([H])C([H])([H])C3([H])C([O-])=C(C(=O)OC([H])([H])[H])C([H])(C1([H])C2([H])[H])[N+]3([H])C([H])([H])[H]

$$$$
16:0:1
     RDKit          3D

 50 53  0  0  1  0  0  0  0  0999 V2000
    4.2653   -2.0325   -1.9223 C   0  0  0  0  0  0  0  0  0  0  0  0
    3.5150   -1.8888   -0.6139 C   0  0  0  0  0  0  0  0  0  0  0  0
    3.8643   -1.0462    0.3744 C   0  0  0  0  0  0  0  0  0  0  0  0
    3.1788   -0.8743    1.6713 C   0  0  0  0  0  0  0  0  0  0  0  0
    2.0808   -1.6756    2.0657 C   0  0  0  0  0  0  0  0  0  0  0  0
    1.4428   -1.4697    3.3033 C   0  0  0  0  0  0  0  0  0  0  0  0
    1.8985   -0.4521    4.1592 C   0  0  0  0  0  0  0  0  0  0  0  0
    2.9791    0.3615    3.7788 C   0  0  0  0  0  0  0  0  0  0  0  0
    3.6167    0.1417    2.5418 C   0  0  0  0  0  0  0  0  0  0  0  0
    3.3777    1.4995    4.7017 C   0  0  0  0  0  0  0  0  0  0  0  0
    2.1212    2.2807    5.1635 C   0  0  1  0  0  0  0  0  0  0  0  0
    1.6641    3.2377    4.0090 C   0  0  0  0  0  0  0  0  0  0  0  0
    0.1388    3.4484    3.8942 C   0  0  2  0  0  0  0  0  0  0  0  0
   -0.4544    4.0862    5.1375 C   0  0  0  0  0  0  0  0  0  0  0  0
   -0.5680    5.3341    5.0671 O   0  0  0  0  0  0  0  0  0  0  0  0
   -0.7819    3.0740    6.0005 C   0  0  0  0  0  0  0  0  0  0  0  0
   -1.4554    3.1566    7.3162 C   0  0  0  0  0  0  0  0  0  0  0  0
   -2.1001    4.1355    7.6860 O   0  0  0  0  0  0  0  0  0  0  0  0
   -1.2641    2.0549    8.0720 O   0  0  0  0  0  0  0  0  0  0  0  0
   -1.6336    2.0995    9.4443 C   0  0  0  0  0  0  0  0  0  0  0  0
   -0.4466    1.7427    5.3589 C   0  0  2  0  0  0  0  0  0  0  0  0
    0.9988    1.3246    5.7419 C   0  0  1  0  0  0  0  0  0  0  0  0
    1.2432   -0.1832    5.4948 C   0  0  0  0  0  0  0  0  0  0  0  0
   -0.4498    2.0944    3.9163 N   0  0  1  0  0  0  0  0  0  0  0  0
   -1.7646    1.9942    3.2415 C   0  0  0  0  0  0  0  0  0  0  0  0
    3.6040   -1.7968   -2.7572 H   0  0  0  0  0  0  0  0  0  0  0  0
    4.6171   -3.0582   -2.0445 H   0  0  0  0  0  0  0  0  0  0  0  0
    5.1251   -1.3634   -1.9649 H   0  0  0  0  0  0  0  0  0  0  0  0
    2.6461   -2.5219   -0.5198 H   0  0  0  0  0  0  0  0  0  0  0  0
    4.7366   -0.4280    0.2188 H   0  0  0  0  0  0  0  0  0  0  0  0
    1.7120   -2.4507    1.4179 H   0  0  0  0  0  0  0  0  0  0  0  0
    0.6021   -2.0876    3.5858 H   0  0  0  0  0  0  0  0  0  0  0  0
    4.4359    0.7706    2.2461 H   0  0  0  0  0  0  0  0  0  0  0  0
    3.8843    1.0679    5.5644 H   0  0  0  0  0  0  0  0  0  0  0  0
    4.1025    2.1580    4.2207 H   0  0  0  0  0  0  0  0  0  0  0  0
    2.4318    2.9317    5.9841 H   0  0  0  0  0  0  0  0  0  0  0  0
    2.1646    4.2026    4.1065 H   0  0  0  0  0  0  0  0  0  0  0  0
    1.9964    2.8448    3.0474 H   0  0  0  0  0  0  0  0  0  0  0  0
   -0.1200    3.9993    2.9883 H   0  0  0  0  0  0  0  0  0  0  0  0
   -1.3784    1.1490    9.9067 H   0  0  0  0  0  0  0  0  0  0  0  0
   -2.7060    2.2631    9.5645 H   0  0  0  0  0  0  0  0  0  0  0  0
   -1.0996    2.8819    9.9891 H   0  0  0  0  0  0  0  0  0  0  0  0
   -1.1847    0.9688    5.5791 H   0  0  0  0  0  0  0  0  0  0  0  0
    1.0442    1.4244    6.8278 H   0  0  0  0  0  0  0  0  0  0  0  0
    0.3363   -0.7733    5.6222 H   0  0  0  0  0  0  0  0  0  0  0  0
    1.9415   -0.5460    6.2529 H   0  0  0  0  0  0  0  0  0  0  0  0
   -2.5130    2.6516    3.6931 H   0  0  0  0  0  0  0  0  0  0  0  0
   -2.1212    0.9665    3.3116 H   0  0  0  0  0  0  0  0  0  0  0  0
   -1.6779    2.2438    2.1783 H   0  0  0  0  0  0  0  0  0  0  0  0
    0.1813    1.4836    3.4248 H   0  0  0  0  0  0  0  0  0  0  0  0
  1  2  1  0
  1 26  1  0
  1 27  1  0
  1 28  1  0
  2  3  2  3
  2 29  1  0
  3  4  1  0
  3 30  1  0
  4  9  2  0
  4  5  1  0
  5  6  2  0
  5 31  1  0
  6  7  1  0
  6 32  1  0
  7 23  1  0
  7  8  2  0
  8  9  1  0
  8 10  1  0
  9 33  1  0
 10 11  1  0
 10 34  1  0
 10 35  1  0
 11 22  1  0
 11 12  1  0
 11 36  1  1
 12 13  1  0
 12 37  1  0
 12 38  1  0
 13 24  1  0
 13 14  1  0
 13 39  1  6
 14 15  1  0
 14 16  2  0
 16 17  1  0
 16 21  1  0
 17 18  2  0
 17 19  1  0
 19 20  1  0
 20 40  1  0
 20 41  1  0
 20 42  1  0
 21 22  1  0
 21 24  1  0
 21 43  1  6
 22 23  1  0
 22 44  1  1
 23 45  1  0
 23 46  1  0
 24 25  1  0
 24 50  1  6
 25 47  1  0
 25 48  1  0
 25 49  1  0
M  CHG  2  15  -1  24   1
M  END
>  <i_m_ct_stereo_status>  (58) 
1

>  <s_m_source_file>  (58) 
/var/tmp/pbs.5076255.sched01/tmpj20d55gn/0_c3see42.sdf

>  <i_m_source_file_index>  (58) 
24

>  <i_lp_mmshare_version>  (58) 
48012

>  <i_f3d_flags>  (58) 
0

>  <s_epik_input>  (58) 
W0NIM10vW0NIXT1bQ0hdL2MoW2NIXVtjSF0xKVtjSF1jKGMxMilbQ0gyXVtDQEBIXTNbQ0BIXShbQ0gyXTIpW0NASF00W0NASF0oQyg9TylPW0NIM10pQyg9TylbQ0BASF0oW0NIMl0zKU40W0NIM10=

>  <s_epik_cmdline>  (58) 
J2VwaWtfcHl0aG9uJywgJy1waHQnLCAnMi4wJywgJy1waCcsICc3LjAnLCAnLXRuJywgJzgnLCAnLW1hJywgJzIwMCcsICctaW1hZScsICc8aW5maWxlLm1hZT4nLCAnLW9tYWUnLCAnPG91dGZpbGUubWFlPic=

>  <r_epik_Ionization_Penalty>  (58) 
2.30586e-05

>  <r_epik_Ionization_Penalty_Charging>  (58) 
2.30585e-05

>  <r_epik_Ionization_Penalty_Neutral>  (58) 
4.51834e-11

>  <r_epik_State_Penalty>  (58) 
9.61511e-06

>  <r_epik_Charging_Adjusted_Penalty>  (58) 
3.26736e-05

>  <i_epik_Tot_Q>  (58) 
0

>  <i_epik_Tot_abs_Q>  (58) 
2

>  <s_epik_Chemistry_Notes>  (58) 
This compound has an ester and may undergo hydrolysis at high or low pH.

>  <s_lp_Force_Field>  (58) 
OPLS3e

>  <r_lp_Energy>  (58) 
25.0865

>  <b_lp_Chiralities_Consistent>  (58) 
1

>  <s_lp_Variant>  (58) 
16:0-1

>  <s_i_glide_gridfile>  (58) 
pfpi4k_grid

>  <i_i_glide_lignum>  (58) 
24

>  <i_i_glide_rotatable_bonds>  (58) 
3

>  <r_i_docking_score>  (58) 
-2.29988

>  <r_i_glide_ligand_efficiency>  (58) 
-0.0919952

>  <r_i_glide_ligand_efficiency_sa>  (58) 
-0.268996

>  <r_i_glide_ligand_efficiency_ln>  (58) 
-0.545141

>  <r_i_glide_gscore>  (58) 
-2.29988

>  <r_i_glide_lipo>  (58) 
-0.0176877

>  <r_i_glide_hbond>  (58) 
-0.00217479

>  <r_i_glide_metal>  (58) 
-0

>  <r_i_glide_rewards>  (58) 
-1.13158

>  <r_i_glide_evdw>  (58) 
-16.598

>  <r_i_glide_ecoul>  (58) 
-4.10621

>  <r_i_glide_erotb>  (58) 
0.328519

>  <r_i_glide_esite>  (58) 
-0.0311273

>  <r_i_glide_emodel>  (58) 
-23.7195

>  <r_i_glide_energy>  (58) 
-20.7042

>  <r_i_glide_einternal>  (58) 
2.93499

>  <r_i_glide_intrahb_reward>  (58) 
-0

>  <i_i_glide_confnum>  (58) 
3

>  <i_i_glide_posenum>  (58) 
24

>  <r_i_glide_eff_state_penalty>  (58) 
0

>  <ligand_id>  (58) 
16

>  <original_smiles>  (58) 
CC=Cc1ccc2c(c1)CC1CC3C(=O)C(C(=O)OC)C(C1C2)N3C

>  <smiles>  (58) 
[H]C(=C([H])C([H])([H])[H])c1c([H])c([H])c2c(c1[H])C([H])([H])C1([H])C([H])([H])C3([H])C([O-])=C(C(=O)OC([H])([H])[H])C([H])(C1([H])C2([H])[H])[N+]3([H])C([H])([H])[H]

$$$$
16:0:2
     RDKit          3D

 50 53  0  0  1  0  0  0  0  0999 V2000
    4.3538   -1.4213   -3.0537 C   0  0  0  0  0  0  0  0  0  0  0  0
    3.7603   -1.5129   -1.6604 C   0  0  0  0  0  0  0  0  0  0  0  0
    4.0521   -0.6713   -0.6585 C   0  0  0  0  0  0  0  0  0  0  0  0
    3.5113   -0.7286    0.7190 C   0  0  0  0  0  0  0  0  0  0  0  0
    2.6783   -1.7742    1.1793 C   0  0  0  0  0  0  0  0  0  0  0  0
    2.1534   -1.7451    2.4822 C   0  0  0  0  0  0  0  0  0  0  0  0
    2.4662   -0.6763    3.3437 C   0  0  0  0  0  0  0  0  0  0  0  0
    3.2803    0.3765    2.8975 C   0  0  0  0  0  0  0  0  0  0  0  0
    3.7850    0.3388    1.5810 C   0  0  0  0  0  0  0  0  0  0  0  0
    3.5192    1.5305    3.8652 C   0  0  0  0  0  0  0  0  0  0  0  0
    2.2037    2.0020    4.5064 C   0  0  1  0  0  0  0  0  0  0  0  0
    1.4359    2.8926    3.4637 C   0  0  0  0  0  0  0  0  0  0  0  0
   -0.0979    2.7654    3.5212 C   0  0  2  0  0  0  0  0  0  0  0  0
   -0.6712    3.2104    4.8533 C   0  0  0  0  0  0  0  0  0  0  0  0
   -1.0590    4.4023    4.8792 O   0  0  0  0  0  0  0  0  0  0  0  0
   -0.6685    2.1183    5.6859 C   0  0  0  0  0  0  0  0  0  0  0  0
   -1.1666    1.9964    7.0705 C   0  0  0  0  0  0  0  0  0  0  0  0
   -2.0242    2.7294    7.5573 O   0  0  0  0  0  0  0  0  0  0  0  0
   -0.5543    1.0020    7.7525 O   0  0  0  0  0  0  0  0  0  0  0  0
   -0.4819    1.0941    9.1698 C   0  0  0  0  0  0  0  0  0  0  0  0
   -0.1309    0.9191    4.9348 C   0  0  2  0  0  0  0  0  0  0  0  0
    1.4009    0.8020    5.1391 C   0  0  1  0  0  0  0  0  0  0  0  0
    1.9349   -0.6040    4.7593 C   0  0  0  0  0  0  0  0  0  0  0  0
   -0.3584    1.3155    3.5223 N   0  0  1  0  0  0  0  0  0  0  0  0
   -1.6883    0.9641    2.9996 C   0  0  0  0  0  0  0  0  0  0  0  0
    3.5733   -1.2911   -3.7990 H   0  0  0  0  0  0  0  0  0  0  0  0
    4.9255   -2.3211   -3.2965 H   0  0  0  0  0  0  0  0  0  0  0  0
    5.0125   -0.5539   -3.1152 H   0  0  0  0  0  0  0  0  0  0  0  0
    3.0645   -2.3258   -1.5256 H   0  0  0  0  0  0  0  0  0  0  0  0
    4.7564    0.1140   -0.8528 H   0  0  0  0  0  0  0  0  0  0  0  0
    2.3932   -2.5675    0.5172 H   0  0  0  0  0  0  0  0  0  0  0  0
    1.4936   -2.5293    2.8169 H   0  0  0  0  0  0  0  0  0  0  0  0
    4.3445    1.1457    1.1530 H   0  0  0  0  0  0  0  0  0  0  0  0
    4.2267    1.2063    4.6332 H   0  0  0  0  0  0  0  0  0  0  0  0
    3.9226    2.4069    3.3839 H   0  0  0  0  0  0  0  0  0  0  0  0
    2.4618    2.6814    5.3205 H   0  0  0  0  0  0  0  0  0  0  0  0
    1.7130    3.9447    3.5695 H   0  0  0  0  0  0  0  0  0  0  0  0
    1.7215    2.6228    2.4471 H   0  0  0  0  0  0  0  0  0  0  0  0
   -0.5902    3.2783    2.6930 H   0  0  0  0  0  0  0  0  0  0  0  0
    0.0337    0.2203    9.5666 H   0  0  0  0  0  0  0  0  0  0  0  0
   -1.4642    1.1550    9.6301 H   0  0  0  0  0  0  0  0  0  0  0  0
    0.0727    1.9836    9.4776 H   0  0  0  0  0  0  0  0  0  0  0  0
   -0.6447   -0.0134    5.1792 H   0  0  0  0  0  0  0  0  0  0  0  0
    1.5639    0.8666    6.2164 H   0  0  0  0  0  0  0  0  0  0  0  0
    1.2008   -1.3864    4.9415 H   0  0  0  0  0  0  0  0  0  0  0  0
    2.7891   -0.8252    5.4078 H   0  0  0  0  0  0  0  0  0  0  0  0
   -2.4735    1.4337    3.6131 H   0  0  0  0  0  0  0  0  0  0  0  0
   -1.7486   -0.1277    3.0624 H   0  0  0  0  0  0  0  0  0  0  0  0
   -1.7870    1.2696    1.9456 H   0  0  0  0  0  0  0  0  0  0  0  0
    0.3298    0.8826    2.9262 H   0  0  0  0  0  0  0  0  0  0  0  0
  1  2  1  0
  1 26  1  0
  1 27  1  0
  1 28  1  0
  2  3  2  3
  2 29  1  0
  3  4  1  0
  3 30  1  0
  4  9  2  0
  4  5  1  0
  5  6  2  0
  5 31  1  0
  6  7  1  0
  6 32  1  0
  7 23  1  0
  7  8  2  0
  8  9  1  0
  8 10  1  0
  9 33  1  0
 10 11  1  0
 10 34  1  0
 10 35  1  0
 11 22  1  0
 11 12  1  0
 11 36  1  1
 12 13  1  0
 12 37  1  0
 12 38  1  0
 13 24  1  0
 13 14  1  0
 13 39  1  6
 14 15  1  0
 14 16  2  0
 16 17  1  0
 16 21  1  0
 17 18  2  0
 17 19  1  0
 19 20  1  0
 20 40  1  0
 20 41  1  0
 20 42  1  0
 21 22  1  0
 21 24  1  0
 21 43  1  1
 22 23  1  0
 22 44  1  1
 23 45  1  0
 23 46  1  0
 24 25  1  0
 24 50  1  6
 25 47  1  0
 25 48  1  0
 25 49  1  0
M  CHG  2  15  -1  24   1
M  END
>  <i_m_ct_stereo_status>  (59) 
1

>  <s_m_source_file>  (59) 
/var/tmp/pbs.5076255.sched01/tmpj20d55gn/0_c3see42.sdf

>  <i_m_source_file_index>  (59) 
24

>  <i_lp_mmshare_version>  (59) 
48012

>  <i_f3d_flags>  (59) 
0

>  <s_epik_input>  (59) 
W0NIM10vW0NIXT1bQ0hdL2MoW2NIXVtjSF0xKVtjSF1jKGMxMilbQ0gyXVtDQEBIXTNbQ0BIXShbQ0gyXTIpW0NASF00W0NASF0oQyg9TylPW0NIM10pQyg9TylbQ0BASF0oW0NIMl0zKU40W0NIM10=

>  <s_epik_cmdline>  (59) 
J2VwaWtfcHl0aG9uJywgJy1waHQnLCAnMi4wJywgJy1waCcsICc3LjAnLCAnLXRuJywgJzgnLCAnLW1hJywgJzIwMCcsICctaW1hZScsICc8aW5maWxlLm1hZT4nLCAnLW9tYWUnLCAnPG91dGZpbGUubWFlPic=

>  <r_epik_Ionization_Penalty>  (59) 
2.30586e-05

>  <r_epik_Ionization_Penalty_Charging>  (59) 
2.30585e-05

>  <r_epik_Ionization_Penalty_Neutral>  (59) 
4.51834e-11

>  <r_epik_State_Penalty>  (59) 
9.61511e-06

>  <r_epik_Charging_Adjusted_Penalty>  (59) 
3.26736e-05

>  <i_epik_Tot_Q>  (59) 
0

>  <i_epik_Tot_abs_Q>  (59) 
2

>  <s_epik_Chemistry_Notes>  (59) 
This compound has an ester and may undergo hydrolysis at high or low pH.

>  <s_lp_Force_Field>  (59) 
OPLS3e

>  <r_lp_Energy>  (59) 
25.0865

>  <b_lp_Chiralities_Consistent>  (59) 
1

>  <s_lp_Variant>  (59) 
16:0-1

>  <s_i_glide_gridfile>  (59) 
pfpi4k_grid

>  <i_i_glide_lignum>  (59) 
24

>  <i_i_glide_rotatable_bonds>  (59) 
3

>  <r_i_docking_score>  (59) 
-2.09689

>  <r_i_glide_ligand_efficiency>  (59) 
-0.0838756

>  <r_i_glide_ligand_efficiency_sa>  (59) 
-0.245254

>  <r_i_glide_ligand_efficiency_ln>  (59) 
-0.497026

>  <r_i_glide_gscore>  (59) 
-2.09689

>  <r_i_glide_lipo>  (59) 
-0.0599255

>  <r_i_glide_hbond>  (59) 
0

>  <r_i_glide_metal>  (59) 
-0

>  <r_i_glide_rewards>  (59) 
-1.09481

>  <r_i_glide_evdw>  (59) 
-9.1759

>  <r_i_glide_ecoul>  (59) 
-5.12038

>  <r_i_glide_erotb>  (59) 
0.328519

>  <r_i_glide_esite>  (59) 
-0.0438217

>  <r_i_glide_emodel>  (59) 
-15.5409

>  <r_i_glide_energy>  (59) 
-14.2963

>  <r_i_glide_einternal>  (59) 
4.80273

>  <r_i_glide_intrahb_reward>  (59) 
-0

>  <i_i_glide_confnum>  (59) 
3

>  <i_i_glide_posenum>  (59) 
15

>  <r_i_glide_eff_state_penalty>  (59) 
0

>  <ligand_id>  (59) 
16

>  <original_smiles>  (59) 
CC=Cc1ccc2c(c1)CC1CC3C(=O)C(C(=O)OC)C(C1C2)N3C

>  <smiles>  (59) 
[H]C(=C([H])C([H])([H])[H])c1c([H])c([H])c2c(c1[H])C([H])([H])C1([H])C([H])([H])C3([H])C([O-])=C(C(=O)OC([H])([H])[H])C([H])(C1([H])C2([H])[H])[N+]3([H])C([H])([H])[H]

$$$$
16:1:0
     RDKit          3D

 50 53  0  0  1  0  0  0  0  0999 V2000
    3.9458   -1.8906   -1.5134 C   0  0  0  0  0  0  0  0  0  0  0  0
    5.1610   -1.3919   -0.7499 C   0  0  0  0  0  0  0  0  0  0  0  0
    5.2620   -1.0293    0.5472 C   0  0  0  0  0  0  0  0  0  0  0  0
    4.2517   -1.0817    1.6268 C   0  0  0  0  0  0  0  0  0  0  0  0
    3.1059   -1.9168    1.5602 C   0  0  0  0  0  0  0  0  0  0  0  0
    2.1363   -1.8886    2.5723 C   0  0  0  0  0  0  0  0  0  0  0  0
    2.3124   -1.0614    3.6886 C   0  0  0  0  0  0  0  0  0  0  0  0
    3.4556   -0.2444    3.7906 C   0  0  0  0  0  0  0  0  0  0  0  0
    4.4189   -0.2583    2.7634 C   0  0  0  0  0  0  0  0  0  0  0  0
    3.5650    0.6626    4.9991 C   0  0  0  0  0  0  0  0  0  0  0  0
    2.2178    1.3943    5.2387 C   0  0  1  0  0  0  0  0  0  0  0  0
    2.1010    2.5786    4.2173 C   0  0  0  0  0  0  0  0  0  0  0  0
    0.6658    2.8785    3.7216 C   0  0  2  0  0  0  0  0  0  0  0  0
   -0.2526    3.3042    4.8519 C   0  0  0  0  0  0  0  0  0  0  0  0
   -0.3466    4.5472    5.0000 O   0  0  0  0  0  0  0  0  0  0  0  0
   -0.8152    2.1692    5.3746 C   0  0  0  0  0  0  0  0  0  0  0  0
   -1.8257    2.0112    6.4434 C   0  0  0  0  0  0  0  0  0  0  0  0
   -2.2082    0.9171    6.8597 O   0  0  0  0  0  0  0  0  0  0  0  0
   -2.2606    3.2002    6.9090 O   0  0  0  0  0  0  0  0  0  0  0  0
   -3.1317    3.2760    8.0232 C   0  0  0  0  0  0  0  0  0  0  0  0
   -0.3042    0.9646    4.6054 C   0  0  2  0  0  0  0  0  0  0  0  0
    0.9808    0.4032    5.2829 C   0  0  1  0  0  0  0  0  0  0  0  0
    1.3033   -1.0341    4.8102 C   0  0  0  0  0  0  0  0  0  0  0  0
    0.1036    1.5726    3.3123 N   0  0  1  0  0  0  0  0  0  0  0  0
   -0.9677    1.6670    2.2867 C   0  0  0  0  0  0  0  0  0  0  0  0
    3.9012   -1.4150   -2.4961 H   0  0  0  0  0  0  0  0  0  0  0  0
    3.0096   -1.6575   -1.0133 H   0  0  0  0  0  0  0  0  0  0  0  0
    4.0119   -2.9699   -1.6632 H   0  0  0  0  0  0  0  0  0  0  0  0
    6.0533   -1.3315   -1.3542 H   0  0  0  0  0  0  0  0  0  0  0  0
    6.2269   -0.6587    0.8623 H   0  0  0  0  0  0  0  0  0  0  0  0
    2.9499   -2.6028    0.7476 H   0  0  0  0  0  0  0  0  0  0  0  0
    1.2565   -2.5102    2.4889 H   0  0  0  0  0  0  0  0  0  0  0  0
    5.2852    0.3837    2.8472 H   0  0  0  0  0  0  0  0  0  0  0  0
    3.8101    0.0408    5.8609 H   0  0  0  0  0  0  0  0  0  0  0  0
    4.3897    1.3698    4.8803 H   0  0  0  0  0  0  0  0  0  0  0  0
    2.2757    1.8573    6.2236 H   0  0  0  0  0  0  0  0  0  0  0  0
    2.5375    3.4843    4.6486 H   0  0  0  0  0  0  0  0  0  0  0  0
    2.6977    2.3654    3.3302 H   0  0  0  0  0  0  0  0  0  0  0  0
    0.6708    3.6100    2.9091 H   0  0  0  0  0  0  0  0  0  0  0  0
   -3.3698    4.3185    8.2299 H   0  0  0  0  0  0  0  0  0  0  0  0
   -2.6675    2.8621    8.9159 H   0  0  0  0  0  0  0  0  0  0  0  0
   -4.0659    2.7535    7.8323 H   0  0  0  0  0  0  0  0  0  0  0  0
   -1.0622    0.1951    4.4535 H   0  0  0  0  0  0  0  0  0  0  0  0
    0.7155    0.2781    6.3354 H   0  0  0  0  0  0  0  0  0  0  0  0
    0.4067   -1.5973    4.5483 H   0  0  0  0  0  0  0  0  0  0  0  0
    1.7639   -1.5809    5.6386 H   0  0  0  0  0  0  0  0  0  0  0  0
   -1.8170    2.2653    2.6382 H   0  0  0  0  0  0  0  0  0  0  0  0
   -1.3170    0.6637    2.0164 H   0  0  0  0  0  0  0  0  0  0  0  0
   -0.5652    2.1311    1.3783 H   0  0  0  0  0  0  0  0  0  0  0  0
    0.8558    1.0392    2.9110 H   0  0  0  0  0  0  0  0  0  0  0  0
  1  2  1  0
  1 26  1  0
  1 27  1  0
  1 28  1  0
  2  3  2  3
  2 29  1  0
  3  4  1  0
  3 30  1  0
  4  9  2  0
  4  5  1  0
  5  6  2  0
  5 31  1  0
  6  7  1  0
  6 32  1  0
  7 23  1  0
  7  8  2  0
  8  9  1  0
  8 10  1  0
  9 33  1  0
 10 11  1  0
 10 34  1  0
 10 35  1  0
 11 22  1  0
 11 12  1  0
 11 36  1  1
 12 13  1  0
 12 37  1  0
 12 38  1  0
 13 24  1  0
 13 14  1  0
 13 39  1  6
 14 15  1  0
 14 16  2  0
 16 17  1  0
 16 21  1  0
 17 18  2  0
 17 19  1  0
 19 20  1  0
 20 40  1  0
 20 41  1  0
 20 42  1  0
 21 22  1  0
 21 24  1  0
 21 43  1  6
 22 23  1  0
 22 44  1  1
 23 45  1  0
 23 46  1  0
 24 25  1  0
 24 50  1  6
 25 47  1  0
 25 48  1  0
 25 49  1  0
M  CHG  2  15  -1  24   1
M  END
>  <i_m_ct_stereo_status>  (60) 
1

>  <s_m_source_file>  (60) 
/var/tmp/pbs.5076255.sched01/tmpj20d55gn/0_c3see42.sdf

>  <i_m_source_file_index>  (60) 
25

>  <i_lp_mmshare_version>  (60) 
48012

>  <i_f3d_flags>  (60) 
0

>  <s_epik_input>  (60) 
W0NIM10vW0NIXT1bQ0hdL2MoW2NIXVtjSF0xKVtjSF1jKGMxMilbQ0gyXVtDQEBIXTNbQ0BIXShbQ0gyXTIpW0NASF00W0NASF0oQyg9TylPW0NIM10pQyg9TylbQ0BASF0oW0NIMl0zKU40W0NIM10=

>  <s_epik_cmdline>  (60) 
J2VwaWtfcHl0aG9uJywgJy1waHQnLCAnMi4wJywgJy1waCcsICc3LjAnLCAnLXRuJywgJzgnLCAnLW1hJywgJzIwMCcsICctaW1hZScsICc8aW5maWxlLm1hZT4nLCAnLW9tYWUnLCAnPG91dGZpbGUubWFlPic=

>  <r_epik_Ionization_Penalty>  (60) 
2.30586e-05

>  <r_epik_Ionization_Penalty_Charging>  (60) 
2.30585e-05

>  <r_epik_Ionization_Penalty_Neutral>  (60) 
4.51834e-11

>  <r_epik_State_Penalty>  (60) 
9.61511e-06

>  <r_epik_Charging_Adjusted_Penalty>  (60) 
3.26736e-05

>  <i_epik_Tot_Q>  (60) 
0

>  <i_epik_Tot_abs_Q>  (60) 
2

>  <s_epik_Chemistry_Notes>  (60) 
This compound has an ester and may undergo hydrolysis at high or low pH.

>  <s_lp_Force_Field>  (60) 
OPLS3e

>  <r_lp_Energy>  (60) 
27.2841

>  <b_lp_Chiralities_Consistent>  (60) 
1

>  <s_lp_Variant>  (60) 
16:0-2

>  <s_i_glide_gridfile>  (60) 
pfpi4k_grid

>  <i_i_glide_lignum>  (60) 
25

>  <i_i_glide_rotatable_bonds>  (60) 
3

>  <r_i_docking_score>  (60) 
-3.1067

>  <r_i_glide_ligand_efficiency>  (60) 
-0.124268

>  <r_i_glide_ligand_efficiency_sa>  (60) 
-0.363362

>  <r_i_glide_ligand_efficiency_ln>  (60) 
-0.736382

>  <r_i_glide_gscore>  (60) 
-3.1067

>  <r_i_glide_lipo>  (60) 
-0.306644

>  <r_i_glide_hbond>  (60) 
-0.16

>  <r_i_glide_metal>  (60) 
-0

>  <r_i_glide_rewards>  (60) 
-1.09481

>  <r_i_glide_evdw>  (60) 
-20.7271

>  <r_i_glide_ecoul>  (60) 
-5.27717

>  <r_i_glide_erotb>  (60) 
0.328519

>  <r_i_glide_esite>  (60) 
-0.0458367

>  <r_i_glide_emodel>  (60) 
-32.487

>  <r_i_glide_energy>  (60) 
-26.0043

>  <r_i_glide_einternal>  (60) 
0.0921349

>  <r_i_glide_intrahb_reward>  (60) 
-0

>  <i_i_glide_confnum>  (60) 
4

>  <i_i_glide_posenum>  (60) 
19

>  <r_i_glide_eff_state_penalty>  (60) 
0

>  <ligand_id>  (60) 
16

>  <original_smiles>  (60) 
CC=Cc1ccc2c(c1)CC1CC3C(=O)C(C(=O)OC)C(C1C2)N3C

>  <smiles>  (60) 
[H]C(=C([H])C([H])([H])[H])c1c([H])c([H])c2c(c1[H])C([H])([H])C1([H])C([H])([H])C3([H])C([O-])=C(C(=O)OC([H])([H])[H])C([H])(C1([H])C2([H])[H])[N+]3([H])C([H])([H])[H]

$$$$
16:1:1
     RDKit          3D

 50 53  0  0  1  0  0  0  0  0999 V2000
   -2.9407    2.7941    7.2344 C   0  0  0  0  0  0  0  0  0  0  0  0
   -1.9492    1.9972    8.0631 C   0  0  0  0  0  0  0  0  0  0  0  0
   -0.8290    1.3751    7.6374 C   0  0  0  0  0  0  0  0  0  0  0  0
   -0.3206    1.2670    6.2600 C   0  0  0  0  0  0  0  0  0  0  0  0
   -1.1299    0.8974    5.1680 C   0  0  0  0  0  0  0  0  0  0  0  0
   -0.6010    0.8314    3.8596 C   0  0  0  0  0  0  0  0  0  0  0  0
    0.7679    1.1346    3.6699 C   0  0  0  0  0  0  0  0  0  0  0  0
    1.5865    1.4836    4.7451 C   0  0  0  0  0  0  0  0  0  0  0  0
    1.0511    1.5615    6.0487 C   0  0  0  0  0  0  0  0  0  0  0  0
    3.0668    1.7383    4.4775 C   0  0  0  0  0  0  0  0  0  0  0  0
    3.6565    0.6068    3.6101 C   0  0  1  0  0  0  0  0  0  0  0  0
    3.8926   -0.6474    4.5182 C   0  0  0  0  0  0  0  0  0  0  0  0
    3.6635   -1.9989    3.8215 C   0  0  2  0  0  0  0  0  0  0  0  0
    4.5859   -2.2070    2.6401 C   0  0  0  0  0  0  0  0  0  0  0  0
    5.5745   -2.8935    2.9279 O   0  0  0  0  0  0  0  0  0  0  0  0
    3.9538   -1.7082    1.5299 C   0  0  0  0  0  0  0  0  0  0  0  0
    4.4096   -1.7448    0.1226 C   0  0  0  0  0  0  0  0  0  0  0  0
    5.5181   -1.3310   -0.2111 O   0  0  0  0  0  0  0  0  0  0  0  0
    3.5087   -2.2242   -0.7918 O   0  0  0  0  0  0  0  0  0  0  0  0
    2.5134   -3.1942   -0.4848 C   0  0  0  0  0  0  0  0  0  0  0  0
    2.6207   -1.1105    1.9397 C   0  0  2  0  0  0  0  0  0  0  0  0
    2.7818    0.3704    2.3182 C   0  0  1  0  0  0  0  0  0  0  0  0
    1.3984    1.0754    2.2976 C   0  0  0  0  0  0  0  0  0  0  0  0
    2.3545   -1.8873    3.1733 N   0  0  1  0  0  0  0  0  0  0  0  0
    1.6940   -3.1946    2.9799 C   0  0  0  0  0  0  0  0  0  0  0  0
   -3.9612    2.5438    7.5235 H   0  0  0  0  0  0  0  0  0  0  0  0
   -2.8369    2.6419    6.1616 H   0  0  0  0  0  0  0  0  0  0  0  0
   -2.8054    3.8596    7.4241 H   0  0  0  0  0  0  0  0  0  0  0  0
   -2.1701    1.9721    9.1227 H   0  0  0  0  0  0  0  0  0  0  0  0
   -0.2316    0.8780    8.3867 H   0  0  0  0  0  0  0  0  0  0  0  0
   -2.1713    0.6453    5.3120 H   0  0  0  0  0  0  0  0  0  0  0  0
   -1.2203    0.5470    3.0251 H   0  0  0  0  0  0  0  0  0  0  0  0
    1.6829    1.8388    6.8724 H   0  0  0  0  0  0  0  0  0  0  0  0
    3.1552    2.6817    3.9401 H   0  0  0  0  0  0  0  0  0  0  0  0
    3.6218    1.8453    5.4090 H   0  0  0  0  0  0  0  0  0  0  0  0
    4.6565    0.8980    3.2755 H   0  0  0  0  0  0  0  0  0  0  0  0
    4.9145   -0.6316    4.9050 H   0  0  0  0  0  0  0  0  0  0  0  0
    3.2353   -0.6221    5.3945 H   0  0  0  0  0  0  0  0  0  0  0  0
    3.7534   -2.8433    4.5154 H   0  0  0  0  0  0  0  0  0  0  0  0
    1.9670   -3.4477   -1.3954 H   0  0  0  0  0  0  0  0  0  0  0  0
    1.7859   -2.8099    0.2258 H   0  0  0  0  0  0  0  0  0  0  0  0
    2.9736   -4.0818   -0.0581 H   0  0  0  0  0  0  0  0  0  0  0  0
    1.7972   -1.1730    1.2283 H   0  0  0  0  0  0  0  0  0  0  0  0
    3.3276    0.8060    1.4807 H   0  0  0  0  0  0  0  0  0  0  0  0
    0.7171    0.6482    1.5625 H   0  0  0  0  0  0  0  0  0  0  0  0
    1.5477    2.1041    1.9644 H   0  0  0  0  0  0  0  0  0  0  0  0
    2.2614   -3.8932    2.3448 H   0  0  0  0  0  0  0  0  0  0  0  0
    0.7225   -3.0089    2.5299 H   0  0  0  0  0  0  0  0  0  0  0  0
    1.5022   -3.7011    3.9332 H   0  0  0  0  0  0  0  0  0  0  0  0
    1.7705   -1.3411    3.7857 H   0  0  0  0  0  0  0  0  0  0  0  0
  1  2  1  0
  1 26  1  0
  1 27  1  0
  1 28  1  0
  2  3  2  3
  2 29  1  0
  3  4  1  0
  3 30  1  0
  4  9  2  0
  4  5  1  0
  5  6  2  0
  5 31  1  0
  6  7  1  0
  6 32  1  0
  7 23  1  0
  7  8  2  0
  8  9  1  0
  8 10  1  0
  9 33  1  0
 10 11  1  0
 10 34  1  0
 10 35  1  0
 11 22  1  0
 11 12  1  0
 11 36  1  6
 12 13  1  0
 12 37  1  0
 12 38  1  0
 13 24  1  0
 13 14  1  0
 13 39  1  1
 14 15  1  0
 14 16  2  0
 16 17  1  0
 16 21  1  0
 17 18  2  0
 17 19  1  0
 19 20  1  0
 20 40  1  0
 20 41  1  0
 20 42  1  0
 21 22  1  0
 21 24  1  0
 21 43  1  6
 22 23  1  0
 22 44  1  6
 23 45  1  0
 23 46  1  0
 24 25  1  0
 24 50  1  1
 25 47  1  0
 25 48  1  0
 25 49  1  0
M  CHG  2  15  -1  24   1
M  END
>  <i_m_ct_stereo_status>  (61) 
1

>  <s_m_source_file>  (61) 
/var/tmp/pbs.5076255.sched01/tmpj20d55gn/0_c3see42.sdf

>  <i_m_source_file_index>  (61) 
25

>  <i_lp_mmshare_version>  (61) 
48012

>  <i_f3d_flags>  (61) 
0

>  <s_epik_input>  (61) 
W0NIM10vW0NIXT1bQ0hdL2MoW2NIXVtjSF0xKVtjSF1jKGMxMilbQ0gyXVtDQEBIXTNbQ0BIXShbQ0gyXTIpW0NASF00W0NASF0oQyg9TylPW0NIM10pQyg9TylbQ0BASF0oW0NIMl0zKU40W0NIM10=

>  <s_epik_cmdline>  (61) 
J2VwaWtfcHl0aG9uJywgJy1waHQnLCAnMi4wJywgJy1waCcsICc3LjAnLCAnLXRuJywgJzgnLCAnLW1hJywgJzIwMCcsICctaW1hZScsICc8aW5maWxlLm1hZT4nLCAnLW9tYWUnLCAnPG91dGZpbGUubWFlPic=

>  <r_epik_Ionization_Penalty>  (61) 
2.30586e-05

>  <r_epik_Ionization_Penalty_Charging>  (61) 
2.30585e-05

>  <r_epik_Ionization_Penalty_Neutral>  (61) 
4.51834e-11

>  <r_epik_State_Penalty>  (61) 
9.61511e-06

>  <r_epik_Charging_Adjusted_Penalty>  (61) 
3.26736e-05

>  <i_epik_Tot_Q>  (61) 
0

>  <i_epik_Tot_abs_Q>  (61) 
2

>  <s_epik_Chemistry_Notes>  (61) 
This compound has an ester and may undergo hydrolysis at high or low pH.

>  <s_lp_Force_Field>  (61) 
OPLS3e

>  <r_lp_Energy>  (61) 
27.2841

>  <b_lp_Chiralities_Consistent>  (61) 
1

>  <s_lp_Variant>  (61) 
16:0-2

>  <s_i_glide_gridfile>  (61) 
pfpi4k_grid

>  <i_i_glide_lignum>  (61) 
25

>  <i_i_glide_rotatable_bonds>  (61) 
3

>  <r_i_docking_score>  (61) 
-2.47805

>  <r_i_glide_ligand_efficiency>  (61) 
-0.099122

>  <r_i_glide_ligand_efficiency_sa>  (61) 
-0.289834

>  <r_i_glide_ligand_efficiency_ln>  (61) 
-0.587372

>  <r_i_glide_gscore>  (61) 
-2.47805

>  <r_i_glide_lipo>  (61) 
-0.25721

>  <r_i_glide_hbond>  (61) 
0

>  <r_i_glide_metal>  (61) 
-0

>  <r_i_glide_rewards>  (61) 
-1.09481

>  <r_i_glide_evdw>  (61) 
-19.2222

>  <r_i_glide_ecoul>  (61) 
-3.16926

>  <r_i_glide_erotb>  (61) 
0.328519

>  <r_i_glide_esite>  (61) 
-0.018047

>  <r_i_glide_emodel>  (61) 
-21.4262

>  <r_i_glide_energy>  (61) 
-22.3915

>  <r_i_glide_einternal>  (61) 
11.5487

>  <r_i_glide_intrahb_reward>  (61) 
-0

>  <i_i_glide_confnum>  (61) 
2

>  <i_i_glide_posenum>  (61) 
15

>  <r_i_glide_eff_state_penalty>  (61) 
0

>  <ligand_id>  (61) 
16

>  <original_smiles>  (61) 
CC=Cc1ccc2c(c1)CC1CC3C(=O)C(C(=O)OC)C(C1C2)N3C

>  <smiles>  (61) 
[H]C(=C([H])C([H])([H])[H])c1c([H])c([H])c2c(c1[H])C([H])([H])C1([H])C([H])([H])C3([H])C([O-])=C(C(=O)OC([H])([H])[H])C([H])(C1([H])C2([H])[H])[N+]3([H])C([H])([H])[H]

$$$$
16:1:2
     RDKit          3D

 50 53  0  0  1  0  0  0  0  0999 V2000
    3.0195   -3.0818   -0.8083 C   0  0  0  0  0  0  0  0  0  0  0  0
    4.2961   -2.3187   -0.4876 C   0  0  0  0  0  0  0  0  0  0  0  0
    4.5980   -1.5834    0.6072 C   0  0  0  0  0  0  0  0  0  0  0  0
    3.8180   -1.3605    1.8459 C   0  0  0  0  0  0  0  0  0  0  0  0
    2.7713   -2.2207    2.2599 C   0  0  0  0  0  0  0  0  0  0  0  0
    2.0060   -1.9397    3.3997 C   0  0  0  0  0  0  0  0  0  0  0  0
    2.3211   -0.8202    4.1828 C   0  0  0  0  0  0  0  0  0  0  0  0
    3.3759    0.0316    3.8144 C   0  0  0  0  0  0  0  0  0  0  0  0
    4.1209   -0.2331    2.6461 C   0  0  0  0  0  0  0  0  0  0  0  0
    3.6305    1.2508    4.6814 C   0  0  0  0  0  0  0  0  0  0  0  0
    2.2943    1.9702    4.9906 C   0  0  1  0  0  0  0  0  0  0  0  0
    1.8708    2.8060    3.7358 C   0  0  0  0  0  0  0  0  0  0  0  0
    0.3484    2.8971    3.4993 C   0  0  2  0  0  0  0  0  0  0  0  0
   -0.3846    3.5911    4.6337 C   0  0  0  0  0  0  0  0  0  0  0  0
   -0.5823    4.8132    4.4628 O   0  0  0  0  0  0  0  0  0  0  0  0
   -0.7155    2.6175    5.5483 C   0  0  0  0  0  0  0  0  0  0  0  0
   -1.4869    2.7400    6.7950 C   0  0  0  0  0  0  0  0  0  0  0  0
   -2.2109    3.7041    7.0547 O   0  0  0  0  0  0  0  0  0  0  0  0
   -1.2925    1.7074    7.6393 O   0  0  0  0  0  0  0  0  0  0  0  0
   -1.6551    1.8623    9.0032 C   0  0  0  0  0  0  0  0  0  0  0  0
   -0.2450    1.2703    5.0359 C   0  0  2  0  0  0  0  0  0  0  0  0
    1.1895    0.9846    5.5558 C   0  0  1  0  0  0  0  0  0  0  0  0
    1.5489   -0.5147    5.4412 C   0  0  0  0  0  0  0  0  0  0  0  0
   -0.1493    1.5141    3.5768 N   0  0  1  0  0  0  0  0  0  0  0  0
   -1.3951    1.2775    2.8074 C   0  0  0  0  0  0  0  0  0  0  0  0
    2.7405   -2.9196   -1.8509 H   0  0  0  0  0  0  0  0  0  0  0  0
    2.1621   -2.7510   -0.2250 H   0  0  0  0  0  0  0  0  0  0  0  0
    3.1728   -4.1532   -0.6566 H   0  0  0  0  0  0  0  0  0  0  0  0
    5.0500   -2.3922   -1.2589 H   0  0  0  0  0  0  0  0  0  0  0  0
    5.5617   -1.0929    0.5916 H   0  0  0  0  0  0  0  0  0  0  0  0
    2.5346   -3.1322    1.7382 H   0  0  0  0  0  0  0  0  0  0  0  0
    1.1922   -2.5955    3.6699 H   0  0  0  0  0  0  0  0  0  0  0  0
    4.9205    0.4345    2.3603 H   0  0  0  0  0  0  0  0  0  0  0  0
    4.0935    0.9073    5.6064 H   0  0  0  0  0  0  0  0  0  0  0  0
    4.3456    1.9207    4.2032 H   0  0  0  0  0  0  0  0  0  0  0  0
    2.4949    2.6977    5.7784 H   0  0  0  0  0  0  0  0  0  0  0  0
    2.2928    3.8102    3.7978 H   0  0  0  0  0  0  0  0  0  0  0  0
    2.3055    2.3745    2.8325 H   0  0  0  0  0  0  0  0  0  0  0  0
    0.1172    3.3429    2.5377 H   0  0  0  0  0  0  0  0  0  0  0  0
   -1.3762    0.9605    9.5445 H   0  0  0  0  0  0  0  0  0  0  0  0
   -2.7282    2.0343    9.1216 H   0  0  0  0  0  0  0  0  0  0  0  0
   -1.1228    2.6960    9.4689 H   0  0  0  0  0  0  0  0  0  0  0  0
   -0.9439    0.4619    5.2582 H   0  0  0  0  0  0  0  0  0  0  0  0
    1.1465    1.1556    6.6324 H   0  0  0  0  0  0  0  0  0  0  0  0
    0.6742   -1.1591    5.5358 H   0  0  0  0  0  0  0  0  0  0  0  0
    2.2080   -0.7832    6.2717 H   0  0  0  0  0  0  0  0  0  0  0  0
   -2.2146    1.9133    3.1622 H   0  0  0  0  0  0  0  0  0  0  0  0
   -1.6960    0.2311    2.9122 H   0  0  0  0  0  0  0  0  0  0  0  0
   -1.2399    1.4725    1.7375 H   0  0  0  0  0  0  0  0  0  0  0  0
    0.5592    0.9230    3.1788 H   0  0  0  0  0  0  0  0  0  0  0  0
  1  2  1  0
  1 26  1  0
  1 27  1  0
  1 28  1  0
  2  3  2  3
  2 29  1  0
  3  4  1  0
  3 30  1  0
  4  9  2  0
  4  5  1  0
  5  6  2  0
  5 31  1  0
  6  7  1  0
  6 32  1  0
  7 23  1  0
  7  8  2  0
  8  9  1  0
  8 10  1  0
  9 33  1  0
 10 11  1  0
 10 34  1  0
 10 35  1  0
 11 22  1  0
 11 12  1  0
 11 36  1  1
 12 13  1  0
 12 37  1  0
 12 38  1  0
 13 24  1  0
 13 14  1  0
 13 39  1  6
 14 15  1  0
 14 16  2  0
 16 17  1  0
 16 21  1  0
 17 18  2  0
 17 19  1  0
 19 20  1  0
 20 40  1  0
 20 41  1  0
 20 42  1  0
 21 22  1  0
 21 24  1  0
 21 43  1  6
 22 23  1  0
 22 44  1  1
 23 45  1  0
 23 46  1  0
 24 25  1  0
 24 50  1  6
 25 47  1  0
 25 48  1  0
 25 49  1  0
M  CHG  2  15  -1  24   1
M  END
>  <i_m_ct_stereo_status>  (62) 
1

>  <s_m_source_file>  (62) 
/var/tmp/pbs.5076255.sched01/tmpj20d55gn/0_c3see42.sdf

>  <i_m_source_file_index>  (62) 
25

>  <i_lp_mmshare_version>  (62) 
48012

>  <i_f3d_flags>  (62) 
0

>  <s_epik_input>  (62) 
W0NIM10vW0NIXT1bQ0hdL2MoW2NIXVtjSF0xKVtjSF1jKGMxMilbQ0gyXVtDQEBIXTNbQ0BIXShbQ0gyXTIpW0NASF00W0NASF0oQyg9TylPW0NIM10pQyg9TylbQ0BASF0oW0NIMl0zKU40W0NIM10=

>  <s_epik_cmdline>  (62) 
J2VwaWtfcHl0aG9uJywgJy1waHQnLCAnMi4wJywgJy1waCcsICc3LjAnLCAnLXRuJywgJzgnLCAnLW1hJywgJzIwMCcsICctaW1hZScsICc8aW5maWxlLm1hZT4nLCAnLW9tYWUnLCAnPG91dGZpbGUubWFlPic=

>  <r_epik_Ionization_Penalty>  (62) 
2.30586e-05

>  <r_epik_Ionization_Penalty_Charging>  (62) 
2.30585e-05

>  <r_epik_Ionization_Penalty_Neutral>  (62) 
4.51834e-11

>  <r_epik_State_Penalty>  (62) 
9.61511e-06

>  <r_epik_Charging_Adjusted_Penalty>  (62) 
3.26736e-05

>  <i_epik_Tot_Q>  (62) 
0

>  <i_epik_Tot_abs_Q>  (62) 
2

>  <s_epik_Chemistry_Notes>  (62) 
This compound has an ester and may undergo hydrolysis at high or low pH.

>  <s_lp_Force_Field>  (62) 
OPLS3e

>  <r_lp_Energy>  (62) 
27.2841

>  <b_lp_Chiralities_Consistent>  (62) 
1

>  <s_lp_Variant>  (62) 
16:0-2

>  <s_i_glide_gridfile>  (62) 
pfpi4k_grid

>  <i_i_glide_lignum>  (62) 
25

>  <i_i_glide_rotatable_bonds>  (62) 
3

>  <r_i_docking_score>  (62) 
-2.31241

>  <r_i_glide_ligand_efficiency>  (62) 
-0.0924965

>  <r_i_glide_ligand_efficiency_sa>  (62) 
-0.270462

>  <r_i_glide_ligand_efficiency_ln>  (62) 
-0.548111

>  <r_i_glide_gscore>  (62) 
-2.31241

>  <r_i_glide_lipo>  (62) 
-0.0432948

>  <r_i_glide_hbond>  (62) 
0

>  <r_i_glide_metal>  (62) 
-0

>  <r_i_glide_rewards>  (62) 
-1.14131

>  <r_i_glide_evdw>  (62) 
-17.02

>  <r_i_glide_ecoul>  (62) 
-3.84273

>  <r_i_glide_erotb>  (62) 
0.328519

>  <r_i_glide_esite>  (62) 
-0.0289231

>  <r_i_glide_emodel>  (62) 
-23.7885

>  <r_i_glide_energy>  (62) 
-20.8627

>  <r_i_glide_einternal>  (62) 
3.28037

>  <r_i_glide_intrahb_reward>  (62) 
-0

>  <i_i_glide_confnum>  (62) 
2

>  <i_i_glide_posenum>  (62) 
38

>  <r_i_glide_eff_state_penalty>  (62) 
0

>  <ligand_id>  (62) 
16

>  <original_smiles>  (62) 
CC=Cc1ccc2c(c1)CC1CC3C(=O)C(C(=O)OC)C(C1C2)N3C

>  <smiles>  (62) 
[H]C(=C([H])C([H])([H])[H])c1c([H])c([H])c2c(c1[H])C([H])([H])C1([H])C([H])([H])C3([H])C([O-])=C(C(=O)OC([H])([H])[H])C([H])(C1([H])C2([H])[H])[N+]3([H])C([H])([H])[H]

$$$$
17:0:0
     RDKit          3D

 89 95  0  0  1  0  0  0  0  0999 V2000
   -0.9909    1.0859    5.9845 C   0  0  0  0  0  0  0  0  0  0  0  0
   -0.1042   -0.1067    6.2836 C   0  0  0  0  0  0  0  0  0  0  0  0
    1.1322   -0.1468    6.7967 C   0  0  0  0  0  0  0  0  0  0  0  0
    1.7362   -1.5489    6.9234 C   0  0  2  0  0  0  0  0  0  0  0  0
    2.9708   -1.6373    5.9449 C   0  0  1  0  0  0  0  0  0  0  0  0
    4.1530   -1.4620    6.6975 O   0  0  0  0  0  0  0  0  0  0  0  0
    3.1912   -2.7463    4.8496 C   0  0  1  0  0  0  0  0  0  0  0  0
    4.3292   -3.7690    5.0964 C   0  0  0  0  0  0  0  0  0  0  0  0
    4.3649   -4.9180    5.7882 C   0  0  0  0  0  0  0  0  0  0  0  0
    5.5352   -5.7201    6.1009 C   0  0  0  0  0  0  0  0  0  0  0  0
    6.5631   -5.9138    5.4775 O   0  0  0  0  0  0  0  0  0  0  0  0
    4.8284   -6.1591    7.4242 C   0  0  0  0  0  0  0  0  0  0  0  0
    5.0975   -7.6301    7.8141 C   0  0  0  0  0  0  0  0  0  0  0  0
    5.4536   -5.3217    8.5597 C   0  0  0  0  0  0  0  0  0  0  0  0
    3.4534   -5.7704    6.6927 C   0  0  1  0  0  0  0  0  0  0  0  0
    2.5476   -4.8674    7.5250 C   0  0  0  0  0  0  0  0  0  0  0  0
    2.9173   -4.0290    8.3496 O   0  0  0  0  0  0  0  0  0  0  0  0
    1.0539   -4.9552    7.2803 C   0  0  1  0  0  0  0  0  0  0  0  0
    0.2815   -5.1493    8.6124 C   0  0  0  0  0  0  0  0  0  0  0  0
    0.5328   -3.9042    6.2438 C   0  0  2  0  0  0  0  0  0  0  0  0
    1.0254   -4.1840    4.7595 C   0  0  2  0  0  0  0  0  0  0  0  0
    0.9520   -5.7192    4.4110 C   0  0  0  0  0  0  0  0  0  0  0  0
   -0.1879   -6.1008    4.1986 O   0  0  0  0  0  0  0  0  0  0  0  0
    2.0995   -6.8190    4.4969 C   0  0  2  0  0  0  0  0  0  0  0  0
    3.1558   -6.7682    3.3557 C   0  0  0  0  0  0  0  0  0  0  0  0
    2.6370   -7.2839    2.0057 C   0  0  0  0  0  0  0  0  0  0  0  0
    2.6746   -6.5939    0.9949 O   0  0  0  0  0  0  0  0  0  0  0  0
    2.1008   -8.7235    1.9799 C   0  0  1  0  0  0  0  0  0  0  0  0
    3.2906   -9.7067    2.0214 C   0  0  0  0  0  0  0  0  0  0  0  0
    1.0061   -8.9213    3.0793 C   0  0  0  0  0  0  0  0  0  0  0  0
   -0.3176   -8.3349    2.5317 C   0  0  0  0  0  0  0  0  0  0  0  0
    0.7083  -10.4269    3.2938 C   0  0  0  0  0  0  0  0  0  0  0  0
    1.5558   -8.3042    4.4274 C   0  0  2  0  0  0  0  0  0  0  0  0
    0.9155   -8.5816    5.7914 C   0  0  0  0  0  0  0  0  0  0  0  0
    1.9716   -7.9905    6.7420 C   0  0  0  0  0  0  0  0  0  0  0  0
    2.7821   -6.9596    5.9028 C   0  0  2  0  0  0  0  0  0  0  0  0
    1.9880   -3.1936    3.9762 C   0  0  0  0  0  0  0  0  0  0  0  0
    1.2344   -1.9237    3.4695 C   0  0  0  0  0  0  0  0  0  0  0  0
    2.4747   -3.7489    2.5999 C   0  0  0  0  0  0  0  0  0  0  0  0
    0.4436   -2.4182    6.7650 C   0  0  1  0  0  0  0  0  0  0  0  0
   -0.1131   -2.4479    8.0702 O   0  0  0  0  0  0  0  0  0  0  0  0
   -0.5415   -1.4851    6.0574 C   0  0  0  0  0  0  0  0  0  0  0  0
   -1.5724   -1.8639    5.5116 O   0  0  0  0  0  0  0  0  0  0  0  0
   -1.3079    1.0502    4.9433 H   0  0  0  0  0  0  0  0  0  0  0  0
   -0.4767    2.0331    6.1458 H   0  0  0  0  0  0  0  0  0  0  0  0
   -1.8875    1.0782    6.6016 H   0  0  0  0  0  0  0  0  0  0  0  0
    1.6923    0.7301    7.0908 H   0  0  0  0  0  0  0  0  0  0  0  0
    2.1024   -1.6396    7.9484 H   0  0  0  0  0  0  0  0  0  0  0  0
    2.9422   -0.7121    5.3673 H   0  0  0  0  0  0  0  0  0  0  0  0
    4.2531   -2.2167    7.2632 H   0  0  0  0  0  0  0  0  0  0  0  0
    3.7423   -2.1470    4.1201 H   0  0  0  0  0  0  0  0  0  0  0  0
    5.2645   -3.4723    4.6386 H   0  0  0  0  0  0  0  0  0  0  0  0
    4.3304   -7.9653    8.5150 H   0  0  0  0  0  0  0  0  0  0  0  0
    6.0535   -7.7757    8.3149 H   0  0  0  0  0  0  0  0  0  0  0  0
    5.0901   -8.3182    6.9694 H   0  0  0  0  0  0  0  0  0  0  0  0
    4.8793   -5.4426    9.4773 H   0  0  0  0  0  0  0  0  0  0  0  0
    5.4913   -4.2560    8.3317 H   0  0  0  0  0  0  0  0  0  0  0  0
    6.4731   -5.6250    8.7924 H   0  0  0  0  0  0  0  0  0  0  0  0
    0.8227   -5.8969    6.8193 H   0  0  0  0  0  0  0  0  0  0  0  0
    0.4836   -6.1379    9.0274 H   0  0  0  0  0  0  0  0  0  0  0  0
   -0.7955   -5.0871    8.4509 H   0  0  0  0  0  0  0  0  0  0  0  0
    0.5630   -4.4415    9.3965 H   0  0  0  0  0  0  0  0  0  0  0  0
   -0.5189   -4.1873    6.1829 H   0  0  0  0  0  0  0  0  0  0  0  0
    0.1139   -3.9007    4.2359 H   0  0  0  0  0  0  0  0  0  0  0  0
    3.6530   -5.8183    3.2728 H   0  0  0  0  0  0  0  0  0  0  0  0
    3.9785   -7.4415    3.5967 H   0  0  0  0  0  0  0  0  0  0  0  0
    1.6264   -8.8683    1.0101 H   0  0  0  0  0  0  0  0  0  0  0  0
    3.9864   -9.5020    1.2074 H   0  0  0  0  0  0  0  0  0  0  0  0
    2.9706  -10.7377    1.8923 H   0  0  0  0  0  0  0  0  0  0  0  0
    3.8534   -9.6571    2.9518 H   0  0  0  0  0  0  0  0  0  0  0  0
   -1.1036   -8.3077    3.2869 H   0  0  0  0  0  0  0  0  0  0  0  0
   -0.6944   -8.9381    1.7027 H   0  0  0  0  0  0  0  0  0  0  0  0
   -0.1866   -7.3374    2.1138 H   0  0  0  0  0  0  0  0  0  0  0  0
   -0.1660  -10.5749    3.9310 H   0  0  0  0  0  0  0  0  0  0  0  0
    1.5406  -10.9558    3.7621 H   0  0  0  0  0  0  0  0  0  0  0  0
    0.4963  -10.9240    2.3451 H   0  0  0  0  0  0  0  0  0  0  0  0
    2.4437   -8.9338    4.5215 H   0  0  0  0  0  0  0  0  0  0  0  0
   -0.0448   -8.0765    5.9013 H   0  0  0  0  0  0  0  0  0  0  0  0
    0.7673   -9.6446    5.9888 H   0  0  0  0  0  0  0  0  0  0  0  0
    1.5327   -7.6050    7.6567 H   0  0  0  0  0  0  0  0  0  0  0  0
    2.6360   -8.7905    7.0687 H   0  0  0  0  0  0  0  0  0  0  0  0
    3.6342   -7.5771    5.6241 H   0  0  0  0  0  0  0  0  0  0  0  0
    1.7876   -1.3576    2.7204 H   0  0  0  0  0  0  0  0  0  0  0  0
    1.0867   -1.1593    4.2058 H   0  0  0  0  0  0  0  0  0  0  0  0
    0.2684   -2.1658    3.0319 H   0  0  0  0  0  0  0  0  0  0  0  0
    1.8447   -4.5501    2.2264 H   0  0  0  0  0  0  0  0  0  0  0  0
    3.5214   -4.0366    2.5915 H   0  0  0  0  0  0  0  0  0  0  0  0
    2.4530   -3.0271    1.7837 H   0  0  0  0  0  0  0  0  0  0  0  0
    0.4549   -2.9794    8.6154 H   0  0  0  0  0  0  0  0  0  0  0  0
  1  2  1  0
  1 44  1  0
  1 45  1  0
  1 46  1  0
  2 42  1  0
  2  3  2  0
  3  4  1  0
  3 47  1  0
  4 40  1  0
  4  5  1  0
  4 48  1  1
  5  6  1  0
  5  7  1  0
  5 49  1  6
  6 50  1  0
  7 37  1  0
  7  8  1  0
  7 51  1  6
  8  9  2  3
  8 52  1  0
  9 15  1  0
  9 10  1  0
 10 11  2  0
 10 12  1  0
 12 13  1  0
 12 14  1  0
 15 12  1  1
 13 53  1  0
 13 54  1  0
 13 55  1  0
 14 56  1  0
 14 57  1  0
 14 58  1  0
 15 36  1  0
 15 16  1  0
 16 17  2  0
 16 18  1  0
 18 19  1  0
 18 20  1  0
 18 59  1  6
 19 60  1  0
 19 61  1  0
 19 62  1  0
 20 21  1  0
 20 40  1  0
 20 63  1  6
 21 22  1  0
 21 37  1  0
 21 64  1  6
 22 23  2  0
 22 24  1  0
 24 33  1  0
 24 36  1  0
 24 25  1  6
 25 26  1  0
 25 65  1  0
 25 66  1  0
 26 27  2  0
 26 28  1  0
 28 29  1  0
 28 30  1  0
 28 67  1  6
 29 68  1  0
 29 69  1  0
 29 70  1  0
 30 31  1  0
 30 32  1  0
 30 33  1  0
 31 71  1  0
 31 72  1  0
 31 73  1  0
 32 74  1  0
 32 75  1  0
 32 76  1  0
 33 34  1  0
 33 77  1  1
 34 35  1  0
 34 78  1  0
 34 79  1  0
 35 36  1  0
 35 80  1  0
 35 81  1  0
 36 82  1  6
 37 38  1  0
 37 39  1  0
 38 83  1  0
 38 84  1  0
 38 85  1  0
 39 86  1  0
 39 87  1  0
 39 88  1  0
 40 41  1  1
 40 42  1  0
 41 89  1  0
 42 43  2  0
M  END
>  <i_m_ct_stereo_status>  (63) 
1

>  <s_m_source_file>  (63) 
/var/tmp/pbs.5076255.sched01/tmpj20d55gn/0_c3see42.sdf

>  <i_m_source_file_index>  (63) 
26

>  <i_lp_mmshare_version>  (63) 
48012

>  <i_f3d_flags>  (63) 
0

>  <s_epik_input>  (63) 
W0NIM11DMShbQ0gzXSlDKD1PKVxDKFtDQEBdMTIzKT1bQ0hdXFtDQEBIXTRbQ0BIXShbT0hdKVtDQEBIXTVbQ0BAXShbT0hdKShDKD1PKUMoW0NIM10pPVtDSF01KVtDQEhdKFtDQEBIXShDMj1PKVtDSDNdKVtDSF0oQzQoW0NIM10pW0NIM10pQyg9TylbQ0BAXTY3W0NAQEhdKFtDSDJdW0NIMl1bQ0BIXTM3KUMoW0NIM10pKFtDSDNdKVtDQEhdKFtDSDNdKUMoPU8pW0NIMl02

>  <s_epik_cmdline>  (63) 
J2VwaWtfcHl0aG9uJywgJy1waHQnLCAnMi4wJywgJy1waCcsICc3LjAnLCAnLXRuJywgJzgnLCAnLW1hJywgJzIwMCcsICctaW1hZScsICc8aW5maWxlLm1hZT4nLCAnLW9tYWUnLCAnPG91dGZpbGUubWFlPic=

>  <r_lp_tautomer_probability>  (63) 
1

>  <r_epik_Ionization_Penalty>  (63) 
2.24294e-06

>  <r_epik_Ionization_Penalty_Charging>  (63) 
0

>  <r_epik_Ionization_Penalty_Neutral>  (63) 
2.24294e-06

>  <r_epik_State_Penalty>  (63) 
-0

>  <r_epik_Charging_Adjusted_Penalty>  (63) 
0

>  <i_epik_Tot_Q>  (63) 
0

>  <i_epik_Tot_abs_Q>  (63) 
0

>  <s_lp_Force_Field>  (63) 
OPLS3e

>  <r_lp_Energy>  (63) 
143.129

>  <b_lp_Chiralities_Consistent>  (63) 
1

>  <s_lp_Variant>  (63) 
17:0-1

>  <s_i_glide_gridfile>  (63) 
pfpi4k_grid

>  <i_i_glide_lignum>  (63) 
26

>  <i_i_glide_rotatable_bonds>  (63) 
2

>  <r_i_docking_score>  (63) 
-2.61891

>  <r_i_glide_ligand_efficiency>  (63) 
-0.0609049

>  <r_i_glide_ligand_efficiency_sa>  (63) 
-0.213374

>  <r_i_glide_ligand_efficiency_ln>  (63) 
-0.550052

>  <r_i_glide_gscore>  (63) 
-2.61891

>  <r_i_glide_lipo>  (63) 
-0.0890413

>  <r_i_glide_hbond>  (63) 
-0.010996

>  <r_i_glide_metal>  (63) 
-0

>  <r_i_glide_rewards>  (63) 
-0.5

>  <r_i_glide_evdw>  (63) 
-23.8031

>  <r_i_glide_ecoul>  (63) 
-5.14131

>  <r_i_glide_erotb>  (63) 
0

>  <r_i_glide_esite>  (63) 
-0.0575189

>  <r_i_glide_emodel>  (63) 
-39.1332

>  <r_i_glide_energy>  (63) 
-28.9444

>  <r_i_glide_einternal>  (63) 
0.0162988

>  <r_i_glide_intrahb_reward>  (63) 
-0.5

>  <i_i_glide_confnum>  (63) 
1

>  <i_i_glide_posenum>  (63) 
1

>  <r_i_glide_eff_state_penalty>  (63) 
0

>  <ligand_id>  (63) 
17

>  <original_smiles>  (63) 
CC1=CC2C(O)C3C=C4C(=O)C(C)(C)C45C(=O)C(C)C(C(C(=O)C46CC(=O)C(C)C(C)(C)C4CCC65)C3(C)C)C2(O)C1=O

>  <smiles>  (63) 
[H]OC1([H])C2([H])C([H])=C(C([H])([H])[H])C(=O)C2(O[H])C2([H])C([H])(C([H])([H])[H])C(=O)C34C(=C([H])C1([H])C(C([H])([H])[H])(C([H])([H])[H])C2([H])C(=O)C12C([H])([H])C(=O)C([H])(C([H])([H])[H])C(C([H])([H])[H])(C([H])([H])[H])C1([H])C([H])([H])C([H])([H])C32[H])C(=O)C4(C([H])([H])[H])C([H])([H])[H]

$$$$
17:0:1
     RDKit          3D

 89 95  0  0  1  0  0  0  0  0999 V2000
   -0.9584   -7.7743    2.1235 C   0  0  0  0  0  0  0  0  0  0  0  0
    0.1017   -8.3934    3.0121 C   0  0  0  0  0  0  0  0  0  0  0  0
   -0.0276   -9.0097    4.1951 C   0  0  0  0  0  0  0  0  0  0  0  0
    1.2834   -9.4594    4.8426 C   0  0  2  0  0  0  0  0  0  0  0  0
    1.4806   -8.6498    6.1801 C   0  0  1  0  0  0  0  0  0  0  0  0
    1.0682   -9.4535    7.2757 O   0  0  0  0  0  0  0  0  0  0  0  0
    2.7460   -7.7978    6.5609 C   0  0  1  0  0  0  0  0  0  0  0  0
    3.6319   -8.3335    7.7103 C   0  0  0  0  0  0  0  0  0  0  0  0
    4.6313   -9.2272    7.7262 C   0  0  0  0  0  0  0  0  0  0  0  0
    5.2851   -9.7968    8.8901 C   0  0  0  0  0  0  0  0  0  0  0  0
    5.5317   -9.3201    9.9889 O   0  0  0  0  0  0  0  0  0  0  0  0
    5.5191  -11.1051    8.0720 C   0  0  0  0  0  0  0  0  0  0  0  0
    6.8717  -11.7893    8.3684 C   0  0  0  0  0  0  0  0  0  0  0  0
    4.4457  -12.1153    8.5350 C   0  0  0  0  0  0  0  0  0  0  0  0
    5.3624  -10.1846    6.7645 C   0  0  1  0  0  0  0  0  0  0  0  0
    4.3957  -10.7380    5.7320 C   0  0  0  0  0  0  0  0  0  0  0  0
    3.4099  -11.4368    5.9647 O   0  0  0  0  0  0  0  0  0  0  0  0
    4.6164  -10.3750    4.2838 C   0  0  1  0  0  0  0  0  0  0  0  0
    4.6037  -11.6454    3.4012 C   0  0  0  0  0  0  0  0  0  0  0  0
    3.7962   -9.1212    3.8265 C   0  0  2  0  0  0  0  0  0  0  0  0
    4.3111   -7.7673    4.4804 C   0  0  2  0  0  0  0  0  0  0  0  0
    5.8852   -7.7088    4.5106 C   0  0  0  0  0  0  0  0  0  0  0  0
    6.3685   -7.4813    3.4101 O   0  0  0  0  0  0  0  0  0  0  0  0
    6.8757   -8.1071    5.6954 C   0  0  2  0  0  0  0  0  0  0  0  0
    6.9646   -7.0805    6.8635 C   0  0  0  0  0  0  0  0  0  0  0  0
    7.7607   -5.8103    6.5174 C   0  0  0  0  0  0  0  0  0  0  0  0
    7.2872   -4.6891    6.6473 O   0  0  0  0  0  0  0  0  0  0  0  0
    9.2104   -6.0159    6.0466 C   0  0  1  0  0  0  0  0  0  0  0  0
   10.0954   -6.3467    7.2719 C   0  0  0  0  0  0  0  0  0  0  0  0
    9.2677   -7.0277    4.8548 C   0  0  0  0  0  0  0  0  0  0  0  0
    8.8707   -6.2631    3.5693 C   0  0  0  0  0  0  0  0  0  0  0  0
   10.7235   -7.4869    4.6111 C   0  0  0  0  0  0  0  0  0  0  0  0
    8.3803   -8.2758    5.2348 C   0  0  2  0  0  0  0  0  0  0  0  0
    8.4422   -9.5975    4.4681 C   0  0  0  0  0  0  0  0  0  0  0  0
    7.6236  -10.5132    5.3926 C   0  0  0  0  0  0  0  0  0  0  0  0
    6.7171   -9.5724    6.2395 C   0  0  2  0  0  0  0  0  0  0  0  0
    3.4212   -6.9099    5.4782 C   0  0  0  0  0  0  0  0  0  0  0  0
    2.3162   -6.1041    4.7240 C   0  0  0  0  0  0  0  0  0  0  0  0
    4.1876   -5.7137    6.1320 C   0  0  0  0  0  0  0  0  0  0  0  0
    2.2495   -9.3491    3.6149 C   0  0  1  0  0  0  0  0  0  0  0  0
    2.0670  -10.5801    2.9410 O   0  0  0  0  0  0  0  0  0  0  0  0
    1.5238   -8.3932    2.6571 C   0  0  0  0  0  0  0  0  0  0  0  0
    2.0727   -7.7669    1.7568 O   0  0  0  0  0  0  0  0  0  0  0  0
   -0.7039   -6.7376    1.9210 H   0  0  0  0  0  0  0  0  0  0  0  0
   -1.9528   -7.8133    2.5697 H   0  0  0  0  0  0  0  0  0  0  0  0
   -0.9981   -8.2800    1.1629 H   0  0  0  0  0  0  0  0  0  0  0  0
   -0.9761   -9.1707    4.6879 H   0  0  0  0  0  0  0  0  0  0  0  0
    1.1579  -10.5121    5.1033 H   0  0  0  0  0  0  0  0  0  0  0  0
    0.6877   -7.9012    6.1664 H   0  0  0  0  0  0  0  0  0  0  0  0
    1.4106  -10.3378    7.1806 H   0  0  0  0  0  0  0  0  0  0  0  0
    2.2574   -7.0235    7.1581 H   0  0  0  0  0  0  0  0  0  0  0  0
    3.3622   -7.9251    8.6760 H   0  0  0  0  0  0  0  0  0  0  0  0
    7.1216  -12.4668    7.5504 H   0  0  0  0  0  0  0  0  0  0  0  0
    6.8587  -12.3961    9.2751 H   0  0  0  0  0  0  0  0  0  0  0  0
    7.7009  -11.0913    8.4826 H   0  0  0  0  0  0  0  0  0  0  0  0
    4.4231  -12.9825    7.8765 H   0  0  0  0  0  0  0  0  0  0  0  0
    3.4386  -11.6941    8.5480 H   0  0  0  0  0  0  0  0  0  0  0  0
    4.6336  -12.4965    9.5388 H   0  0  0  0  0  0  0  0  0  0  0  0
    5.6398  -10.0791    4.1367 H   0  0  0  0  0  0  0  0  0  0  0  0
    5.4817  -12.2633    3.5961 H   0  0  0  0  0  0  0  0  0  0  0  0
    4.6481  -11.3589    2.3540 H   0  0  0  0  0  0  0  0  0  0  0  0
    3.7413  -12.3035    3.5531 H   0  0  0  0  0  0  0  0  0  0  0  0
    4.1505   -9.0178    2.7984 H   0  0  0  0  0  0  0  0  0  0  0  0
    4.1870   -7.1172    3.6169 H   0  0  0  0  0  0  0  0  0  0  0  0
    6.0167   -6.8695    7.3240 H   0  0  0  0  0  0  0  0  0  0  0  0
    7.5275   -7.5225    7.6846 H   0  0  0  0  0  0  0  0  0  0  0  0
    9.5629   -5.0594    5.6802 H   0  0  0  0  0  0  0  0  0  0  0  0
    9.9840   -5.5790    8.0381 H   0  0  0  0  0  0  0  0  0  0  0  0
   11.1537   -6.3727    7.0141 H   0  0  0  0  0  0  0  0  0  0  0  0
    9.8388   -7.3009    7.7317 H   0  0  0  0  0  0  0  0  0  0  0  0
    8.7552   -6.9243    2.7103 H   0  0  0  0  0  0  0  0  0  0  0  0
    9.6310   -5.5346    3.2901 H   0  0  0  0  0  0  0  0  0  0  0  0
    7.9592   -5.6778    3.6997 H   0  0  0  0  0  0  0  0  0  0  0  0
   10.8033   -8.0511    3.6797 H   0  0  0  0  0  0  0  0  0  0  0  0
   11.1011   -8.1215    5.4119 H   0  0  0  0  0  0  0  0  0  0  0  0
   11.3965   -6.6328    4.5217 H   0  0  0  0  0  0  0  0  0  0  0  0
    8.9213   -8.5665    6.1382 H   0  0  0  0  0  0  0  0  0  0  0  0
    7.9849   -9.5179    3.4813 H   0  0  0  0  0  0  0  0  0  0  0  0
    9.4572   -9.9757    4.3463 H   0  0  0  0  0  0  0  0  0  0  0  0
    7.1034  -11.2908    4.8437 H   0  0  0  0  0  0  0  0  0  0  0  0
    8.3013  -11.0477    6.0564 H   0  0  0  0  0  0  0  0  0  0  0  0
    7.3184   -9.4954    7.1431 H   0  0  0  0  0  0  0  0  0  0  0  0
    1.8595   -5.3226    5.3294 H   0  0  0  0  0  0  0  0  0  0  0  0
    1.4486   -6.6728    4.4579 H   0  0  0  0  0  0  0  0  0  0  0  0
    2.6974   -5.6241    3.8248 H   0  0  0  0  0  0  0  0  0  0  0  0
    5.0833   -5.4392    5.5824 H   0  0  0  0  0  0  0  0  0  0  0  0
    4.4039   -5.8593    7.1863 H   0  0  0  0  0  0  0  0  0  0  0  0
    3.6298   -4.7785    6.1633 H   0  0  0  0  0  0  0  0  0  0  0  0
    2.4927  -11.2693    3.4373 H   0  0  0  0  0  0  0  0  0  0  0  0
  1  2  1  0
  1 44  1  0
  1 45  1  0
  1 46  1  0
  2 42  1  0
  2  3  2  0
  3  4  1  0
  3 47  1  0
  4 40  1  0
  4  5  1  0
  4 48  1  1
  5  6  1  0
  5  7  1  0
  5 49  1  6
  6 50  1  0
  7 37  1  0
  7  8  1  0
  7 51  1  1
  8  9  2  3
  8 52  1  0
  9 15  1  0
  9 10  1  0
 10 11  2  0
 10 12  1  0
 12 13  1  0
 12 14  1  0
 15 12  1  1
 13 53  1  0
 13 54  1  0
 13 55  1  0
 14 56  1  0
 14 57  1  0
 14 58  1  0
 15 36  1  0
 15 16  1  0
 16 17  2  0
 16 18  1  0
 18 19  1  0
 18 20  1  0
 18 59  1  1
 19 60  1  0
 19 61  1  0
 19 62  1  0
 20 21  1  0
 20 40  1  0
 20 63  1  6
 21 22  1  0
 21 37  1  0
 21 64  1  6
 22 23  2  0
 22 24  1  0
 24 33  1  0
 24 36  1  0
 24 25  1  1
 25 26  1  0
 25 65  1  0
 25 66  1  0
 26 27  2  0
 26 28  1  0
 28 29  1  0
 28 30  1  0
 28 67  1  6
 29 68  1  0
 29 69  1  0
 29 70  1  0
 30 31  1  0
 30 32  1  0
 30 33  1  0
 31 71  1  0
 31 72  1  0
 31 73  1  0
 32 74  1  0
 32 75  1  0
 32 76  1  0
 33 34  1  0
 33 77  1  1
 34 35  1  0
 34 78  1  0
 34 79  1  0
 35 36  1  0
 35 80  1  0
 35 81  1  0
 36 82  1  1
 37 38  1  0
 37 39  1  0
 38 83  1  0
 38 84  1  0
 38 85  1  0
 39 86  1  0
 39 87  1  0
 39 88  1  0
 40 41  1  6
 40 42  1  0
 41 89  1  0
 42 43  2  0
M  END
>  <i_m_ct_stereo_status>  (64) 
1

>  <s_m_source_file>  (64) 
/var/tmp/pbs.5076255.sched01/tmpj20d55gn/0_c3see42.sdf

>  <i_m_source_file_index>  (64) 
26

>  <i_lp_mmshare_version>  (64) 
48012

>  <i_f3d_flags>  (64) 
0

>  <s_epik_input>  (64) 
W0NIM11DMShbQ0gzXSlDKD1PKVxDKFtDQEBdMTIzKT1bQ0hdXFtDQEBIXTRbQ0BIXShbT0hdKVtDQEBIXTVbQ0BAXShbT0hdKShDKD1PKUMoW0NIM10pPVtDSF01KVtDQEhdKFtDQEBIXShDMj1PKVtDSDNdKVtDSF0oQzQoW0NIM10pW0NIM10pQyg9TylbQ0BAXTY3W0NAQEhdKFtDSDJdW0NIMl1bQ0BIXTM3KUMoW0NIM10pKFtDSDNdKVtDQEhdKFtDSDNdKUMoPU8pW0NIMl02

>  <s_epik_cmdline>  (64) 
J2VwaWtfcHl0aG9uJywgJy1waHQnLCAnMi4wJywgJy1waCcsICc3LjAnLCAnLXRuJywgJzgnLCAnLW1hJywgJzIwMCcsICctaW1hZScsICc8aW5maWxlLm1hZT4nLCAnLW9tYWUnLCAnPG91dGZpbGUubWFlPic=

>  <r_lp_tautomer_probability>  (64) 
1

>  <r_epik_Ionization_Penalty>  (64) 
2.24294e-06

>  <r_epik_Ionization_Penalty_Charging>  (64) 
0

>  <r_epik_Ionization_Penalty_Neutral>  (64) 
2.24294e-06

>  <r_epik_State_Penalty>  (64) 
-0

>  <r_epik_Charging_Adjusted_Penalty>  (64) 
0

>  <i_epik_Tot_Q>  (64) 
0

>  <i_epik_Tot_abs_Q>  (64) 
0

>  <s_lp_Force_Field>  (64) 
OPLS3e

>  <r_lp_Energy>  (64) 
143.129

>  <b_lp_Chiralities_Consistent>  (64) 
1

>  <s_lp_Variant>  (64) 
17:0-1

>  <s_i_glide_gridfile>  (64) 
pfpi4k_grid

>  <i_i_glide_lignum>  (64) 
26

>  <i_i_glide_rotatable_bonds>  (64) 
2

>  <r_i_docking_score>  (64) 
-1.68376

>  <r_i_glide_ligand_efficiency>  (64) 
-0.0391572

>  <r_i_glide_ligand_efficiency_sa>  (64) 
-0.137183

>  <r_i_glide_ligand_efficiency_ln>  (64) 
-0.353642

>  <r_i_glide_gscore>  (64) 
-1.68376

>  <r_i_glide_lipo>  (64) 
-0.0636539

>  <r_i_glide_hbond>  (64) 
0

>  <r_i_glide_metal>  (64) 
-0

>  <r_i_glide_rewards>  (64) 
-0.0207166

>  <r_i_glide_evdw>  (64) 
-23.3743

>  <r_i_glide_ecoul>  (64) 
-2.59384

>  <r_i_glide_erotb>  (64) 
0

>  <r_i_glide_esite>  (64) 
-0.0415992

>  <r_i_glide_emodel>  (64) 
-28.7731

>  <r_i_glide_energy>  (64) 
-25.9682

>  <r_i_glide_einternal>  (64) 
0.491332

>  <r_i_glide_intrahb_reward>  (64) 
-0

>  <i_i_glide_confnum>  (64) 
1

>  <i_i_glide_posenum>  (64) 
4

>  <r_i_glide_eff_state_penalty>  (64) 
0

>  <ligand_id>  (64) 
17

>  <original_smiles>  (64) 
CC1=CC2C(O)C3C=C4C(=O)C(C)(C)C45C(=O)C(C)C(C(C(=O)C46CC(=O)C(C)C(C)(C)C4CCC65)C3(C)C)C2(O)C1=O

>  <smiles>  (64) 
[H]OC1([H])C2([H])C([H])=C(C([H])([H])[H])C(=O)C2(O[H])C2([H])C([H])(C([H])([H])[H])C(=O)C34C(=C([H])C1([H])C(C([H])([H])[H])(C([H])([H])[H])C2([H])C(=O)C12C([H])([H])C(=O)C([H])(C([H])([H])[H])C(C([H])([H])[H])(C([H])([H])[H])C1([H])C([H])([H])C([H])([H])C32[H])C(=O)C4(C([H])([H])[H])C([H])([H])[H]

$$$$
17:0:2
     RDKit          3D

 89 95  0  0  1  0  0  0  0  0999 V2000
   -0.9485   -7.7729    2.1288 C   0  0  0  0  0  0  0  0  0  0  0  0
    0.1132   -8.3943    3.0154 C   0  0  0  0  0  0  0  0  0  0  0  0
   -0.0175   -9.0107    4.1967 C   0  0  0  0  0  0  0  0  0  0  0  0
    1.2955   -9.4638    4.8436 C   0  0  2  0  0  0  0  0  0  0  0  0
    1.4909   -8.6559    6.1842 C   0  0  1  0  0  0  0  0  0  0  0  0
    1.0756   -9.4573    7.2785 O   0  0  0  0  0  0  0  0  0  0  0  0
    2.7608   -7.8031    6.5652 C   0  0  1  0  0  0  0  0  0  0  0  0
    3.6449   -8.3390    7.7154 C   0  0  0  0  0  0  0  0  0  0  0  0
    4.6428   -9.2368    7.7322 C   0  0  0  0  0  0  0  0  0  0  0  0
    5.2938   -9.8049    8.8977 C   0  0  0  0  0  0  0  0  0  0  0  0
    5.5417   -9.3284    9.9921 O   0  0  0  0  0  0  0  0  0  0  0  0
    5.5224  -11.1159    8.0827 C   0  0  0  0  0  0  0  0  0  0  0  0
    6.8734  -11.8042    8.3785 C   0  0  0  0  0  0  0  0  0  0  0  0
    4.4464  -12.1217    8.5478 C   0  0  0  0  0  0  0  0  0  0  0  0
    5.3680  -10.1976    6.7732 C   0  0  1  0  0  0  0  0  0  0  0  0
    4.3977  -10.7472    5.7436 C   0  0  0  0  0  0  0  0  0  0  0  0
    3.4068  -11.4366    5.9863 O   0  0  0  0  0  0  0  0  0  0  0  0
    4.6225  -10.3893    4.2949 C   0  0  1  0  0  0  0  0  0  0  0  0
    4.6105  -11.6611    3.4125 C   0  0  0  0  0  0  0  0  0  0  0  0
    3.8110   -9.1304    3.8348 C   0  0  2  0  0  0  0  0  0  0  0  0
    4.3271   -7.7767    4.4859 C   0  0  2  0  0  0  0  0  0  0  0  0
    5.9009   -7.7247    4.5145 C   0  0  0  0  0  0  0  0  0  0  0  0
    6.3832   -7.5042    3.4110 O   0  0  0  0  0  0  0  0  0  0  0  0
    6.8898   -8.1254    5.6986 C   0  0  2  0  0  0  0  0  0  0  0  0
    6.9837   -7.0971    6.8636 C   0  0  0  0  0  0  0  0  0  0  0  0
    7.7811   -5.8305    6.5153 C   0  0  0  0  0  0  0  0  0  0  0  0
    7.3098   -4.7072    6.6447 O   0  0  0  0  0  0  0  0  0  0  0  0
    9.2295   -6.0381    6.0482 C   0  0  1  0  0  0  0  0  0  0  0  0
   10.1145   -6.3731    7.2697 C   0  0  0  0  0  0  0  0  0  0  0  0
    9.2846   -7.0514    4.8571 C   0  0  0  0  0  0  0  0  0  0  0  0
    8.8900   -6.2908    3.5685 C   0  0  0  0  0  0  0  0  0  0  0  0
   10.7395   -7.5217    4.6137 C   0  0  0  0  0  0  0  0  0  0  0  0
    8.3926   -8.2974    5.2382 C   0  0  2  0  0  0  0  0  0  0  0  0
    8.4501   -9.6236    4.4729 C   0  0  0  0  0  0  0  0  0  0  0  0
    7.6285  -10.5358    5.3988 C   0  0  0  0  0  0  0  0  0  0  0  0
    6.7246   -9.5905    6.2438 C   0  0  2  0  0  0  0  0  0  0  0  0
    3.4380   -6.9166    5.4816 C   0  0  0  0  0  0  0  0  0  0  0  0
    2.3355   -6.1096    4.7255 C   0  0  0  0  0  0  0  0  0  0  0  0
    4.2084   -5.7232    6.1324 C   0  0  0  0  0  0  0  0  0  0  0  0
    2.2634   -9.3501    3.6177 C   0  0  1  0  0  0  0  0  0  0  0  0
    2.1015  -10.5788    2.9372 O   0  0  0  0  0  0  0  0  0  0  0  0
    1.5353   -8.3984    2.6623 C   0  0  0  0  0  0  0  0  0  0  0  0
    2.0844   -7.7923    1.7453 O   0  0  0  0  0  0  0  0  0  0  0  0
   -0.6890   -6.7376    1.9223 H   0  0  0  0  0  0  0  0  0  0  0  0
   -1.9410   -7.8048    2.5791 H   0  0  0  0  0  0  0  0  0  0  0  0
   -0.9997   -8.2813    1.1696 H   0  0  0  0  0  0  0  0  0  0  0  0
   -0.9659   -9.1690    4.6913 H   0  0  0  0  0  0  0  0  0  0  0  0
    1.1714  -10.5170    5.0972 H   0  0  0  0  0  0  0  0  0  0  0  0
    0.7001   -7.9032    6.1706 H   0  0  0  0  0  0  0  0  0  0  0  0
    1.4169  -10.3494    7.1777 H   0  0  0  0  0  0  0  0  0  0  0  0
    2.2724   -7.0267    7.1597 H   0  0  0  0  0  0  0  0  0  0  0  0
    3.3755   -7.9276    8.6788 H   0  0  0  0  0  0  0  0  0  0  0  0
    7.1199  -12.4842    7.5601 H   0  0  0  0  0  0  0  0  0  0  0  0
    6.8581  -12.4088    9.2839 H   0  0  0  0  0  0  0  0  0  0  0  0
    7.7045  -11.1094    8.4899 H   0  0  0  0  0  0  0  0  0  0  0  0
    4.4202  -12.9900    7.8888 H   0  0  0  0  0  0  0  0  0  0  0  0
    3.4407  -11.6976    8.5591 H   0  0  0  0  0  0  0  0  0  0  0  0
    4.6330  -12.5017    9.5498 H   0  0  0  0  0  0  0  0  0  0  0  0
    5.6468  -10.0971    4.1454 H   0  0  0  0  0  0  0  0  0  0  0  0
    5.4799  -12.2886    3.6116 H   0  0  0  0  0  0  0  0  0  0  0  0
    4.6602  -11.3815    2.3652 H   0  0  0  0  0  0  0  0  0  0  0  0
    3.7359  -12.3017    3.5644 H   0  0  0  0  0  0  0  0  0  0  0  0
    4.1684   -9.0250    2.8087 H   0  0  0  0  0  0  0  0  0  0  0  0
    4.2032   -7.1283    3.6199 H   0  0  0  0  0  0  0  0  0  0  0  0
    6.0359   -6.8840    7.3240 H   0  0  0  0  0  0  0  0  0  0  0  0
    7.5434   -7.5413    7.6862 H   0  0  0  0  0  0  0  0  0  0  0  0
    9.5823   -5.0757    5.6803 H   0  0  0  0  0  0  0  0  0  0  0  0
   10.0070   -5.6058    8.0362 H   0  0  0  0  0  0  0  0  0  0  0  0
   11.1726   -6.4046    7.0129 H   0  0  0  0  0  0  0  0  0  0  0  0
    9.8545   -7.3252    7.7294 H   0  0  0  0  0  0  0  0  0  0  0  0
    8.7716   -6.9541    2.7115 H   0  0  0  0  0  0  0  0  0  0  0  0
    9.6547   -5.5680    3.2875 H   0  0  0  0  0  0  0  0  0  0  0  0
    7.9807   -5.7027    3.6969 H   0  0  0  0  0  0  0  0  0  0  0  0
   10.8154   -8.0926    3.6852 H   0  0  0  0  0  0  0  0  0  0  0  0
   11.1138   -8.1539    5.4209 H   0  0  0  0  0  0  0  0  0  0  0  0
   11.4151   -6.6689    4.5213 H   0  0  0  0  0  0  0  0  0  0  0  0
    8.9328   -8.5920    6.1405 H   0  0  0  0  0  0  0  0  0  0  0  0
    7.9923   -9.5455    3.4857 H   0  0  0  0  0  0  0  0  0  0  0  0
    9.4632  -10.0068    4.3510 H   0  0  0  0  0  0  0  0  0  0  0  0
    7.1048  -11.3135    4.8516 H   0  0  0  0  0  0  0  0  0  0  0  0
    8.3043  -11.0721    6.0633 H   0  0  0  0  0  0  0  0  0  0  0  0
    7.3269   -9.5148    7.1482 H   0  0  0  0  0  0  0  0  0  0  0  0
    1.8817   -5.3249    5.3294 H   0  0  0  0  0  0  0  0  0  0  0  0
    1.4647   -6.6758    4.4613 H   0  0  0  0  0  0  0  0  0  0  0  0
    2.7180   -5.6322    3.8241 H   0  0  0  0  0  0  0  0  0  0  0  0
    5.1051   -5.4531    5.5813 H   0  0  0  0  0  0  0  0  0  0  0  0
    4.4249   -5.8681    7.1861 H   0  0  0  0  0  0  0  0  0  0  0  0
    3.6544   -4.7857    6.1618 H   0  0  0  0  0  0  0  0  0  0  0  0
    2.6709  -10.5827    2.1827 H   0  0  0  0  0  0  0  0  0  0  0  0
  1  2  1  0
  1 44  1  0
  1 45  1  0
  1 46  1  0
  2 42  1  0
  2  3  2  0
  3  4  1  0
  3 47  1  0
  4 40  1  0
  4  5  1  0
  4 48  1  1
  5  6  1  0
  5  7  1  0
  5 49  1  6
  6 50  1  0
  7 37  1  0
  7  8  1  0
  7 51  1  1
  8  9  2  3
  8 52  1  0
  9 15  1  0
  9 10  1  0
 10 11  2  0
 10 12  1  0
 12 13  1  0
 12 14  1  0
 15 12  1  1
 13 53  1  0
 13 54  1  0
 13 55  1  0
 14 56  1  0
 14 57  1  0
 14 58  1  0
 15 36  1  0
 15 16  1  0
 16 17  2  0
 16 18  1  0
 18 19  1  0
 18 20  1  0
 18 59  1  1
 19 60  1  0
 19 61  1  0
 19 62  1  0
 20 21  1  0
 20 40  1  0
 20 63  1  6
 21 22  1  0
 21 37  1  0
 21 64  1  6
 22 23  2  0
 22 24  1  0
 24 33  1  0
 24 36  1  0
 24 25  1  1
 25 26  1  0
 25 65  1  0
 25 66  1  0
 26 27  2  0
 26 28  1  0
 28 29  1  0
 28 30  1  0
 28 67  1  6
 29 68  1  0
 29 69  1  0
 29 70  1  0
 30 31  1  0
 30 32  1  0
 30 33  1  0
 31 71  1  0
 31 72  1  0
 31 73  1  0
 32 74  1  0
 32 75  1  0
 32 76  1  0
 33 34  1  0
 33 77  1  1
 34 35  1  0
 34 78  1  0
 34 79  1  0
 35 36  1  0
 35 80  1  0
 35 81  1  0
 36 82  1  1
 37 38  1  0
 37 39  1  0
 38 83  1  0
 38 84  1  0
 38 85  1  0
 39 86  1  0
 39 87  1  0
 39 88  1  0
 40 41  1  6
 40 42  1  0
 41 89  1  0
 42 43  2  0
M  END
>  <i_m_ct_stereo_status>  (65) 
1

>  <s_m_source_file>  (65) 
/var/tmp/pbs.5076255.sched01/tmpj20d55gn/0_c3see42.sdf

>  <i_m_source_file_index>  (65) 
26

>  <i_lp_mmshare_version>  (65) 
48012

>  <i_f3d_flags>  (65) 
0

>  <s_epik_input>  (65) 
W0NIM11DMShbQ0gzXSlDKD1PKVxDKFtDQEBdMTIzKT1bQ0hdXFtDQEBIXTRbQ0BIXShbT0hdKVtDQEBIXTVbQ0BAXShbT0hdKShDKD1PKUMoW0NIM10pPVtDSF01KVtDQEhdKFtDQEBIXShDMj1PKVtDSDNdKVtDSF0oQzQoW0NIM10pW0NIM10pQyg9TylbQ0BAXTY3W0NAQEhdKFtDSDJdW0NIMl1bQ0BIXTM3KUMoW0NIM10pKFtDSDNdKVtDQEhdKFtDSDNdKUMoPU8pW0NIMl02

>  <s_epik_cmdline>  (65) 
J2VwaWtfcHl0aG9uJywgJy1waHQnLCAnMi4wJywgJy1waCcsICc3LjAnLCAnLXRuJywgJzgnLCAnLW1hJywgJzIwMCcsICctaW1hZScsICc8aW5maWxlLm1hZT4nLCAnLW9tYWUnLCAnPG91dGZpbGUubWFlPic=

>  <r_lp_tautomer_probability>  (65) 
1

>  <r_epik_Ionization_Penalty>  (65) 
2.24294e-06

>  <r_epik_Ionization_Penalty_Charging>  (65) 
0

>  <r_epik_Ionization_Penalty_Neutral>  (65) 
2.24294e-06

>  <r_epik_State_Penalty>  (65) 
-0

>  <r_epik_Charging_Adjusted_Penalty>  (65) 
0

>  <i_epik_Tot_Q>  (65) 
0

>  <i_epik_Tot_abs_Q>  (65) 
0

>  <s_lp_Force_Field>  (65) 
OPLS3e

>  <r_lp_Energy>  (65) 
143.129

>  <b_lp_Chiralities_Consistent>  (65) 
1

>  <s_lp_Variant>  (65) 
17:0-1

>  <s_i_glide_gridfile>  (65) 
pfpi4k_grid

>  <i_i_glide_lignum>  (65) 
26

>  <i_i_glide_rotatable_bonds>  (65) 
2

>  <r_i_docking_score>  (65) 
-1.65794

>  <r_i_glide_ligand_efficiency>  (65) 
-0.0385567

>  <r_i_glide_ligand_efficiency_sa>  (65) 
-0.13508

>  <r_i_glide_ligand_efficiency_ln>  (65) 
-0.348219

>  <r_i_glide_gscore>  (65) 
-1.65794

>  <r_i_glide_lipo>  (65) 
-0.0638202

>  <r_i_glide_hbond>  (65) 
0

>  <r_i_glide_metal>  (65) 
-0

>  <r_i_glide_rewards>  (65) 
-0.0206262

>  <r_i_glide_evdw>  (65) 
-23.3522

>  <r_i_glide_ecoul>  (65) 
-2.4285

>  <r_i_glide_erotb>  (65) 
0

>  <r_i_glide_esite>  (65) 
-0.0416093

>  <r_i_glide_emodel>  (65) 
-27.6703

>  <r_i_glide_energy>  (65) 
-25.7807

>  <r_i_glide_einternal>  (65) 
2.20953

>  <r_i_glide_intrahb_reward>  (65) 
-0

>  <i_i_glide_confnum>  (65) 
1

>  <i_i_glide_posenum>  (65) 
17

>  <r_i_glide_eff_state_penalty>  (65) 
0

>  <ligand_id>  (65) 
17

>  <original_smiles>  (65) 
CC1=CC2C(O)C3C=C4C(=O)C(C)(C)C45C(=O)C(C)C(C(C(=O)C46CC(=O)C(C)C(C)(C)C4CCC65)C3(C)C)C2(O)C1=O

>  <smiles>  (65) 
[H]OC1([H])C2([H])C([H])=C(C([H])([H])[H])C(=O)C2(O[H])C2([H])C([H])(C([H])([H])[H])C(=O)C34C(=C([H])C1([H])C(C([H])([H])[H])(C([H])([H])[H])C2([H])C(=O)C12C([H])([H])C(=O)C([H])(C([H])([H])[H])C(C([H])([H])[H])(C([H])([H])[H])C1([H])C([H])([H])C([H])([H])C32[H])C(=O)C4(C([H])([H])[H])C([H])([H])[H]

$$$$
17:1:0
     RDKit          3D

 89 95  0  0  1  0  0  0  0  0999 V2000
   -1.3969   -8.6642    2.3874 C   0  0  0  0  0  0  0  0  0  0  0  0
    0.0080   -9.0506    2.8158 C   0  0  0  0  0  0  0  0  0  0  0  0
    0.4265  -10.1036    3.5312 C   0  0  0  0  0  0  0  0  0  0  0  0
    1.9229  -10.1578    3.7754 C   0  0  2  0  0  0  0  0  0  0  0  0
    2.3227  -10.1135    5.3116 C   0  0  1  0  0  0  0  0  0  0  0  0
    3.0143  -11.2909    5.6814 O   0  0  0  0  0  0  0  0  0  0  0  0
    3.0445   -8.8781    5.9909 C   0  0  1  0  0  0  0  0  0  0  0  0
    4.6388   -8.7347    5.9052 C   0  0  0  0  0  0  0  0  0  0  0  0
    5.7002   -8.0440    5.0890 C   0  0  0  0  0  0  0  0  0  0  0  0
    6.1482   -7.0061    3.9071 C   0  0  0  0  0  0  0  0  0  0  0  0
    5.5993   -6.1673    3.1913 O   0  0  0  0  0  0  0  0  0  0  0  0
    7.5747   -7.4712    3.9747 C   0  0  0  0  0  0  0  0  0  0  0  0
    8.1087   -8.1334    2.6782 C   0  0  0  0  0  0  0  0  0  0  0  0
    8.5244   -6.2773    4.1662 C   0  0  0  0  0  0  0  0  0  0  0  0
    7.0331   -8.3692    5.1799 C   0  0  2  0  0  0  0  0  0  0  0  0
    6.3942   -9.7044    4.3970 C   0  0  0  0  0  0  0  0  0  0  0  0
    6.9241  -10.8094    4.5165 O   0  0  0  0  0  0  0  0  0  0  0  0
    5.0158   -9.5432    3.3482 C   0  0  1  0  0  0  0  0  0  0  0  0
    4.7577  -11.0387    2.9545 C   0  0  0  0  0  0  0  0  0  0  0  0
    3.6728   -8.2831    3.4558 C   0  0  2  0  0  0  0  0  0  0  0  0
    3.2585   -6.9909    4.7409 C   0  0  2  0  0  0  0  0  0  0  0  0
    4.2123   -5.8747    5.6529 C   0  0  0  0  0  0  0  0  0  0  0  0
    3.9242   -4.7088    5.4090 O   0  0  0  0  0  0  0  0  0  0  0  0
    5.5535   -6.1603    6.7326 C   0  0  2  0  0  0  0  0  0  0  0  0
    4.9715   -6.3366    8.1755 C   0  0  0  0  0  0  0  0  0  0  0  0
    5.7631   -5.7842    9.3601 C   0  0  0  0  0  0  0  0  0  0  0  0
    6.1702   -6.5248   10.2567 O   0  0  0  0  0  0  0  0  0  0  0  0
    6.0043   -4.2689    9.3612 C   0  0  1  0  0  0  0  0  0  0  0  0
    7.1183   -3.8534   10.3576 C   0  0  0  0  0  0  0  0  0  0  0  0
    6.0821   -3.7132    7.8883 C   0  0  0  0  0  0  0  0  0  0  0  0
    4.7052   -3.0601    7.6038 C   0  0  0  0  0  0  0  0  0  0  0  0
    7.0772   -2.5262    7.7571 C   0  0  0  0  0  0  0  0  0  0  0  0
    6.4817   -4.8574    6.8436 C   0  0  1  0  0  0  0  0  0  0  0  0
    7.9365   -5.3429    7.1540 C   0  0  0  0  0  0  0  0  0  0  0  0
    8.0221   -6.8712    7.1734 C   0  0  0  0  0  0  0  0  0  0  0  0
    6.7332   -7.4567    6.5888 C   0  0  2  0  0  0  0  0  0  0  0  0
    2.2837   -7.5554    5.8294 C   0  0  0  0  0  0  0  0  0  0  0  0
    0.7787   -7.4849    5.4110 C   0  0  0  0  0  0  0  0  0  0  0  0
    2.1072   -6.9191    7.2580 C   0  0  0  0  0  0  0  0  0  0  0  0
    2.4331   -9.0106    2.8439 C   0  0  1  0  0  0  0  0  0  0  0  0
    2.7825   -9.4722    1.5473 O   0  0  0  0  0  0  0  0  0  0  0  0
    1.1709   -8.2346    2.4754 C   0  0  0  0  0  0  0  0  0  0  0  0
    1.1665   -7.1188    1.9465 O   0  0  0  0  0  0  0  0  0  0  0  0
   -1.6050   -7.6401    2.6885 H   0  0  0  0  0  0  0  0  0  0  0  0
   -2.1550   -9.3151    2.8263 H   0  0  0  0  0  0  0  0  0  0  0  0
   -1.4794   -8.7171    1.3031 H   0  0  0  0  0  0  0  0  0  0  0  0
   -0.2124  -10.8771    3.9281 H   0  0  0  0  0  0  0  0  0  0  0  0
    2.1892  -11.1368    3.3756 H   0  0  0  0  0  0  0  0  0  0  0  0
    1.3898  -10.2524    5.8650 H   0  0  0  0  0  0  0  0  0  0  0  0
    2.4917  -11.7691    6.3187 H   0  0  0  0  0  0  0  0  0  0  0  0
    2.9421   -9.1613    7.0359 H   0  0  0  0  0  0  0  0  0  0  0  0
    5.0364   -9.4584    6.6071 H   0  0  0  0  0  0  0  0  0  0  0  0
    9.0041   -8.7138    2.9023 H   0  0  0  0  0  0  0  0  0  0  0  0
    8.4059   -7.4140    1.9143 H   0  0  0  0  0  0  0  0  0  0  0  0
    7.4167   -8.7914    2.1627 H   0  0  0  0  0  0  0  0  0  0  0  0
    8.9449   -5.8901    3.2334 H   0  0  0  0  0  0  0  0  0  0  0  0
    9.3897   -6.5375    4.7740 H   0  0  0  0  0  0  0  0  0  0  0  0
    8.0120   -5.4237    4.5852 H   0  0  0  0  0  0  0  0  0  0  0  0
    5.4596   -9.1969    2.4208 H   0  0  0  0  0  0  0  0  0  0  0  0
    5.6535  -11.4529    2.4916 H   0  0  0  0  0  0  0  0  0  0  0  0
    4.0065  -11.2559    2.2186 H   0  0  0  0  0  0  0  0  0  0  0  0
    4.5408  -11.6820    3.8042 H   0  0  0  0  0  0  0  0  0  0  0  0
    3.8845   -7.6425    2.6005 H   0  0  0  0  0  0  0  0  0  0  0  0
    2.6601   -6.2865    4.1615 H   0  0  0  0  0  0  0  0  0  0  0  0
    4.0487   -5.7777    8.2535 H   0  0  0  0  0  0  0  0  0  0  0  0
    4.7698   -7.3864    8.3809 H   0  0  0  0  0  0  0  0  0  0  0  0
    5.0975   -3.8619    9.8081 H   0  0  0  0  0  0  0  0  0  0  0  0
    6.8572   -4.1634   11.3675 H   0  0  0  0  0  0  0  0  0  0  0  0
    7.2476   -2.7744   10.4023 H   0  0  0  0  0  0  0  0  0  0  0  0
    8.0862   -4.2964   10.1364 H   0  0  0  0  0  0  0  0  0  0  0  0
    4.6578   -2.6223    6.6066 H   0  0  0  0  0  0  0  0  0  0  0  0
    4.5038   -2.2517    8.3099 H   0  0  0  0  0  0  0  0  0  0  0  0
    3.8750   -3.7541    7.7170 H   0  0  0  0  0  0  0  0  0  0  0  0
    7.0983   -2.1429    6.7365 H   0  0  0  0  0  0  0  0  0  0  0  0
    8.1021   -2.7835    8.0253 H   0  0  0  0  0  0  0  0  0  0  0  0
    6.7860   -1.6915    8.3972 H   0  0  0  0  0  0  0  0  0  0  0  0
    6.5047   -4.3909    5.8586 H   0  0  0  0  0  0  0  0  0  0  0  0
    8.6700   -4.8931    6.4896 H   0  0  0  0  0  0  0  0  0  0  0  0
    8.2835   -5.0132    8.1286 H   0  0  0  0  0  0  0  0  0  0  0  0
    8.9273   -7.2597    6.7132 H   0  0  0  0  0  0  0  0  0  0  0  0
    8.1031   -7.1808    8.2158 H   0  0  0  0  0  0  0  0  0  0  0  0
    6.5180   -8.1782    7.3831 H   0  0  0  0  0  0  0  0  0  0  0  0
    0.1400   -6.8784    6.0521 H   0  0  0  0  0  0  0  0  0  0  0  0
    0.2660   -8.4391    5.4012 H   0  0  0  0  0  0  0  0  0  0  0  0
    0.6377   -6.9250    4.4992 H   0  0  0  0  0  0  0  0  0  0  0  0
    2.0845   -5.8288    7.2556 H   0  0  0  0  0  0  0  0  0  0  0  0
    2.7889   -7.3020    7.9989 H   0  0  0  0  0  0  0  0  0  0  0  0
    1.1824   -7.2283    7.7477 H   0  0  0  0  0  0  0  0  0  0  0  0
    3.4358  -10.1559    1.6224 H   0  0  0  0  0  0  0  0  0  0  0  0
  1  2  1  0
  1 44  1  0
  1 45  1  0
  1 46  1  0
  2 42  1  0
  2  3  2  0
  3  4  1  0
  3 47  1  0
  4 40  1  0
  4  5  1  0
  4 48  1  6
  5  6  1  0
  5  7  1  0
  5 49  1  1
  6 50  1  0
  7 37  1  0
  7  8  1  0
  7 51  1  1
  8  9  2  3
  8 52  1  0
  9 15  1  0
  9 10  1  0
 10 11  2  0
 10 12  1  0
 12 13  1  0
 12 14  1  0
 15 12  1  6
 13 53  1  0
 13 54  1  0
 13 55  1  0
 14 56  1  0
 14 57  1  0
 14 58  1  0
 15 36  1  0
 15 16  1  0
 16 17  2  0
 16 18  1  0
 18 19  1  0
 18 20  1  0
 18 59  1  6
 19 60  1  0
 19 61  1  0
 19 62  1  0
 20 21  1  0
 20 40  1  0
 20 63  1  6
 21 22  1  0
 21 37  1  0
 21 64  1  6
 22 23  2  0
 22 24  1  0
 24 33  1  0
 24 36  1  0
 24 25  1  1
 25 26  1  0
 25 65  1  0
 25 66  1  0
 26 27  2  0
 26 28  1  0
 28 29  1  0
 28 30  1  0
 28 67  1  1
 29 68  1  0
 29 69  1  0
 29 70  1  0
 30 31  1  0
 30 32  1  0
 30 33  1  0
 31 71  1  0
 31 72  1  0
 31 73  1  0
 32 74  1  0
 32 75  1  0
 32 76  1  0
 33 34  1  0
 33 77  1  6
 34 35  1  0
 34 78  1  0
 34 79  1  0
 35 36  1  0
 35 80  1  0
 35 81  1  0
 36 82  1  1
 37 38  1  0
 37 39  1  0
 38 83  1  0
 38 84  1  0
 38 85  1  0
 39 86  1  0
 39 87  1  0
 39 88  1  0
 40 41  1  6
 40 42  1  0
 41 89  1  0
 42 43  2  0
M  END
>  <i_m_ct_stereo_status>  (66) 
1

>  <s_m_source_file>  (66) 
/var/tmp/pbs.5076255.sched01/tmpj20d55gn/0_c3see42.sdf

>  <i_m_source_file_index>  (66) 
27

>  <i_lp_mmshare_version>  (66) 
48012

>  <i_f3d_flags>  (66) 
2

>  <s_epik_input>  (66) 
W0NIM11DMShbQ0gzXSlDKD1PKVxDKFtDQEBdMTIzKT1bQ0hdXFtDQEBIXTRbQ0BIXShbT0hdKVtDQEBIXTVbQ0BAXShbT0hdKShDKD1PKUMoW0NIM10pPVtDSF01KVtDQEhdKFtDQEBIXShDMj1PKVtDSDNdKVtDSF0oQzQoW0NIM10pW0NIM10pQyg9TylbQ0BAXTY3W0NAQEhdKFtDSDJdW0NIMl1bQ0BIXTM3KUMoW0NIM10pKFtDSDNdKVtDQEhdKFtDSDNdKUMoPU8pW0NIMl02

>  <s_epik_cmdline>  (66) 
J2VwaWtfcHl0aG9uJywgJy1waHQnLCAnMi4wJywgJy1waCcsICc3LjAnLCAnLXRuJywgJzgnLCAnLW1hJywgJzIwMCcsICctaW1hZScsICc8aW5maWxlLm1hZT4nLCAnLW9tYWUnLCAnPG91dGZpbGUubWFlPic=

>  <r_lp_tautomer_probability>  (66) 
1

>  <r_epik_Ionization_Penalty>  (66) 
2.24294e-06

>  <r_epik_Ionization_Penalty_Charging>  (66) 
0

>  <r_epik_Ionization_Penalty_Neutral>  (66) 
2.24294e-06

>  <r_epik_State_Penalty>  (66) 
-0

>  <r_epik_Charging_Adjusted_Penalty>  (66) 
0

>  <i_epik_Tot_Q>  (66) 
0

>  <i_epik_Tot_abs_Q>  (66) 
0

>  <s_lp_Force_Field>  (66) 
OPLS3e

>  <r_lp_Energy>  (66) 
606.306

>  <b_lp_Chiralities_Consistent>  (66) 
0

>  <s_lp_Variant>  (66) 
17:0-2

>  <s_i_glide_gridfile>  (66) 
pfpi4k_grid

>  <i_i_glide_lignum>  (66) 
27

>  <i_i_glide_rotatable_bonds>  (66) 
2

>  <r_i_docking_score>  (66) 
-2.36909

>  <r_i_glide_ligand_efficiency>  (66) 
-0.0550952

>  <r_i_glide_ligand_efficiency_sa>  (66) 
-0.19302

>  <r_i_glide_ligand_efficiency_ln>  (66) 
-0.497583

>  <r_i_glide_gscore>  (66) 
-2.36909

>  <r_i_glide_lipo>  (66) 
-0.192658

>  <r_i_glide_hbond>  (66) 
-0.16

>  <r_i_glide_metal>  (66) 
-0

>  <r_i_glide_rewards>  (66) 
-2.96679e-05

>  <r_i_glide_evdw>  (66) 
-23.4785

>  <r_i_glide_ecoul>  (66) 
-5.44961

>  <r_i_glide_erotb>  (66) 
0

>  <r_i_glide_esite>  (66) 
-0.0250401

>  <r_i_glide_emodel>  (66) 
-33.1703

>  <r_i_glide_energy>  (66) 
-28.9281

>  <r_i_glide_einternal>  (66) 
1.51098

>  <r_i_glide_intrahb_reward>  (66) 
-0

>  <i_i_glide_confnum>  (66) 
1

>  <i_i_glide_posenum>  (66) 
1

>  <r_i_glide_eff_state_penalty>  (66) 
0

>  <ligand_id>  (66) 
17

>  <original_smiles>  (66) 
CC1=CC2C(O)C3C=C4C(=O)C(C)(C)C45C(=O)C(C)C(C(C(=O)C46CC(=O)C(C)C(C)(C)C4CCC65)C3(C)C)C2(O)C1=O

>  <smiles>  (66) 
[H]OC1([H])C2([H])C([H])=C(C([H])([H])[H])C(=O)C2(O[H])C2([H])C([H])(C([H])([H])[H])C(=O)C34C(=C([H])C1([H])C(C([H])([H])[H])(C([H])([H])[H])C2([H])C(=O)C12C([H])([H])C(=O)C([H])(C([H])([H])[H])C(C([H])([H])[H])(C([H])([H])[H])C1([H])C([H])([H])C([H])([H])C32[H])C(=O)C4(C([H])([H])[H])C([H])([H])[H]

$$$$
17:1:1
     RDKit          3D

 89 95  0  0  1  0  0  0  0  0999 V2000
   -1.8229   -9.0768    2.6196 C   0  0  0  0  0  0  0  0  0  0  0  0
   -0.4435   -8.5808    2.9720 C   0  0  0  0  0  0  0  0  0  0  0  0
    0.4575   -9.0367    3.8468 C   0  0  0  0  0  0  0  0  0  0  0  0
    1.7433   -8.2121    3.9136 C   0  0  2  0  0  0  0  0  0  0  0  0
    2.0223   -7.5836    5.3452 C   0  0  1  0  0  0  0  0  0  0  0  0
    3.2485   -8.0549    5.8547 O   0  0  0  0  0  0  0  0  0  0  0  0
    1.9397   -6.0262    5.6514 C   0  0  1  0  0  0  0  0  0  0  0  0
    3.1910   -5.0769    5.3417 C   0  0  0  0  0  0  0  0  0  0  0  0
    3.7219   -4.1419    4.2837 C   0  0  0  0  0  0  0  0  0  0  0  0
    3.5406   -3.3528    2.8685 C   0  0  0  0  0  0  0  0  0  0  0  0
    2.6377   -3.1649    2.0861 O   0  0  0  0  0  0  0  0  0  0  0  0
    5.0034   -2.9478    2.8780 C   0  0  0  0  0  0  0  0  0  0  0  0
    5.8165   -3.5108    1.6833 C   0  0  0  0  0  0  0  0  0  0  0  0
    5.1108   -1.4236    2.6857 C   0  0  0  0  0  0  0  0  0  0  0  0
    5.0009   -3.6657    4.3006 C   0  0  2  0  0  0  0  0  0  0  0  0
    5.2200   -5.2775    3.8992 C   0  0  0  0  0  0  0  0  0  0  0  0
    6.2477   -5.8713    4.1763 O   0  0  0  0  0  0  0  0  0  0  0  0
    3.9928   -6.1452    3.0026 C   0  0  1  0  0  0  0  0  0  0  0  0
    4.6152   -7.5919    2.9565 C   0  0  0  0  0  0  0  0  0  0  0  0
    2.1776   -5.8241    3.0030 C   0  0  2  0  0  0  0  0  0  0  0  0
    1.1019   -4.6935    4.0270 C   0  0  2  0  0  0  0  0  0  0  0  0
    1.2671   -3.0601    4.5575 C   0  0  0  0  0  0  0  0  0  0  0  0
    0.3808   -2.3335    4.1256 O   0  0  0  0  0  0  0  0  0  0  0  0
    2.5270   -2.3137    5.5020 C   0  0  2  0  0  0  0  0  0  0  0  0
    2.1145   -2.4148    7.0088 C   0  0  0  0  0  0  0  0  0  0  0  0
    2.4537   -1.2547    7.9495 C   0  0  0  0  0  0  0  0  0  0  0  0
    3.1687   -1.4209    8.9288 O   0  0  0  0  0  0  0  0  0  0  0  0
    1.8186    0.0981    7.6114 C   0  0  1  0  0  0  0  0  0  0  0  0
    2.5031    1.2727    8.3536 C   0  0  0  0  0  0  0  0  0  0  0  0
    1.6057    0.2330    6.0624 C   0  0  0  0  0  0  0  0  0  0  0  0
    0.1010   -0.0442    5.7991 C   0  0  0  0  0  0  0  0  0  0  0  0
    1.7829    1.6934    5.5562 C   0  0  0  0  0  0  0  0  0  0  0  0
    2.5804   -0.7318    5.2319 C   0  0  1  0  0  0  0  0  0  0  0  0
    4.0565   -0.2610    5.4600 C   0  0  0  0  0  0  0  0  0  0  0  0
    4.9650   -1.4485    5.7928 C   0  0  0  0  0  0  0  0  0  0  0  0
    4.2233   -2.7593    5.5050 C   0  0  2  0  0  0  0  0  0  0  0  0
    0.5800   -5.4089    5.3128 C   0  0  0  0  0  0  0  0  0  0  0  0
   -0.7052   -6.2635    5.0727 C   0  0  0  0  0  0  0  0  0  0  0  0
    0.0571   -4.6424    6.5828 C   0  0  0  0  0  0  0  0  0  0  0  0
    1.5602   -7.2336    2.7130 C   0  0  1  0  0  0  0  0  0  0  0  0
    2.1468   -7.7317    1.5280 O   0  0  0  0  0  0  0  0  0  0  0  0
    0.0935   -7.3904    2.3407 C   0  0  0  0  0  0  0  0  0  0  0  0
   -0.4972   -6.6437    1.5831 O   0  0  0  0  0  0  0  0  0  0  0  0
   -2.5622   -8.2856    2.7201 H   0  0  0  0  0  0  0  0  0  0  0  0
   -2.1253   -9.8742    3.2858 H   0  0  0  0  0  0  0  0  0  0  0  0
   -1.8440   -9.4543    1.6012 H   0  0  0  0  0  0  0  0  0  0  0  0
    0.3077   -9.9135    4.4664 H   0  0  0  0  0  0  0  0  0  0  0  0
    2.5169   -8.9499    3.6962 H   0  0  0  0  0  0  0  0  0  0  0  0
    1.3104   -8.0572    6.0263 H   0  0  0  0  0  0  0  0  0  0  0  0
    3.2247   -9.0041    5.8621 H   0  0  0  0  0  0  0  0  0  0  0  0
    1.9903   -6.0600    6.7394 H   0  0  0  0  0  0  0  0  0  0  0  0
    3.9068   -5.2777    6.1404 H   0  0  0  0  0  0  0  0  0  0  0  0
    6.8802   -3.4631    1.9114 H   0  0  0  0  0  0  0  0  0  0  0  0
    5.6795   -2.9522    0.7586 H   0  0  0  0  0  0  0  0  0  0  0  0
    5.6071   -4.5372    1.4072 H   0  0  0  0  0  0  0  0  0  0  0  0
    5.2749   -1.1123    1.6525 H   0  0  0  0  0  0  0  0  0  0  0  0
    5.9613   -1.0163    3.2316 H   0  0  0  0  0  0  0  0  0  0  0  0
    4.2037   -0.8975    2.9620 H   0  0  0  0  0  0  0  0  0  0  0  0
    4.1908   -5.8550    1.9767 H   0  0  0  0  0  0  0  0  0  0  0  0
    5.6048   -7.5471    2.5028 H   0  0  0  0  0  0  0  0  0  0  0  0
    4.1523   -8.3574    2.3433 H   0  0  0  0  0  0  0  0  0  0  0  0
    4.7661   -8.0318    3.9399 H   0  0  0  0  0  0  0  0  0  0  0  0
    2.0215   -5.4079    2.0108 H   0  0  0  0  0  0  0  0  0  0  0  0
    0.2292   -4.5807    3.3879 H   0  0  0  0  0  0  0  0  0  0  0  0
    1.0355   -2.4385    7.0792 H   0  0  0  0  0  0  0  0  0  0  0  0
    2.5180   -3.3202    7.4581 H   0  0  0  0  0  0  0  0  0  0  0  0
    0.8288    0.0504    8.0607 H   0  0  0  0  0  0  0  0  0  0  0  0
    2.4371    1.1254    9.4286 H   0  0  0  0  0  0  0  0  0  0  0  0
    2.0167    2.2247    8.1539 H   0  0  0  0  0  0  0  0  0  0  0  0
    3.5578    1.3808    8.1173 H   0  0  0  0  0  0  0  0  0  0  0  0
   -0.1621    0.0434    4.7432 H   0  0  0  0  0  0  0  0  0  0  0  0
   -0.5251    0.6720    6.3357 H   0  0  0  0  0  0  0  0  0  0  0  0
   -0.2145   -1.0244    6.1518 H   0  0  0  0  0  0  0  0  0  0  0  0
    1.6094    1.7708    4.4807 H   0  0  0  0  0  0  0  0  0  0  0  0
    2.7752    2.1022    5.7484 H   0  0  0  0  0  0  0  0  0  0  0  0
    1.0705    2.3697    6.0338 H   0  0  0  0  0  0  0  0  0  0  0  0
    2.3623   -0.5762    4.1739 H   0  0  0  0  0  0  0  0  0  0  0  0
    4.4331    0.3420    4.6342 H   0  0  0  0  0  0  0  0  0  0  0  0
    4.1507    0.4244    6.2975 H   0  0  0  0  0  0  0  0  0  0  0  0
    5.9409   -1.3804    5.3237 H   0  0  0  0  0  0  0  0  0  0  0  0
    5.1869   -1.4037    6.8609 H   0  0  0  0  0  0  0  0  0  0  0  0
    4.4291   -3.2622    6.4504 H   0  0  0  0  0  0  0  0  0  0  0  0
   -1.5798   -5.9604    5.6481 H   0  0  0  0  0  0  0  0  0  0  0  0
   -0.6057   -7.3120    5.3255 H   0  0  0  0  0  0  0  0  0  0  0  0
   -1.1083   -6.1235    4.0836 H   0  0  0  0  0  0  0  0  0  0  0  0
   -0.5627   -3.7748    6.3535 H   0  0  0  0  0  0  0  0  0  0  0  0
    0.8233   -4.4075    7.3027 H   0  0  0  0  0  0  0  0  0  0  0  0
   -0.5535   -5.2696    7.2354 H   0  0  0  0  0  0  0  0  0  0  0  0
    1.8416   -8.6202    1.3857 H   0  0  0  0  0  0  0  0  0  0  0  0
  1  2  1  0
  1 44  1  0
  1 45  1  0
  1 46  1  0
  2 42  1  0
  2  3  2  0
  3  4  1  0
  3 47  1  0
  4 40  1  0
  4  5  1  0
  4 48  1  6
  5  6  1  0
  5  7  1  0
  5 49  1  1
  6 50  1  0
  7 37  1  0
  7  8  1  0
  7 51  1  1
  8  9  2  3
  8 52  1  0
  9 15  1  0
  9 10  1  0
 10 11  2  0
 10 12  1  0
 12 13  1  0
 12 14  1  0
 15 12  1  6
 13 53  1  0
 13 54  1  0
 13 55  1  0
 14 56  1  0
 14 57  1  0
 14 58  1  0
 15 36  1  0
 15 16  1  0
 16 17  2  0
 16 18  1  0
 18 19  1  0
 18 20  1  0
 18 59  1  6
 19 60  1  0
 19 61  1  0
 19 62  1  0
 20 21  1  0
 20 40  1  0
 20 63  1  6
 21 22  1  0
 21 37  1  0
 21 64  1  6
 22 23  2  0
 22 24  1  0
 24 33  1  0
 24 36  1  0
 24 25  1  1
 25 26  1  0
 25 65  1  0
 25 66  1  0
 26 27  2  0
 26 28  1  0
 28 29  1  0
 28 30  1  0
 28 67  1  1
 29 68  1  0
 29 69  1  0
 29 70  1  0
 30 31  1  0
 30 32  1  0
 30 33  1  0
 31 71  1  0
 31 72  1  0
 31 73  1  0
 32 74  1  0
 32 75  1  0
 32 76  1  0
 33 34  1  0
 33 77  1  6
 34 35  1  0
 34 78  1  0
 34 79  1  0
 35 36  1  0
 35 80  1  0
 35 81  1  0
 36 82  1  1
 37 38  1  0
 37 39  1  0
 38 83  1  0
 38 84  1  0
 38 85  1  0
 39 86  1  0
 39 87  1  0
 39 88  1  0
 40 41  1  6
 40 42  1  0
 41 89  1  0
 42 43  2  0
M  END
>  <i_m_ct_stereo_status>  (67) 
1

>  <s_m_source_file>  (67) 
/var/tmp/pbs.5076255.sched01/tmpj20d55gn/0_c3see42.sdf

>  <i_m_source_file_index>  (67) 
27

>  <i_lp_mmshare_version>  (67) 
48012

>  <i_f3d_flags>  (67) 
2

>  <s_epik_input>  (67) 
W0NIM11DMShbQ0gzXSlDKD1PKVxDKFtDQEBdMTIzKT1bQ0hdXFtDQEBIXTRbQ0BIXShbT0hdKVtDQEBIXTVbQ0BAXShbT0hdKShDKD1PKUMoW0NIM10pPVtDSF01KVtDQEhdKFtDQEBIXShDMj1PKVtDSDNdKVtDSF0oQzQoW0NIM10pW0NIM10pQyg9TylbQ0BAXTY3W0NAQEhdKFtDSDJdW0NIMl1bQ0BIXTM3KUMoW0NIM10pKFtDSDNdKVtDQEhdKFtDSDNdKUMoPU8pW0NIMl02

>  <s_epik_cmdline>  (67) 
J2VwaWtfcHl0aG9uJywgJy1waHQnLCAnMi4wJywgJy1waCcsICc3LjAnLCAnLXRuJywgJzgnLCAnLW1hJywgJzIwMCcsICctaW1hZScsICc8aW5maWxlLm1hZT4nLCAnLW9tYWUnLCAnPG91dGZpbGUubWFlPic=

>  <r_lp_tautomer_probability>  (67) 
1

>  <r_epik_Ionization_Penalty>  (67) 
2.24294e-06

>  <r_epik_Ionization_Penalty_Charging>  (67) 
0

>  <r_epik_Ionization_Penalty_Neutral>  (67) 
2.24294e-06

>  <r_epik_State_Penalty>  (67) 
-0

>  <r_epik_Charging_Adjusted_Penalty>  (67) 
0

>  <i_epik_Tot_Q>  (67) 
0

>  <i_epik_Tot_abs_Q>  (67) 
0

>  <s_lp_Force_Field>  (67) 
OPLS3e

>  <r_lp_Energy>  (67) 
606.306

>  <b_lp_Chiralities_Consistent>  (67) 
0

>  <s_lp_Variant>  (67) 
17:0-2

>  <s_i_glide_gridfile>  (67) 
pfpi4k_grid

>  <i_i_glide_lignum>  (67) 
27

>  <i_i_glide_rotatable_bonds>  (67) 
2

>  <r_i_docking_score>  (67) 
-2.28144

>  <r_i_glide_ligand_efficiency>  (67) 
-0.0530567

>  <r_i_glide_ligand_efficiency_sa>  (67) 
-0.185879

>  <r_i_glide_ligand_efficiency_ln>  (67) 
-0.479173

>  <r_i_glide_gscore>  (67) 
-2.28144

>  <r_i_glide_lipo>  (67) 
-0.389375

>  <r_i_glide_hbond>  (67) 
-0.24059

>  <r_i_glide_metal>  (67) 
-0

>  <r_i_glide_rewards>  (67) 
-0.0189314

>  <r_i_glide_evdw>  (67) 
-25.7338

>  <r_i_glide_ecoul>  (67) 
-1.88821

>  <r_i_glide_erotb>  (67) 
0

>  <r_i_glide_esite>  (67) 
-0.0626191

>  <r_i_glide_emodel>  (67) 
-31.3507

>  <r_i_glide_energy>  (67) 
-27.6221

>  <r_i_glide_einternal>  (67) 
2.05919

>  <r_i_glide_intrahb_reward>  (67) 
-0

>  <i_i_glide_confnum>  (67) 
1

>  <i_i_glide_posenum>  (67) 
23

>  <r_i_glide_eff_state_penalty>  (67) 
0

>  <ligand_id>  (67) 
17

>  <original_smiles>  (67) 
CC1=CC2C(O)C3C=C4C(=O)C(C)(C)C45C(=O)C(C)C(C(C(=O)C46CC(=O)C(C)C(C)(C)C4CCC65)C3(C)C)C2(O)C1=O

>  <smiles>  (67) 
[H]OC1([H])C2([H])C([H])=C(C([H])([H])[H])C(=O)C2(O[H])C2([H])C([H])(C([H])([H])[H])C(=O)C34C(=C([H])C1([H])C(C([H])([H])[H])(C([H])([H])[H])C2([H])C(=O)C12C([H])([H])C(=O)C([H])(C([H])([H])[H])C(C([H])([H])[H])(C([H])([H])[H])C1([H])C([H])([H])C([H])([H])C32[H])C(=O)C4(C([H])([H])[H])C([H])([H])[H]

$$$$
17:1:2
     RDKit          3D

 89 95  0  0  1  0  0  0  0  0999 V2000
   -1.7655   -9.0897    2.6237 C   0  0  0  0  0  0  0  0  0  0  0  0
   -0.3876   -8.5670    2.9609 C   0  0  0  0  0  0  0  0  0  0  0  0
    0.5237   -9.0187    3.8329 C   0  0  0  0  0  0  0  0  0  0  0  0
    1.7967   -8.1824    3.8966 C   0  0  2  0  0  0  0  0  0  0  0  0
    2.0876   -7.5498    5.3235 C   0  0  1  0  0  0  0  0  0  0  0  0
    3.3257   -8.0119    5.8198 O   0  0  0  0  0  0  0  0  0  0  0  0
    1.9863   -5.9992    5.6375 C   0  0  1  0  0  0  0  0  0  0  0  0
    3.2285   -5.0346    5.3331 C   0  0  0  0  0  0  0  0  0  0  0  0
    3.7321   -4.0951    4.2675 C   0  0  0  0  0  0  0  0  0  0  0  0
    3.5357   -3.2993    2.8539 C   0  0  0  0  0  0  0  0  0  0  0  0
    2.6189   -3.1052    2.0542 O   0  0  0  0  0  0  0  0  0  0  0  0
    4.9774   -2.8724    2.8387 C   0  0  0  0  0  0  0  0  0  0  0  0
    5.8084   -3.4242    1.6476 C   0  0  0  0  0  0  0  0  0  0  0  0
    5.0858   -1.3454    2.6622 C   0  0  0  0  0  0  0  0  0  0  0  0
    5.0165   -3.6049    4.2597 C   0  0  2  0  0  0  0  0  0  0  0  0
    5.2427   -5.2157    3.8493 C   0  0  0  0  0  0  0  0  0  0  0  0
    6.2940   -5.7904    4.1327 O   0  0  0  0  0  0  0  0  0  0  0  0
    4.0241   -6.0909    2.9661 C   0  0  1  0  0  0  0  0  0  0  0  0
    4.6573   -7.5312    2.9083 C   0  0  0  0  0  0  0  0  0  0  0  0
    2.2061   -5.7879    2.9833 C   0  0  2  0  0  0  0  0  0  0  0  0
    1.1232   -4.6663    4.0173 C   0  0  2  0  0  0  0  0  0  0  0  0
    1.2758   -3.0336    4.5563 C   0  0  0  0  0  0  0  0  0  0  0  0
    0.3744   -2.3189    4.1304 O   0  0  0  0  0  0  0  0  0  0  0  0
    2.5302   -2.2704    5.4973 C   0  0  2  0  0  0  0  0  0  0  0  0
    2.1297   -2.3869    7.0074 C   0  0  0  0  0  0  0  0  0  0  0  0
    2.4592   -1.2289    7.9484 C   0  0  0  0  0  0  0  0  0  0  0  0
    3.1960   -1.3890    8.9207 O   0  0  0  0  0  0  0  0  0  0  0  0
    1.8107    0.1196    7.6106 C   0  0  1  0  0  0  0  0  0  0  0  0
    2.4890    1.3003    8.3548 C   0  0  0  0  0  0  0  0  0  0  0  0
    1.5802    0.2569    6.0565 C   0  0  0  0  0  0  0  0  0  0  0  0
    0.0780   -0.0393    5.8161 C   0  0  0  0  0  0  0  0  0  0  0  0
    1.7408    1.7227    5.5636 C   0  0  0  0  0  0  0  0  0  0  0  0
    2.5660   -0.6912    5.2259 C   0  0  1  0  0  0  0  0  0  0  0  0
    4.0386   -0.2080    5.4445 C   0  0  0  0  0  0  0  0  0  0  0  0
    4.9634   -1.3833    5.7699 C   0  0  0  0  0  0  0  0  0  0  0  0
    4.2358   -2.6998    5.4781 C   0  0  2  0  0  0  0  0  0  0  0  0
    0.6182   -5.3934    5.3093 C   0  0  0  0  0  0  0  0  0  0  0  0
   -0.6587   -6.2628    5.0744 C   0  0  0  0  0  0  0  0  0  0  0  0
    0.0971   -4.6382    6.5883 C   0  0  0  0  0  0  0  0  0  0  0  0
    1.6002   -7.2014    2.7016 C   0  0  1  0  0  0  0  0  0  0  0  0
    2.1750   -7.6923    1.5068 O   0  0  0  0  0  0  0  0  0  0  0  0
    0.1338   -7.3637    2.3301 C   0  0  0  0  0  0  0  0  0  0  0  0
   -0.4795   -6.5939    1.5921 O   0  0  0  0  0  0  0  0  0  0  0  0
   -2.5121   -8.3043    2.7349 H   0  0  0  0  0  0  0  0  0  0  0  0
   -2.0429   -9.8986    3.2754 H   0  0  0  0  0  0  0  0  0  0  0  0
   -1.7848   -9.4516    1.5956 H   0  0  0  0  0  0  0  0  0  0  0  0
    0.3894   -9.8969    4.4547 H   0  0  0  0  0  0  0  0  0  0  0  0
    2.5770   -8.9080    3.6677 H   0  0  0  0  0  0  0  0  0  0  0  0
    1.3870   -8.0352    6.0109 H   0  0  0  0  0  0  0  0  0  0  0  0
    3.3066   -8.9599    5.8361 H   0  0  0  0  0  0  0  0  0  0  0  0
    2.0485   -6.0328    6.7233 H   0  0  0  0  0  0  0  0  0  0  0  0
    3.9554   -5.2288    6.1135 H   0  0  0  0  0  0  0  0  0  0  0  0
    6.8748   -3.3648    1.8658 H   0  0  0  0  0  0  0  0  0  0  0  0
    5.6559   -2.8663    0.7244 H   0  0  0  0  0  0  0  0  0  0  0  0
    5.6079   -4.4521    1.3658 H   0  0  0  0  0  0  0  0  0  0  0  0
    5.2341   -1.0333    1.6257 H   0  0  0  0  0  0  0  0  0  0  0  0
    5.9365   -0.9319    3.2019 H   0  0  0  0  0  0  0  0  0  0  0  0
    4.1740   -0.8327    2.9419 H   0  0  0  0  0  0  0  0  0  0  0  0
    4.2099   -5.7824    1.9423 H   0  0  0  0  0  0  0  0  0  0  0  0
    5.6443   -7.4664    2.4509 H   0  0  0  0  0  0  0  0  0  0  0  0
    4.2027   -8.3075    2.3097 H   0  0  0  0  0  0  0  0  0  0  0  0
    4.8250   -7.9583    3.8930 H   0  0  0  0  0  0  0  0  0  0  0  0
    2.0312   -5.3625    1.9954 H   0  0  0  0  0  0  0  0  0  0  0  0
    0.2403   -4.5639    3.3865 H   0  0  0  0  0  0  0  0  0  0  0  0
    1.0517   -2.4247    7.0819 H   0  0  0  0  0  0  0  0  0  0  0  0
    2.5501   -3.2903    7.4461 H   0  0  0  0  0  0  0  0  0  0  0  0
    0.8250    0.0602    8.0736 H   0  0  0  0  0  0  0  0  0  0  0  0
    2.4340    1.1488    9.4297 H   0  0  0  0  0  0  0  0  0  0  0  0
    1.9902    2.2479    8.1636 H   0  0  0  0  0  0  0  0  0  0  0  0
    3.5402    1.4202    8.1088 H   0  0  0  0  0  0  0  0  0  0  0  0
   -0.1913    0.0504    4.7645 H   0  0  0  0  0  0  0  0  0  0  0  0
   -0.5493    0.6713    6.3574 H   0  0  0  0  0  0  0  0  0  0  0  0
   -0.2199   -1.0238    6.1689 H   0  0  0  0  0  0  0  0  0  0  0  0
    1.5575    1.8001    4.4919 H   0  0  0  0  0  0  0  0  0  0  0  0
    2.7308    2.1399    5.7515 H   0  0  0  0  0  0  0  0  0  0  0  0
    1.0242    2.3866    6.0498 H   0  0  0  0  0  0  0  0  0  0  0  0
    2.3357   -0.5389    4.1715 H   0  0  0  0  0  0  0  0  0  0  0  0
    4.3993    0.4009    4.6162 H   0  0  0  0  0  0  0  0  0  0  0  0
    4.1306    0.4766    6.2817 H   0  0  0  0  0  0  0  0  0  0  0  0
    5.9318   -1.3038    5.2900 H   0  0  0  0  0  0  0  0  0  0  0  0
    5.1924   -1.3392    6.8353 H   0  0  0  0  0  0  0  0  0  0  0  0
    4.4522   -3.2061    6.4241 H   0  0  0  0  0  0  0  0  0  0  0  0
   -1.5340   -5.9696    5.6545 H   0  0  0  0  0  0  0  0  0  0  0  0
   -0.5483   -7.3101    5.3258 H   0  0  0  0  0  0  0  0  0  0  0  0
   -1.0717   -6.1215    4.0892 H   0  0  0  0  0  0  0  0  0  0  0  0
   -0.5339   -3.7785    6.3642 H   0  0  0  0  0  0  0  0  0  0  0  0
    0.8672   -4.3951    7.3005 H   0  0  0  0  0  0  0  0  0  0  0  0
   -0.5014   -5.2752    7.2417 H   0  0  0  0  0  0  0  0  0  0  0  0
    3.1131   -7.7322    1.6190 H   0  0  0  0  0  0  0  0  0  0  0  0
  1  2  1  0
  1 44  1  0
  1 45  1  0
  1 46  1  0
  2 42  1  0
  2  3  2  0
  3  4  1  0
  3 47  1  0
  4 40  1  0
  4  5  1  0
  4 48  1  6
  5  6  1  0
  5  7  1  0
  5 49  1  1
  6 50  1  0
  7 37  1  0
  7  8  1  0
  7 51  1  1
  8  9  2  3
  8 52  1  0
  9 15  1  0
  9 10  1  0
 10 11  2  0
 10 12  1  0
 12 13  1  0
 12 14  1  0
 15 12  1  6
 13 53  1  0
 13 54  1  0
 13 55  1  0
 14 56  1  0
 14 57  1  0
 14 58  1  0
 15 36  1  0
 15 16  1  0
 16 17  2  0
 16 18  1  0
 18 19  1  0
 18 20  1  0
 18 59  1  6
 19 60  1  0
 19 61  1  0
 19 62  1  0
 20 21  1  0
 20 40  1  0
 20 63  1  6
 21 22  1  0
 21 37  1  0
 21 64  1  6
 22 23  2  0
 22 24  1  0
 24 33  1  0
 24 36  1  0
 24 25  1  1
 25 26  1  0
 25 65  1  0
 25 66  1  0
 26 27  2  0
 26 28  1  0
 28 29  1  0
 28 30  1  0
 28 67  1  1
 29 68  1  0
 29 69  1  0
 29 70  1  0
 30 31  1  0
 30 32  1  0
 30 33  1  0
 31 71  1  0
 31 72  1  0
 31 73  1  0
 32 74  1  0
 32 75  1  0
 32 76  1  0
 33 34  1  0
 33 77  1  6
 34 35  1  0
 34 78  1  0
 34 79  1  0
 35 36  1  0
 35 80  1  0
 35 81  1  0
 36 82  1  1
 37 38  1  0
 37 39  1  0
 38 83  1  0
 38 84  1  0
 38 85  1  0
 39 86  1  0
 39 87  1  0
 39 88  1  0
 40 41  1  6
 40 42  1  0
 41 89  1  0
 42 43  2  0
M  END
>  <i_m_ct_stereo_status>  (68) 
1

>  <s_m_source_file>  (68) 
/var/tmp/pbs.5076255.sched01/tmpj20d55gn/0_c3see42.sdf

>  <i_m_source_file_index>  (68) 
27

>  <i_lp_mmshare_version>  (68) 
48012

>  <i_f3d_flags>  (68) 
2

>  <s_epik_input>  (68) 
W0NIM11DMShbQ0gzXSlDKD1PKVxDKFtDQEBdMTIzKT1bQ0hdXFtDQEBIXTRbQ0BIXShbT0hdKVtDQEBIXTVbQ0BAXShbT0hdKShDKD1PKUMoW0NIM10pPVtDSF01KVtDQEhdKFtDQEBIXShDMj1PKVtDSDNdKVtDSF0oQzQoW0NIM10pW0NIM10pQyg9TylbQ0BAXTY3W0NAQEhdKFtDSDJdW0NIMl1bQ0BIXTM3KUMoW0NIM10pKFtDSDNdKVtDQEhdKFtDSDNdKUMoPU8pW0NIMl02

>  <s_epik_cmdline>  (68) 
J2VwaWtfcHl0aG9uJywgJy1waHQnLCAnMi4wJywgJy1waCcsICc3LjAnLCAnLXRuJywgJzgnLCAnLW1hJywgJzIwMCcsICctaW1hZScsICc8aW5maWxlLm1hZT4nLCAnLW9tYWUnLCAnPG91dGZpbGUubWFlPic=

>  <r_lp_tautomer_probability>  (68) 
1

>  <r_epik_Ionization_Penalty>  (68) 
2.24294e-06

>  <r_epik_Ionization_Penalty_Charging>  (68) 
0

>  <r_epik_Ionization_Penalty_Neutral>  (68) 
2.24294e-06

>  <r_epik_State_Penalty>  (68) 
-0

>  <r_epik_Charging_Adjusted_Penalty>  (68) 
0

>  <i_epik_Tot_Q>  (68) 
0

>  <i_epik_Tot_abs_Q>  (68) 
0

>  <s_lp_Force_Field>  (68) 
OPLS3e

>  <r_lp_Energy>  (68) 
606.306

>  <b_lp_Chiralities_Consistent>  (68) 
0

>  <s_lp_Variant>  (68) 
17:0-2

>  <s_i_glide_gridfile>  (68) 
pfpi4k_grid

>  <i_i_glide_lignum>  (68) 
27

>  <i_i_glide_rotatable_bonds>  (68) 
2

>  <r_i_docking_score>  (68) 
-2.17237

>  <r_i_glide_ligand_efficiency>  (68) 
-0.0505202

>  <r_i_glide_ligand_efficiency_sa>  (68) 
-0.176992

>  <r_i_glide_ligand_efficiency_ln>  (68) 
-0.456265

>  <r_i_glide_gscore>  (68) 
-2.17237

>  <r_i_glide_lipo>  (68) 
-0.388563

>  <r_i_glide_hbond>  (68) 
-0.254875

>  <r_i_glide_metal>  (68) 
-0

>  <r_i_glide_rewards>  (68) 
-0.0187881

>  <r_i_glide_evdw>  (68) 
-25.2084

>  <r_i_glide_ecoul>  (68) 
-1.25019

>  <r_i_glide_erotb>  (68) 
0

>  <r_i_glide_esite>  (68) 
-0.0621938

>  <r_i_glide_emodel>  (68) 
-30.8886

>  <r_i_glide_energy>  (68) 
-26.4586

>  <r_i_glide_einternal>  (68) 
0.377037

>  <r_i_glide_intrahb_reward>  (68) 
-0

>  <i_i_glide_confnum>  (68) 
2

>  <i_i_glide_posenum>  (68) 
36

>  <r_i_glide_eff_state_penalty>  (68) 
0

>  <ligand_id>  (68) 
17

>  <original_smiles>  (68) 
CC1=CC2C(O)C3C=C4C(=O)C(C)(C)C45C(=O)C(C)C(C(C(=O)C46CC(=O)C(C)C(C)(C)C4CCC65)C3(C)C)C2(O)C1=O

>  <smiles>  (68) 
[H]OC1([H])C2([H])C([H])=C(C([H])([H])[H])C(=O)C2(O[H])C2([H])C([H])(C([H])([H])[H])C(=O)C34C(=C([H])C1([H])C(C([H])([H])[H])(C([H])([H])[H])C2([H])C(=O)C12C([H])([H])C(=O)C([H])(C([H])([H])[H])C(C([H])([H])[H])(C([H])([H])[H])C1([H])C([H])([H])C([H])([H])C32[H])C(=O)C4(C([H])([H])[H])C([H])([H])[H]

$$$$
18:0:0
     RDKit          3D

 24 24  0  0  1  0  0  0  0  0999 V2000
   -1.0868   -7.5308    4.0862 C   0  0  0  0  0  0  0  0  0  0  0  0
   -0.2733   -7.4802    2.8030 C   0  0  0  0  0  0  0  0  0  0  0  0
   -0.6382   -6.7602    1.8715 O   0  0  0  0  0  0  0  0  0  0  0  0
    0.8275   -8.2667    2.8479 O   0  0  0  0  0  0  0  0  0  0  0  0
    1.5927   -8.3049    1.6778 C   0  0  0  0  0  0  0  0  0  0  0  0
    2.6486   -7.3840    1.6844 O   0  0  0  0  0  0  0  0  0  0  0  0
    2.4432   -6.2588    0.9428 C   0  0  0  0  0  0  0  0  0  0  0  0
    1.3891   -5.9554    0.3721 O   0  0  0  0  0  0  0  0  0  0  0  0
    3.6610   -5.4474    0.8299 C   0  0  0  0  0  0  0  0  0  0  0  0
    4.9293   -5.6719    1.3245 C   0  0  0  0  0  0  0  0  0  0  0  0
    5.7848   -4.6551    0.9190 N   0  0  0  0  0  0  0  0  0  0  0  0
    4.9980   -3.8473    0.2202 C   0  0  0  0  0  0  0  0  0  0  0  0
    3.7170   -4.2466    0.1282 N   0  0  0  0  0  0  0  0  0  0  0  0
    2.6472   -3.5461   -0.5824 C   0  0  0  0  0  0  0  0  0  0  0  0
   -0.6883   -8.2453    4.8043 H   0  0  0  0  0  0  0  0  0  0  0  0
   -2.1110   -7.8121    3.8487 H   0  0  0  0  0  0  0  0  0  0  0  0
   -1.1031   -6.5464    4.5473 H   0  0  0  0  0  0  0  0  0  0  0  0
    2.0611   -9.2856    1.6691 H   0  0  0  0  0  0  0  0  0  0  0  0
    0.9985   -8.2344    0.7616 H   0  0  0  0  0  0  0  0  0  0  0  0
    5.2858   -6.5116    1.9123 H   0  0  0  0  0  0  0  0  0  0  0  0
    5.3393   -2.9415   -0.2621 H   0  0  0  0  0  0  0  0  0  0  0  0
    3.0101   -2.6336   -1.0533 H   0  0  0  0  0  0  0  0  0  0  0  0
    1.8459   -3.2704    0.1052 H   0  0  0  0  0  0  0  0  0  0  0  0
    2.2259   -4.1831   -1.3630 H   0  0  0  0  0  0  0  0  0  0  0  0
  1  2  1  0
  1 15  1  0
  1 16  1  0
  1 17  1  0
  2  3  2  0
  2  4  1  0
  4  5  1  0
  5  6  1  0
  5 18  1  0
  5 19  1  0
  6  7  1  0
  7  8  2  0
  7  9  1  0
  9 13  1  0
  9 10  2  0
 10 11  1  0
 10 20  1  0
 11 12  2  0
 12 13  1  0
 12 21  1  0
 13 14  1  0
 14 22  1  0
 14 23  1  0
 14 24  1  0
M  END
>  <i_m_ct_stereo_status>  (69) 
1

>  <s_m_source_file>  (69) 
/var/tmp/pbs.5076255.sched01/tmpj20d55gn/0_c3see42.sdf

>  <i_m_source_file_index>  (69) 
28

>  <i_lp_mmshare_version>  (69) 
48012

>  <i_f3d_flags>  (69) 
0

>  <s_epik_input>  (69) 
W0NIM11DKD1PKU9bQ0gyXU9DKD1PKWMxW2NIXW5bY0hdbjFbQ0gzXQ==

>  <s_epik_cmdline>  (69) 
J2VwaWtfcHl0aG9uJywgJy1waHQnLCAnMi4wJywgJy1waCcsICc3LjAnLCAnLXRuJywgJzgnLCAnLW1hJywgJzIwMCcsICctaW1hZScsICc8aW5maWxlLm1hZT4nLCAnLW9tYWUnLCAnPG91dGZpbGUubWFlPic=

>  <r_epik_Ionization_Penalty>  (69) 
0.0211901

>  <r_epik_Ionization_Penalty_Charging>  (69) 
0.0211901

>  <r_epik_Ionization_Penalty_Neutral>  (69) 
0

>  <r_epik_State_Penalty>  (69) 
0.0170277

>  <r_epik_Charging_Adjusted_Penalty>  (69) 
0.0382178

>  <i_epik_Tot_Q>  (69) 
0

>  <i_epik_Tot_abs_Q>  (69) 
0

>  <s_epik_Chemistry_Notes>  (69) 
This compound has an ester and may undergo hydrolysis at high or low pH. This compound contains an acetal/aminal-like group ( X-CH(R)-Y where X, Y are N, S, or O) that may be acid/base labile, releasing an aldehyde.

>  <s_lp_Force_Field>  (69) 
OPLS3e

>  <r_lp_Energy>  (69) 
17.9077

>  <b_lp_Chiralities_Consistent>  (69) 
1

>  <s_lp_Variant>  (69) 
18:0-1

>  <s_i_glide_gridfile>  (69) 
pfpi4k_grid

>  <i_i_glide_lignum>  (69) 
28

>  <i_i_glide_rotatable_bonds>  (69) 
5

>  <r_i_docking_score>  (69) 
-2.73184

>  <r_i_glide_ligand_efficiency>  (69) 
-0.195131

>  <r_i_glide_ligand_efficiency_sa>  (69) 
-0.470294

>  <r_i_glide_ligand_efficiency_ln>  (69) 
-0.7507

>  <r_i_glide_gscore>  (69) 
-2.73184

>  <r_i_glide_lipo>  (69) 
-0.06047

>  <r_i_glide_hbond>  (69) 
-0.32

>  <r_i_glide_metal>  (69) 
-0

>  <r_i_glide_rewards>  (69) 
-2.11594

>  <r_i_glide_evdw>  (69) 
-16.5683

>  <r_i_glide_ecoul>  (69) 
-6.25866

>  <r_i_glide_erotb>  (69) 
1.65845

>  <r_i_glide_esite>  (69) 
-0.12666

>  <r_i_glide_emodel>  (69) 
-26.3813

>  <r_i_glide_energy>  (69) 
-22.827

>  <r_i_glide_einternal>  (69) 
1.38314

>  <r_i_glide_intrahb_reward>  (69) 
-0

>  <i_i_glide_confnum>  (69) 
6

>  <i_i_glide_posenum>  (69) 
15

>  <r_i_glide_eff_state_penalty>  (69) 
0

>  <ligand_id>  (69) 
18

>  <original_smiles>  (69) 
CC(=O)OCOC(=O)c1cncn1C

>  <smiles>  (69) 
[H]c1nc([H])n(C([H])([H])[H])c1C(=O)OC([H])([H])OC(=O)C([H])([H])[H]

$$$$
18:0:1
     RDKit          3D

 24 24  0  0  1  0  0  0  0  0999 V2000
    1.4793   -8.1234    2.1004 C   0  0  0  0  0  0  0  0  0  0  0  0
    0.7672   -6.8654    1.5679 C   0  0  0  0  0  0  0  0  0  0  0  0
   -0.4244   -6.6603    1.8176 O   0  0  0  0  0  0  0  0  0  0  0  0
    1.4742   -6.0032    0.8076 O   0  0  0  0  0  0  0  0  0  0  0  0
    2.8616   -6.0840    0.8834 C   0  0  0  0  0  0  0  0  0  0  0  0
    3.5030   -5.1586    0.0784 O   0  0  0  0  0  0  0  0  0  0  0  0
    3.4104   -3.8666    0.4183 C   0  0  0  0  0  0  0  0  0  0  0  0
    2.8833   -3.4359    1.4535 O   0  0  0  0  0  0  0  0  0  0  0  0
    4.0263   -3.0332   -0.6187 C   0  0  0  0  0  0  0  0  0  0  0  0
    4.5682   -3.3865   -1.8181 C   0  0  0  0  0  0  0  0  0  0  0  0
    5.0244   -2.2475   -2.4896 N   0  0  0  0  0  0  0  0  0  0  0  0
    4.7099   -1.2693   -1.6358 C   0  0  0  0  0  0  0  0  0  0  0  0
    4.1332   -1.6407   -0.5189 N   0  0  0  0  0  0  0  0  0  0  0  0
    3.6980   -0.7760    0.5802 C   0  0  0  0  0  0  0  0  0  0  0  0
    2.5046   -8.2459    1.7880 H   0  0  0  0  0  0  0  0  0  0  0  0
    0.9265   -9.0044    1.7583 H   0  0  0  0  0  0  0  0  0  0  0  0
    1.4343   -8.1352    3.1959 H   0  0  0  0  0  0  0  0  0  0  0  0
    3.1966   -5.9693    1.9139 H   0  0  0  0  0  0  0  0  0  0  0  0
    3.1871   -7.0450    0.4992 H   0  0  0  0  0  0  0  0  0  0  0  0
    4.6675   -4.3655   -2.2723 H   0  0  0  0  0  0  0  0  0  0  0  0
    4.9447   -0.2232   -1.8630 H   0  0  0  0  0  0  0  0  0  0  0  0
    3.9510    0.2577    0.3496 H   0  0  0  0  0  0  0  0  0  0  0  0
    4.2036   -1.0648    1.4958 H   0  0  0  0  0  0  0  0  0  0  0  0
    2.6232   -0.8624    0.7115 H   0  0  0  0  0  0  0  0  0  0  0  0
  1  2  1  0
  1 15  1  0
  1 16  1  0
  1 17  1  0
  2  3  2  0
  2  4  1  0
  4  5  1  0
  5  6  1  0
  5 18  1  0
  5 19  1  0
  6  7  1  0
  7  8  2  0
  7  9  1  0
  9 13  1  0
  9 10  2  0
 10 11  1  0
 10 20  1  0
 11 12  2  0
 12 13  1  0
 12 21  1  0
 13 14  1  0
 14 22  1  0
 14 23  1  0
 14 24  1  0
M  END
>  <i_m_ct_stereo_status>  (70) 
1

>  <s_m_source_file>  (70) 
/var/tmp/pbs.5076255.sched01/tmpj20d55gn/0_c3see42.sdf

>  <i_m_source_file_index>  (70) 
28

>  <i_lp_mmshare_version>  (70) 
48012

>  <i_f3d_flags>  (70) 
0

>  <s_epik_input>  (70) 
W0NIM11DKD1PKU9bQ0gyXU9DKD1PKWMxW2NIXW5bY0hdbjFbQ0gzXQ==

>  <s_epik_cmdline>  (70) 
J2VwaWtfcHl0aG9uJywgJy1waHQnLCAnMi4wJywgJy1waCcsICc3LjAnLCAnLXRuJywgJzgnLCAnLW1hJywgJzIwMCcsICctaW1hZScsICc8aW5maWxlLm1hZT4nLCAnLW9tYWUnLCAnPG91dGZpbGUubWFlPic=

>  <r_epik_Ionization_Penalty>  (70) 
0.0211901

>  <r_epik_Ionization_Penalty_Charging>  (70) 
0.0211901

>  <r_epik_Ionization_Penalty_Neutral>  (70) 
0

>  <r_epik_State_Penalty>  (70) 
0.0170277

>  <r_epik_Charging_Adjusted_Penalty>  (70) 
0.0382178

>  <i_epik_Tot_Q>  (70) 
0

>  <i_epik_Tot_abs_Q>  (70) 
0

>  <s_epik_Chemistry_Notes>  (70) 
This compound has an ester and may undergo hydrolysis at high or low pH. This compound contains an acetal/aminal-like group ( X-CH(R)-Y where X, Y are N, S, or O) that may be acid/base labile, releasing an aldehyde.

>  <s_lp_Force_Field>  (70) 
OPLS3e

>  <r_lp_Energy>  (70) 
17.9077

>  <b_lp_Chiralities_Consistent>  (70) 
1

>  <s_lp_Variant>  (70) 
18:0-1

>  <s_i_glide_gridfile>  (70) 
pfpi4k_grid

>  <i_i_glide_lignum>  (70) 
28

>  <i_i_glide_rotatable_bonds>  (70) 
5

>  <r_i_docking_score>  (70) 
-2.58739

>  <r_i_glide_ligand_efficiency>  (70) 
-0.184814

>  <r_i_glide_ligand_efficiency_sa>  (70) 
-0.445427

>  <r_i_glide_ligand_efficiency_ln>  (70) 
-0.711006

>  <r_i_glide_gscore>  (70) 
-2.58739

>  <r_i_glide_lipo>  (70) 
-0.00938787

>  <r_i_glide_hbond>  (70) 
-0.353776

>  <r_i_glide_metal>  (70) 
-0

>  <r_i_glide_rewards>  (70) 
-2.05789

>  <r_i_glide_evdw>  (70) 
-19.6083

>  <r_i_glide_ecoul>  (70) 
-4.40792

>  <r_i_glide_erotb>  (70) 
1.65845

>  <r_i_glide_esite>  (70) 
-0.183183

>  <r_i_glide_emodel>  (70) 
-23.5939

>  <r_i_glide_energy>  (70) 
-24.0162

>  <r_i_glide_einternal>  (70) 
9.02031

>  <r_i_glide_intrahb_reward>  (70) 
-0

>  <i_i_glide_confnum>  (70) 
2

>  <i_i_glide_posenum>  (70) 
1

>  <r_i_glide_eff_state_penalty>  (70) 
0

>  <ligand_id>  (70) 
18

>  <original_smiles>  (70) 
CC(=O)OCOC(=O)c1cncn1C

>  <smiles>  (70) 
[H]c1nc([H])n(C([H])([H])[H])c1C(=O)OC([H])([H])OC(=O)C([H])([H])[H]

$$$$
18:0:2
     RDKit          3D

 24 24  0  0  1  0  0  0  0  0999 V2000
    1.9786   -8.1757    1.7939 C   0  0  0  0  0  0  0  0  0  0  0  0
    1.7243   -6.6867    1.5994 C   0  0  0  0  0  0  0  0  0  0  0  0
    0.6094   -6.2670    1.2803 O   0  0  0  0  0  0  0  0  0  0  0  0
    2.8314   -5.9442    1.8388 O   0  0  0  0  0  0  0  0  0  0  0  0
    2.6621   -4.5546    1.8452 C   0  0  0  0  0  0  0  0  0  0  0  0
    3.4685   -3.9120    0.9049 O   0  0  0  0  0  0  0  0  0  0  0  0
    2.9432   -3.7647   -0.3341 C   0  0  0  0  0  0  0  0  0  0  0  0
    1.8806   -4.2592   -0.7207 O   0  0  0  0  0  0  0  0  0  0  0  0
    3.7864   -2.9054   -1.1673 C   0  0  0  0  0  0  0  0  0  0  0  0
    4.9659   -2.2675   -0.8498 C   0  0  0  0  0  0  0  0  0  0  0  0
    5.4163   -1.5296   -1.9366 N   0  0  0  0  0  0  0  0  0  0  0  0
    4.4908   -1.7581   -2.8672 C   0  0  0  0  0  0  0  0  0  0  0  0
    3.4857   -2.5608   -2.4929 N   0  0  0  0  0  0  0  0  0  0  0  0
    2.3482   -2.9527   -3.3121 C   0  0  0  0  0  0  0  0  0  0  0  0
    3.0173   -8.3658    2.0684 H   0  0  0  0  0  0  0  0  0  0  0  0
    1.7599   -8.7289    0.8821 H   0  0  0  0  0  0  0  0  0  0  0  0
    1.3353   -8.5595    2.5849 H   0  0  0  0  0  0  0  0  0  0  0  0
    1.6281   -4.2119    1.7629 H   0  0  0  0  0  0  0  0  0  0  0  0
    2.9961   -4.2168    2.8227 H   0  0  0  0  0  0  0  0  0  0  0  0
    5.5134   -2.2794    0.0836 H   0  0  0  0  0  0  0  0  0  0  0  0
    4.5442   -1.3285   -3.8560 H   0  0  0  0  0  0  0  0  0  0  0  0
    2.4180   -2.5043   -4.3033 H   0  0  0  0  0  0  0  0  0  0  0  0
    1.4197   -2.6314   -2.8413 H   0  0  0  0  0  0  0  0  0  0  0  0
    2.3148   -4.0337   -3.4262 H   0  0  0  0  0  0  0  0  0  0  0  0
  1  2  1  0
  1 15  1  0
  1 16  1  0
  1 17  1  0
  2  3  2  0
  2  4  1  0
  4  5  1  0
  5  6  1  0
  5 18  1  0
  5 19  1  0
  6  7  1  0
  7  8  2  0
  7  9  1  0
  9 13  1  0
  9 10  2  0
 10 11  1  0
 10 20  1  0
 11 12  2  0
 12 13  1  0
 12 21  1  0
 13 14  1  0
 14 22  1  0
 14 23  1  0
 14 24  1  0
M  END
>  <i_m_ct_stereo_status>  (71) 
1

>  <s_m_source_file>  (71) 
/var/tmp/pbs.5076255.sched01/tmpj20d55gn/0_c3see42.sdf

>  <i_m_source_file_index>  (71) 
28

>  <i_lp_mmshare_version>  (71) 
48012

>  <i_f3d_flags>  (71) 
0

>  <s_epik_input>  (71) 
W0NIM11DKD1PKU9bQ0gyXU9DKD1PKWMxW2NIXW5bY0hdbjFbQ0gzXQ==

>  <s_epik_cmdline>  (71) 
J2VwaWtfcHl0aG9uJywgJy1waHQnLCAnMi4wJywgJy1waCcsICc3LjAnLCAnLXRuJywgJzgnLCAnLW1hJywgJzIwMCcsICctaW1hZScsICc8aW5maWxlLm1hZT4nLCAnLW9tYWUnLCAnPG91dGZpbGUubWFlPic=

>  <r_epik_Ionization_Penalty>  (71) 
0.0211901

>  <r_epik_Ionization_Penalty_Charging>  (71) 
0.0211901

>  <r_epik_Ionization_Penalty_Neutral>  (71) 
0

>  <r_epik_State_Penalty>  (71) 
0.0170277

>  <r_epik_Charging_Adjusted_Penalty>  (71) 
0.0382178

>  <i_epik_Tot_Q>  (71) 
0

>  <i_epik_Tot_abs_Q>  (71) 
0

>  <s_epik_Chemistry_Notes>  (71) 
This compound has an ester and may undergo hydrolysis at high or low pH. This compound contains an acetal/aminal-like group ( X-CH(R)-Y where X, Y are N, S, or O) that may be acid/base labile, releasing an aldehyde.

>  <s_lp_Force_Field>  (71) 
OPLS3e

>  <r_lp_Energy>  (71) 
17.9077

>  <b_lp_Chiralities_Consistent>  (71) 
1

>  <s_lp_Variant>  (71) 
18:0-1

>  <s_i_glide_gridfile>  (71) 
pfpi4k_grid

>  <i_i_glide_lignum>  (71) 
28

>  <i_i_glide_rotatable_bonds>  (71) 
5

>  <r_i_docking_score>  (71) 
-2.53135

>  <r_i_glide_ligand_efficiency>  (71) 
-0.18081

>  <r_i_glide_ligand_efficiency_sa>  (71) 
-0.435779

>  <r_i_glide_ligand_efficiency_ln>  (71) 
-0.695605

>  <r_i_glide_gscore>  (71) 
-2.53135

>  <r_i_glide_lipo>  (71) 
-0.189114

>  <r_i_glide_hbond>  (71) 
-0.16

>  <r_i_glide_metal>  (71) 
-0

>  <r_i_glide_rewards>  (71) 
-2.07386

>  <r_i_glide_evdw>  (71) 
-19.0539

>  <r_i_glide_ecoul>  (71) 
-4.84372

>  <r_i_glide_erotb>  (71) 
1.65845

>  <r_i_glide_esite>  (71) 
-0.0875697

>  <r_i_glide_emodel>  (71) 
-26.9905

>  <r_i_glide_energy>  (71) 
-23.8976

>  <r_i_glide_einternal>  (71) 
2.20828

>  <r_i_glide_intrahb_reward>  (71) 
-0

>  <i_i_glide_confnum>  (71) 
2

>  <i_i_glide_posenum>  (71) 
20

>  <r_i_glide_eff_state_penalty>  (71) 
0

>  <ligand_id>  (71) 
18

>  <original_smiles>  (71) 
CC(=O)OCOC(=O)c1cncn1C

>  <smiles>  (71) 
[H]c1nc([H])n(C([H])([H])[H])c1C(=O)OC([H])([H])OC(=O)C([H])([H])[H]

$$$$
18:1:0
     RDKit          3D

 25 25  0  0  1  0  0  0  0  0999 V2000
    2.1785   -7.6918    1.7860 C   0  0  0  0  0  0  0  0  0  0  0  0
    1.4462   -6.3542    1.9688 C   0  0  0  0  0  0  0  0  0  0  0  0
    0.2295   -6.3255    2.1634 O   0  0  0  0  0  0  0  0  0  0  0  0
    2.2046   -5.2245    1.9212 O   0  0  0  0  0  0  0  0  0  0  0  0
    3.4240   -5.2959    1.2401 C   0  0  0  0  0  0  0  0  0  0  0  0
    3.7323   -4.0848    0.6282 O   0  0  0  0  0  0  0  0  0  0  0  0
    2.9146   -3.7382   -0.4022 C   0  0  0  0  0  0  0  0  0  0  0  0
    1.8777   -4.3303   -0.7231 O   0  0  0  0  0  0  0  0  0  0  0  0
    3.4223   -2.5547   -1.1131 C   0  0  0  0  0  0  0  0  0  0  0  0
    4.2779   -1.5957   -0.6072 C   0  0  0  0  0  0  0  0  0  0  0  0
    4.4281   -0.6812   -1.6209 N   0  0  0  0  0  0  0  0  0  0  0  0
    3.7102   -1.0439   -2.6979 C   0  0  0  0  0  0  0  0  0  0  0  0
    3.0816   -2.2013   -2.3947 N   0  0  0  0  0  0  0  0  0  0  0  0
    2.2002   -2.9024   -3.3329 C   0  0  0  0  0  0  0  0  0  0  0  0
    3.2605   -7.5856    1.6651 H   0  0  0  0  0  0  0  0  0  0  0  0
    1.7942   -8.2027    0.9041 H   0  0  0  0  0  0  0  0  0  0  0  0
    1.9982   -8.3297    2.6495 H   0  0  0  0  0  0  0  0  0  0  0  0
    4.2096   -5.5387    1.9625 H   0  0  0  0  0  0  0  0  0  0  0  0
    3.3967   -6.0742    0.4607 H   0  0  0  0  0  0  0  0  0  0  0  0
    4.7381   -1.5062    0.3639 H   0  0  0  0  0  0  0  0  0  0  0  0
    3.6254   -0.5058   -3.6216 H   0  0  0  0  0  0  0  0  0  0  0  0
    2.1356   -2.3573   -4.2802 H   0  0  0  0  0  0  0  0  0  0  0  0
    1.2011   -2.9963   -2.8927 H   0  0  0  0  0  0  0  0  0  0  0  0
    2.6035   -3.9018   -3.5146 H   0  0  0  0  0  0  0  0  0  0  0  0
    4.9582    0.1875   -1.5323 H   0  0  0  0  0  0  0  0  0  0  0  0
  1  2  1  0
  1 15  1  0
  1 16  1  0
  1 17  1  0
  2  3  2  0
  2  4  1  0
  4  5  1  0
  5  6  1  0
  5 18  1  0
  5 19  1  0
  6  7  1  0
  7  8  2  0
  7  9  1  0
  9 13  1  0
  9 10  2  0
 10 11  1  0
 10 20  1  0
 11 12  2  0
 11 25  1  0
 12 13  1  0
 12 21  1  0
 13 14  1  0
 14 22  1  0
 14 23  1  0
 14 24  1  0
M  CHG  1  11   1
M  END
>  <i_m_ct_stereo_status>  (72) 
1

>  <s_m_source_file>  (72) 
/var/tmp/pbs.5076255.sched01/tmpj20d55gn/0_c3see42.sdf

>  <i_m_source_file_index>  (72) 
29

>  <i_lp_mmshare_version>  (72) 
48012

>  <i_f3d_flags>  (72) 
0

>  <s_epik_input>  (72) 
W0NIM11DKD1PKU9bQ0gyXU9DKD1PKWMxW2NIXW5bY0hdbjFbQ0gzXQ==

>  <s_epik_cmdline>  (72) 
J2VwaWtfcHl0aG9uJywgJy1waHQnLCAnMi4wJywgJy1waCcsICc3LjAnLCAnLXRuJywgJzgnLCAnLW1hJywgJzIwMCcsICctaW1hZScsICc8aW5maWxlLm1hZT4nLCAnLW9tYWUnLCAnPG91dGZpbGUubWFlPic=

>  <r_epik_Ionization_Penalty>  (72) 
1.98401

>  <r_epik_Ionization_Penalty_Charging>  (72) 
0

>  <r_epik_Ionization_Penalty_Neutral>  (72) 
1.98401

>  <r_epik_State_Penalty>  (72) 
2.11151

>  <r_epik_Charging_Adjusted_Penalty>  (72) 
2.11151

>  <i_epik_Tot_Q>  (72) 
1

>  <i_epik_Tot_abs_Q>  (72) 
1

>  <s_epik_Chemistry_Notes>  (72) 
This compound has an ester and may undergo hydrolysis at high or low pH. This compound contains an acetal/aminal-like group ( X-CH(R)-Y where X, Y are N, S, or O) that may be acid/base labile, releasing an aldehyde.

>  <s_lp_Force_Field>  (72) 
OPLS3e

>  <r_lp_Energy>  (72) 
25.5575

>  <b_lp_Chiralities_Consistent>  (72) 
1

>  <s_lp_Variant>  (72) 
18:0-2

>  <s_i_glide_gridfile>  (72) 
pfpi4k_grid

>  <i_i_glide_lignum>  (72) 
29

>  <i_i_glide_rotatable_bonds>  (72) 
5

>  <r_i_docking_score>  (72) 
-2.92862

>  <r_i_glide_ligand_efficiency>  (72) 
-0.209187

>  <r_i_glide_ligand_efficiency_sa>  (72) 
-0.504171

>  <r_i_glide_ligand_efficiency_ln>  (72) 
-0.804775

>  <r_i_glide_gscore>  (72) 
-2.92862

>  <r_i_glide_lipo>  (72) 
-0.201755

>  <r_i_glide_hbond>  (72) 
-0.207432

>  <r_i_glide_metal>  (72) 
-0

>  <r_i_glide_rewards>  (72) 
-2.05308

>  <r_i_glide_evdw>  (72) 
-17.8717

>  <r_i_glide_ecoul>  (72) 
-6.89118

>  <r_i_glide_erotb>  (72) 
1.6445

>  <r_i_glide_esite>  (72) 
-0.183594

>  <r_i_glide_emodel>  (72) 
-25.3413

>  <r_i_glide_energy>  (72) 
-24.7629

>  <r_i_glide_einternal>  (72) 
10.2829

>  <r_i_glide_intrahb_reward>  (72) 
-0

>  <i_i_glide_confnum>  (72) 
2

>  <i_i_glide_posenum>  (72) 
3

>  <r_i_glide_eff_state_penalty>  (72) 
0

>  <ligand_id>  (72) 
18

>  <original_smiles>  (72) 
CC(=O)OCOC(=O)c1cncn1C

>  <smiles>  (72) 
[H]c1c(C(=O)OC([H])([H])OC(=O)C([H])([H])[H])n(C([H])([H])[H])c([H])[n+]1[H]

$$$$
18:1:1
     RDKit          3D

 25 25  0  0  1  0  0  0  0  0999 V2000
   -0.6314   -4.8845    6.7165 C   0  0  0  0  0  0  0  0  0  0  0  0
   -0.5239   -3.5332    7.4458 C   0  0  0  0  0  0  0  0  0  0  0  0
   -0.5500   -3.4761    8.6765 O   0  0  0  0  0  0  0  0  0  0  0  0
   -0.3844   -2.4100    6.6844 O   0  0  0  0  0  0  0  0  0  0  0  0
   -0.8627   -2.4714    5.3770 C   0  0  0  0  0  0  0  0  0  0  0  0
   -0.5947   -1.3237    4.6440 O   0  0  0  0  0  0  0  0  0  0  0  0
   -1.2052   -0.1946    5.0472 C   0  0  0  0  0  0  0  0  0  0  0  0
   -1.9485   -0.0887    6.0342 O   0  0  0  0  0  0  0  0  0  0  0  0
   -0.8514    0.9242    4.1530 C   0  0  0  0  0  0  0  0  0  0  0  0
   -0.1624    0.8520    2.9624 C   0  0  0  0  0  0  0  0  0  0  0  0
   -0.0976    2.1501    2.5178 N   0  0  0  0  0  0  0  0  0  0  0  0
   -0.6927    2.9724    3.3827 C   0  0  0  0  0  0  0  0  0  0  0  0
   -1.1642    2.2324    4.3967 N   0  0  0  0  0  0  0  0  0  0  0  0
   -1.8747    2.8062    5.5486 C   0  0  0  0  0  0  0  0  0  0  0  0
   -0.5677   -4.8250    5.6417 H   0  0  0  0  0  0  0  0  0  0  0  0
   -1.5679   -5.3713    7.0060 H   0  0  0  0  0  0  0  0  0  0  0  0
    0.1786   -5.5273    7.0748 H   0  0  0  0  0  0  0  0  0  0  0  0
   -0.3686   -3.2559    4.8369 H   0  0  0  0  0  0  0  0  0  0  0  0
   -1.9392   -2.6505    5.4158 H   0  0  0  0  0  0  0  0  0  0  0  0
    0.2608    0.0240    2.4135 H   0  0  0  0  0  0  0  0  0  0  0  0
   -0.7719    4.0459    3.2725 H   0  0  0  0  0  0  0  0  0  0  0  0
   -1.9586    3.8869    5.4419 H   0  0  0  0  0  0  0  0  0  0  0  0
   -1.3222    2.5551    6.4554 H   0  0  0  0  0  0  0  0  0  0  0  0
   -2.8681    2.3636    5.6013 H   0  0  0  0  0  0  0  0  0  0  0  0
    0.3186    2.4723    1.6446 H   0  0  0  0  0  0  0  0  0  0  0  0
  1  2  1  0
  1 15  1  0
  1 16  1  0
  1 17  1  0
  2  3  2  0
  2  4  1  0
  4  5  1  0
  5  6  1  0
  5 18  1  0
  5 19  1  0
  6  7  1  0
  7  8  2  0
  7  9  1  0
  9 13  1  0
  9 10  2  0
 10 11  1  0
 10 20  1  0
 11 12  2  0
 11 25  1  0
 12 13  1  0
 12 21  1  0
 13 14  1  0
 14 22  1  0
 14 23  1  0
 14 24  1  0
M  CHG  1  11   1
M  END
>  <i_m_ct_stereo_status>  (73) 
1

>  <s_m_source_file>  (73) 
/var/tmp/pbs.5076255.sched01/tmpj20d55gn/0_c3see42.sdf

>  <i_m_source_file_index>  (73) 
29

>  <i_lp_mmshare_version>  (73) 
48012

>  <i_f3d_flags>  (73) 
0

>  <s_epik_input>  (73) 
W0NIM11DKD1PKU9bQ0gyXU9DKD1PKWMxW2NIXW5bY0hdbjFbQ0gzXQ==

>  <s_epik_cmdline>  (73) 
J2VwaWtfcHl0aG9uJywgJy1waHQnLCAnMi4wJywgJy1waCcsICc3LjAnLCAnLXRuJywgJzgnLCAnLW1hJywgJzIwMCcsICctaW1hZScsICc8aW5maWxlLm1hZT4nLCAnLW9tYWUnLCAnPG91dGZpbGUubWFlPic=

>  <r_epik_Ionization_Penalty>  (73) 
1.98401

>  <r_epik_Ionization_Penalty_Charging>  (73) 
0

>  <r_epik_Ionization_Penalty_Neutral>  (73) 
1.98401

>  <r_epik_State_Penalty>  (73) 
2.11151

>  <r_epik_Charging_Adjusted_Penalty>  (73) 
2.11151

>  <i_epik_Tot_Q>  (73) 
1

>  <i_epik_Tot_abs_Q>  (73) 
1

>  <s_epik_Chemistry_Notes>  (73) 
This compound has an ester and may undergo hydrolysis at high or low pH. This compound contains an acetal/aminal-like group ( X-CH(R)-Y where X, Y are N, S, or O) that may be acid/base labile, releasing an aldehyde.

>  <s_lp_Force_Field>  (73) 
OPLS3e

>  <r_lp_Energy>  (73) 
25.5575

>  <b_lp_Chiralities_Consistent>  (73) 
1

>  <s_lp_Variant>  (73) 
18:0-2

>  <s_i_glide_gridfile>  (73) 
pfpi4k_grid

>  <i_i_glide_lignum>  (73) 
29

>  <i_i_glide_rotatable_bonds>  (73) 
5

>  <r_i_docking_score>  (73) 
-2.81252

>  <r_i_glide_ligand_efficiency>  (73) 
-0.200894

>  <r_i_glide_ligand_efficiency_sa>  (73) 
-0.484184

>  <r_i_glide_ligand_efficiency_ln>  (73) 
-0.77287

>  <r_i_glide_gscore>  (73) 
-2.81252

>  <r_i_glide_lipo>  (73) 
-0.0656689

>  <r_i_glide_hbond>  (73) 
-0.378337

>  <r_i_glide_metal>  (73) 
-0

>  <r_i_glide_rewards>  (73) 
-2.05102

>  <r_i_glide_evdw>  (73) 
-14.3633

>  <r_i_glide_ecoul>  (73) 
-6.27265

>  <r_i_glide_erotb>  (73) 
1.6445

>  <r_i_glide_esite>  (73) 
-0.302932

>  <r_i_glide_emodel>  (73) 
-21.5849

>  <r_i_glide_energy>  (73) 
-20.6359

>  <r_i_glide_einternal>  (73) 
9.32832

>  <r_i_glide_intrahb_reward>  (73) 
-0

>  <i_i_glide_confnum>  (73) 
2

>  <i_i_glide_posenum>  (73) 
37

>  <r_i_glide_eff_state_penalty>  (73) 
0

>  <ligand_id>  (73) 
18

>  <original_smiles>  (73) 
CC(=O)OCOC(=O)c1cncn1C

>  <smiles>  (73) 
[H]c1c(C(=O)OC([H])([H])OC(=O)C([H])([H])[H])n(C([H])([H])[H])c([H])[n+]1[H]

$$$$
18:1:2
     RDKit          3D

 25 25  0  0  1  0  0  0  0  0999 V2000
    3.9277   -4.4275   -0.2473 C   0  0  0  0  0  0  0  0  0  0  0  0
    3.0671   -5.1149    0.8053 C   0  0  0  0  0  0  0  0  0  0  0  0
    1.9075   -5.4613    0.5614 O   0  0  0  0  0  0  0  0  0  0  0  0
    3.7237   -5.2567    1.9806 O   0  0  0  0  0  0  0  0  0  0  0  0
    2.9838   -5.8101    3.0203 C   0  0  0  0  0  0  0  0  0  0  0  0
    2.9197   -7.2028    2.9272 O   0  0  0  0  0  0  0  0  0  0  0  0
    1.8809   -7.7814    3.5785 C   0  0  0  0  0  0  0  0  0  0  0  0
    0.9740   -7.1672    4.1430 O   0  0  0  0  0  0  0  0  0  0  0  0
    1.9868   -9.2633    3.5715 C   0  0  0  0  0  0  0  0  0  0  0  0
    2.8003  -10.0281    2.7747 C   0  0  0  0  0  0  0  0  0  0  0  0
    2.5670  -11.3250    3.1524 N   0  0  0  0  0  0  0  0  0  0  0  0
    1.6525  -11.3704    4.1352 C   0  0  0  0  0  0  0  0  0  0  0  0
    1.2862  -10.1076    4.4001 N   0  0  0  0  0  0  0  0  0  0  0  0
    0.3110   -9.7750    5.4450 C   0  0  0  0  0  0  0  0  0  0  0  0
    4.9207   -4.1998    0.1431 H   0  0  0  0  0  0  0  0  0  0  0  0
    3.4540   -3.4973   -0.5619 H   0  0  0  0  0  0  0  0  0  0  0  0
    4.0502   -5.0592   -1.1166 H   0  0  0  0  0  0  0  0  0  0  0  0
    3.4859   -5.5625    3.9540 H   0  0  0  0  0  0  0  0  0  0  0  0
    2.0000   -5.3358    3.0550 H   0  0  0  0  0  0  0  0  0  0  0  0
    3.5027   -9.7605    1.9970 H   0  0  0  0  0  0  0  0  0  0  0  0
    1.2857  -12.2548    4.6250 H   0  0  0  0  0  0  0  0  0  0  0  0
   -0.0497  -10.6822    5.9375 H   0  0  0  0  0  0  0  0  0  0  0  0
   -0.5277   -9.2452    4.9874 H   0  0  0  0  0  0  0  0  0  0  0  0
    0.7924   -9.1301    6.1833 H   0  0  0  0  0  0  0  0  0  0  0  0
    3.0070  -12.1321    2.7258 H   0  0  0  0  0  0  0  0  0  0  0  0
  1  2  1  0
  1 15  1  0
  1 16  1  0
  1 17  1  0
  2  3  2  0
  2  4  1  0
  4  5  1  0
  5  6  1  0
  5 18  1  0
  5 19  1  0
  6  7  1  0
  7  8  2  0
  7  9  1  0
  9 13  1  0
  9 10  2  0
 10 11  1  0
 10 20  1  0
 11 12  2  0
 11 25  1  0
 12 13  1  0
 12 21  1  0
 13 14  1  0
 14 22  1  0
 14 23  1  0
 14 24  1  0
M  CHG  1  11   1
M  END
>  <i_m_ct_stereo_status>  (74) 
1

>  <s_m_source_file>  (74) 
/var/tmp/pbs.5076255.sched01/tmpj20d55gn/0_c3see42.sdf

>  <i_m_source_file_index>  (74) 
29

>  <i_lp_mmshare_version>  (74) 
48012

>  <i_f3d_flags>  (74) 
0

>  <s_epik_input>  (74) 
W0NIM11DKD1PKU9bQ0gyXU9DKD1PKWMxW2NIXW5bY0hdbjFbQ0gzXQ==

>  <s_epik_cmdline>  (74) 
J2VwaWtfcHl0aG9uJywgJy1waHQnLCAnMi4wJywgJy1waCcsICc3LjAnLCAnLXRuJywgJzgnLCAnLW1hJywgJzIwMCcsICctaW1hZScsICc8aW5maWxlLm1hZT4nLCAnLW9tYWUnLCAnPG91dGZpbGUubWFlPic=

>  <r_epik_Ionization_Penalty>  (74) 
1.98401

>  <r_epik_Ionization_Penalty_Charging>  (74) 
0

>  <r_epik_Ionization_Penalty_Neutral>  (74) 
1.98401

>  <r_epik_State_Penalty>  (74) 
2.11151

>  <r_epik_Charging_Adjusted_Penalty>  (74) 
2.11151

>  <i_epik_Tot_Q>  (74) 
1

>  <i_epik_Tot_abs_Q>  (74) 
1

>  <s_epik_Chemistry_Notes>  (74) 
This compound has an ester and may undergo hydrolysis at high or low pH. This compound contains an acetal/aminal-like group ( X-CH(R)-Y where X, Y are N, S, or O) that may be acid/base labile, releasing an aldehyde.

>  <s_lp_Force_Field>  (74) 
OPLS3e

>  <r_lp_Energy>  (74) 
25.5575

>  <b_lp_Chiralities_Consistent>  (74) 
1

>  <s_lp_Variant>  (74) 
18:0-2

>  <s_i_glide_gridfile>  (74) 
pfpi4k_grid

>  <i_i_glide_lignum>  (74) 
29

>  <i_i_glide_rotatable_bonds>  (74) 
5

>  <r_i_docking_score>  (74) 
-2.22114

>  <r_i_glide_ligand_efficiency>  (74) 
-0.158653

>  <r_i_glide_ligand_efficiency_sa>  (74) 
-0.382376

>  <r_i_glide_ligand_efficiency_ln>  (74) 
-0.610361

>  <r_i_glide_gscore>  (74) 
-2.22114

>  <r_i_glide_lipo>  (74) 
0

>  <r_i_glide_hbond>  (74) 
-0.077207

>  <r_i_glide_metal>  (74) 
-0

>  <r_i_glide_rewards>  (74) 
-2.13068

>  <r_i_glide_evdw>  (74) 
-13.4823

>  <r_i_glide_ecoul>  (74) 
-6.17764

>  <r_i_glide_erotb>  (74) 
1.6445

>  <r_i_glide_esite>  (74) 
-0.0569887

>  <r_i_glide_emodel>  (74) 
-22.974

>  <r_i_glide_energy>  (74) 
-19.6599

>  <r_i_glide_einternal>  (74) 
2.51906

>  <r_i_glide_intrahb_reward>  (74) 
-0

>  <i_i_glide_confnum>  (74) 
4

>  <i_i_glide_posenum>  (74) 
6

>  <r_i_glide_eff_state_penalty>  (74) 
0

>  <ligand_id>  (74) 
18

>  <original_smiles>  (74) 
CC(=O)OCOC(=O)c1cncn1C

>  <smiles>  (74) 
[H]c1c(C(=O)OC([H])([H])OC(=O)C([H])([H])[H])n(C([H])([H])[H])c([H])[n+]1[H]

$$$$
19:0:0
     RDKit          3D

 35 40  0  0  1  0  0  0  0  0999 V2000
    5.6408   -1.6177    2.0654 C   0  0  0  0  0  0  0  0  0  0  0  0
    4.2896   -1.8261    2.6127 N   0  0  0  0  0  0  0  0  0  0  0  0
    3.2638   -1.1271    1.8210 C   0  0  0  0  0  0  0  0  0  0  0  0
    3.4483   -1.3456    0.3104 C   0  0  1  0  0  0  0  0  0  0  0  0
    4.8264   -0.9069   -0.2413 C   0  0  1  0  0  0  0  0  0  0  0  0
    5.6805   -1.8741    0.5573 C   0  0  2  0  0  0  0  0  0  0  0  0
    4.9868   -3.1847    0.1251 C   0  0  2  0  0  0  0  0  0  0  0  0
    5.7962   -3.6073   -1.0977 C   0  0  0  0  0  0  0  0  0  0  0  0
    5.4612   -2.6416   -2.2318 C   0  0  1  0  0  0  0  0  0  0  0  0
    4.1561   -3.1457   -2.7780 C   0  0  2  0  0  0  0  0  0  0  0  0
    3.5093   -2.1434   -3.7100 C   0  0  0  0  0  0  0  0  0  0  0  0
    3.5686   -1.3861   -2.3938 C   0  0  2  0  0  0  0  0  0  0  0  0
    4.9661   -1.1953   -1.8039 C   0  0  1  0  0  0  0  0  0  0  0  0
    3.1167   -2.7078   -1.7388 C   0  0  2  0  0  0  0  0  0  0  0  0
    3.4639   -2.8008   -0.1958 C   0  0  2  0  0  0  0  0  0  0  0  0
    6.3030   -2.3104    2.5670 H   0  0  0  0  0  0  0  0  0  0  0  0
    5.9852   -0.6113    2.2897 H   0  0  0  0  0  0  0  0  0  0  0  0
    4.0906   -2.8067    2.5645 H   0  0  0  0  0  0  0  0  0  0  0  0
    2.2807   -1.4603    2.1418 H   0  0  0  0  0  0  0  0  0  0  0  0
    3.3193   -0.0643    2.0447 H   0  0  0  0  0  0  0  0  0  0  0  0
    2.6451   -0.7602   -0.1274 H   0  0  0  0  0  0  0  0  0  0  0  0
    5.0169    0.1386   -0.0022 H   0  0  0  0  0  0  0  0  0  0  0  0
    6.7277   -1.7979    0.2502 H   0  0  0  0  0  0  0  0  0  0  0  0
    5.0682   -3.9514    0.8962 H   0  0  0  0  0  0  0  0  0  0  0  0
    6.8683   -3.6021   -0.9040 H   0  0  0  0  0  0  0  0  0  0  0  0
    5.5457   -4.6303   -1.3773 H   0  0  0  0  0  0  0  0  0  0  0  0
    6.2151   -2.6536   -3.0154 H   0  0  0  0  0  0  0  0  0  0  0  0
    4.0826   -4.1815   -3.1030 H   0  0  0  0  0  0  0  0  0  0  0  0
    4.1847   -1.7570   -4.4679 H   0  0  0  0  0  0  0  0  0  0  0  0
    2.5089   -2.3959   -4.0856 H   0  0  0  0  0  0  0  0  0  0  0  0
    2.8509   -0.5723   -2.3327 H   0  0  0  0  0  0  0  0  0  0  0  0
    5.5151   -0.4066   -2.3145 H   0  0  0  0  0  0  0  0  0  0  0  0
    2.0798   -2.9601   -1.9965 H   0  0  0  0  0  0  0  0  0  0  0  0
    2.7553   -3.4327    0.3422 H   0  0  0  0  0  0  0  0  0  0  0  0
    4.2581   -1.5096    3.5617 H   0  0  0  0  0  0  0  0  0  0  0  0
  1  6  1  0
  1  2  1  0
  1 16  1  0
  1 17  1  0
  2  3  1  0
  2 18  1  0
  2 35  1  0
  3  4  1  0
  3 19  1  0
  3 20  1  0
  4 15  1  0
  4  5  1  0
  4 21  1  6
  5 13  1  0
  5  6  1  0
  5 22  1  6
  6  7  1  0
  6 23  1  6
  7 15  1  0
  7  8  1  0
  7 24  1  1
  8  9  1  0
  8 25  1  0
  8 26  1  0
  9 13  1  0
  9 10  1  0
  9 27  1  6
 10 14  1  0
 10 11  1  0
 10 28  1  6
 11 12  1  0
 11 29  1  0
 11 30  1  0
 12 13  1  0
 12 14  1  0
 12 31  1  6
 13 32  1  6
 14 15  1  0
 14 33  1  1
 15 34  1  1
M  CHG  1   2   1
M  END
>  <i_m_ct_stereo_status>  (75) 
1

>  <s_m_source_file>  (75) 
/var/tmp/pbs.5076255.sched01/tmpj20d55gn/0_c3see42.sdf

>  <i_m_source_file_index>  (75) 
30

>  <i_lp_mmshare_version>  (75) 
48012

>  <i_f3d_flags>  (75) 
0

>  <s_epik_input>  (75) 
W0NIMl0xW05IXVtDSDJdW0NASF0oW0NAQEhdMltDQEhdMTMpW0NASF00W0NAQEhdM1tDQEBIXTVbQ0BASF02W0NASF0oW0NIMl00KVtDQEhdMltDQEhdNVtDSDJdNg==

>  <s_epik_cmdline>  (75) 
J2VwaWtfcHl0aG9uJywgJy1waHQnLCAnMi4wJywgJy1waCcsICc3LjAnLCAnLXRuJywgJzgnLCAnLW1hJywgJzIwMCcsICctaW1hZScsICc8aW5maWxlLm1hZT4nLCAnLW9tYWUnLCAnPG91dGZpbGUubWFlPic=

>  <r_lp_tautomer_probability>  (75) 
1

>  <r_epik_Ionization_Penalty>  (75) 
0.00015957

>  <r_epik_Ionization_Penalty_Charging>  (75) 
0.00015957

>  <r_epik_Ionization_Penalty_Neutral>  (75) 
0

>  <r_epik_State_Penalty>  (75) 
-0

>  <r_epik_Charging_Adjusted_Penalty>  (75) 
0.00015957

>  <i_epik_Tot_Q>  (75) 
1

>  <i_epik_Tot_abs_Q>  (75) 
1

>  <s_lp_Force_Field>  (75) 
OPLS3e

>  <r_lp_Energy>  (75) 
97.5919

>  <b_lp_Chiralities_Consistent>  (75) 
1

>  <s_lp_Variant>  (75) 
19:0-1

>  <s_i_glide_gridfile>  (75) 
pfpi4k_grid

>  <i_i_glide_lignum>  (75) 
30

>  <i_i_glide_rotatable_bonds>  (75) 
0

>  <r_i_docking_score>  (75) 
-3.93916

>  <r_i_glide_ligand_efficiency>  (75) 
-0.262611

>  <r_i_glide_ligand_efficiency_sa>  (75) 
-0.647654

>  <r_i_glide_ligand_efficiency_ln>  (75) 
-1.06233

>  <r_i_glide_gscore>  (75) 
-3.93916

>  <r_i_glide_lipo>  (75) 
-0.56322

>  <r_i_glide_hbond>  (75) 
0

>  <r_i_glide_metal>  (75) 
-0

>  <r_i_glide_rewards>  (75) 
-2.02967

>  <r_i_glide_evdw>  (75) 
-20.4335

>  <r_i_glide_ecoul>  (75) 
-2.164

>  <r_i_glide_erotb>  (75) 
0

>  <r_i_glide_esite>  (75) 
0

>  <r_i_glide_emodel>  (75) 
-27.8841

>  <r_i_glide_energy>  (75) 
-22.5975

>  <r_i_glide_einternal>  (75) 
0

>  <r_i_glide_intrahb_reward>  (75) 
-0

>  <i_i_glide_confnum>  (75) 
1

>  <i_i_glide_posenum>  (75) 
1

>  <r_i_glide_eff_state_penalty>  (75) 
0

>  <ligand_id>  (75) 
19

>  <original_smiles>  (75) 
C1NCC2C3C1C1CC4C5CC(C43)C5C12

>  <smiles>  (75) 
[H]C1([H])C2([H])C3([H])C([H])([H])C4([H])C5([H])C2([H])C1([H])C3([H])C1([H])C4([H])C([H])([H])[N+]([H])([H])C([H])([H])C51[H]

$$$$
19:0:1
     RDKit          3D

 35 40  0  0  1  0  0  0  0  0999 V2000
    3.6409   -3.4117   -3.1972 C   0  0  0  0  0  0  0  0  0  0  0  0
    3.7852   -2.0442   -3.6950 N   0  0  0  0  0  0  0  0  0  0  0  0
    3.3468   -1.0341   -2.7304 C   0  0  0  0  0  0  0  0  0  0  0  0
    3.8630   -1.3228   -1.3045 C   0  0  1  0  0  0  0  0  0  0  0  0
    3.4729   -2.7029   -0.7367 C   0  0  1  0  0  0  0  0  0  0  0  0
    4.2118   -3.5384   -1.7702 C   0  0  2  0  0  0  0  0  0  0  0  0
    5.6199   -2.9305   -1.5994 C   0  0  2  0  0  0  0  0  0  0  0  0
    6.2347   -3.8245   -0.5167 C   0  0  0  0  0  0  0  0  0  0  0  0
    5.5492   -3.4997    0.8012 C   0  0  1  0  0  0  0  0  0  0  0  0
    6.2297   -2.2454    1.2609 C   0  0  2  0  0  0  0  0  0  0  0  0
    5.4913   -1.6113    2.4262 C   0  0  0  0  0  0  0  0  0  0  0  0
    4.4569   -1.5717    1.3113 C   0  0  2  0  0  0  0  0  0  0  0  0
    4.0760   -2.9325    0.7228 C   0  0  1  0  0  0  0  0  0  0  0  0
    5.6294   -1.1347    0.3980 C   0  0  2  0  0  0  0  0  0  0  0  0
    5.3800   -1.4202   -1.1384 C   0  0  2  0  0  0  0  0  0  0  0  0
    4.1412   -4.0996   -3.8636 H   0  0  0  0  0  0  0  0  0  0  0  0
    2.5861   -3.6816   -3.1946 H   0  0  0  0  0  0  0  0  0  0  0  0
    4.7629   -1.8845   -3.8752 H   0  0  0  0  0  0  0  0  0  0  0  0
    3.6534   -0.0523   -3.0683 H   0  0  0  0  0  0  0  0  0  0  0  0
    2.2615   -1.0301   -2.7070 H   0  0  0  0  0  0  0  0  0  0  0  0
    3.4490   -0.5412   -0.6801 H   0  0  0  0  0  0  0  0  0  0  0  0
    2.3926   -2.8325   -0.7442 H   0  0  0  0  0  0  0  0  0  0  0  0
    4.1567   -4.5910   -1.4952 H   0  0  0  0  0  0  0  0  0  0  0  0
    6.1991   -3.0105   -2.5201 H   0  0  0  0  0  0  0  0  0  0  0  0
    6.0992   -4.8855   -0.7147 H   0  0  0  0  0  0  0  0  0  0  0  0
    7.3143   -3.6714   -0.4587 H   0  0  0  0  0  0  0  0  0  0  0  0
    5.6678   -4.2909    1.5371 H   0  0  0  0  0  0  0  0  0  0  0  0
    7.3185   -2.2175    1.2928 H   0  0  0  0  0  0  0  0  0  0  0  0
    5.2522   -2.3166    3.2210 H   0  0  0  0  0  0  0  0  0  0  0  0
    5.8752   -0.6504    2.7851 H   0  0  0  0  0  0  0  0  0  0  0  0
    3.6762   -0.8257    1.4631 H   0  0  0  0  0  0  0  0  0  0  0  0
    3.4026   -3.4954    1.3700 H   0  0  0  0  0  0  0  0  0  0  0  0
    6.0008   -0.1308    0.6297 H   0  0  0  0  0  0  0  0  0  0  0  0
    5.8729   -0.6978   -1.7861 H   0  0  0  0  0  0  0  0  0  0  0  0
    3.2396   -1.9292   -4.5385 H   0  0  0  0  0  0  0  0  0  0  0  0
  1  6  1  0
  1  2  1  0
  1 16  1  0
  1 17  1  0
  2  3  1  0
  2 18  1  0
  2 35  1  0
  3  4  1  0
  3 19  1  0
  3 20  1  0
  4 15  1  0
  4  5  1  0
  4 21  1  1
  5 13  1  0
  5  6  1  0
  5 22  1  1
  6  7  1  0
  6 23  1  1
  7 15  1  0
  7  8  1  0
  7 24  1  6
  8  9  1  0
  8 25  1  0
  8 26  1  0
  9 13  1  0
  9 10  1  0
  9 27  1  1
 10 14  1  0
 10 11  1  0
 10 28  1  1
 11 12  1  0
 11 29  1  0
 11 30  1  0
 12 13  1  0
 12 14  1  0
 12 31  1  1
 13 32  1  1
 14 15  1  0
 14 33  1  6
 15 34  1  6
M  CHG  1   2   1
M  END
>  <i_m_ct_stereo_status>  (76) 
1

>  <s_m_source_file>  (76) 
/var/tmp/pbs.5076255.sched01/tmpj20d55gn/0_c3see42.sdf

>  <i_m_source_file_index>  (76) 
30

>  <i_lp_mmshare_version>  (76) 
48012

>  <i_f3d_flags>  (76) 
0

>  <s_epik_input>  (76) 
W0NIMl0xW05IXVtDSDJdW0NASF0oW0NAQEhdMltDQEhdMTMpW0NASF00W0NAQEhdM1tDQEBIXTVbQ0BASF02W0NASF0oW0NIMl00KVtDQEhdMltDQEhdNVtDSDJdNg==

>  <s_epik_cmdline>  (76) 
J2VwaWtfcHl0aG9uJywgJy1waHQnLCAnMi4wJywgJy1waCcsICc3LjAnLCAnLXRuJywgJzgnLCAnLW1hJywgJzIwMCcsICctaW1hZScsICc8aW5maWxlLm1hZT4nLCAnLW9tYWUnLCAnPG91dGZpbGUubWFlPic=

>  <r_lp_tautomer_probability>  (76) 
1

>  <r_epik_Ionization_Penalty>  (76) 
0.00015957

>  <r_epik_Ionization_Penalty_Charging>  (76) 
0.00015957

>  <r_epik_Ionization_Penalty_Neutral>  (76) 
0

>  <r_epik_State_Penalty>  (76) 
-0

>  <r_epik_Charging_Adjusted_Penalty>  (76) 
0.00015957

>  <i_epik_Tot_Q>  (76) 
1

>  <i_epik_Tot_abs_Q>  (76) 
1

>  <s_lp_Force_Field>  (76) 
OPLS3e

>  <r_lp_Energy>  (76) 
97.5919

>  <b_lp_Chiralities_Consistent>  (76) 
1

>  <s_lp_Variant>  (76) 
19:0-1

>  <s_i_glide_gridfile>  (76) 
pfpi4k_grid

>  <i_i_glide_lignum>  (76) 
30

>  <i_i_glide_rotatable_bonds>  (76) 
0

>  <r_i_docking_score>  (76) 
-3.77763

>  <r_i_glide_ligand_efficiency>  (76) 
-0.251842

>  <r_i_glide_ligand_efficiency_sa>  (76) 
-0.621095

>  <r_i_glide_ligand_efficiency_ln>  (76) 
-1.01876

>  <r_i_glide_gscore>  (76) 
-3.77763

>  <r_i_glide_lipo>  (76) 
-0.529986

>  <r_i_glide_hbond>  (76) 
0

>  <r_i_glide_metal>  (76) 
-0

>  <r_i_glide_rewards>  (76) 
-2.02967

>  <r_i_glide_evdw>  (76) 
-17.9207

>  <r_i_glide_ecoul>  (76) 
-2.14626

>  <r_i_glide_erotb>  (76) 
0

>  <r_i_glide_esite>  (76) 
0

>  <r_i_glide_emodel>  (76) 
-25.1266

>  <r_i_glide_energy>  (76) 
-20.067

>  <r_i_glide_einternal>  (76) 
0

>  <r_i_glide_intrahb_reward>  (76) 
-0

>  <i_i_glide_confnum>  (76) 
1

>  <i_i_glide_posenum>  (76) 
2

>  <r_i_glide_eff_state_penalty>  (76) 
0

>  <ligand_id>  (76) 
19

>  <original_smiles>  (76) 
C1NCC2C3C1C1CC4C5CC(C43)C5C12

>  <smiles>  (76) 
[H]C1([H])C2([H])C3([H])C([H])([H])C4([H])C5([H])C2([H])C1([H])C3([H])C1([H])C4([H])C([H])([H])[N+]([H])([H])C([H])([H])C51[H]

$$$$
19:0:2
     RDKit          3D

 35 40  0  0  1  0  0  0  0  0999 V2000
    4.1318   -4.1145    1.9766 C   0  0  0  0  0  0  0  0  0  0  0  0
    5.3985   -4.8168    1.7090 N   0  0  0  0  0  0  0  0  0  0  0  0
    5.4304   -5.4365    0.3740 C   0  0  0  0  0  0  0  0  0  0  0  0
    4.9358   -4.4704   -0.7314 C   0  0  1  0  0  0  0  0  0  0  0  0
    3.4973   -3.9263   -0.5079 C   0  0  1  0  0  0  0  0  0  0  0  0
    3.7606   -3.1886    0.7986 C   0  0  2  0  0  0  0  0  0  0  0  0
    4.9307   -2.2965    0.3162 C   0  0  2  0  0  0  0  0  0  0  0  0
    4.2108   -1.0362   -0.1620 C   0  0  0  0  0  0  0  0  0  0  0  0
    3.4900   -1.3916   -1.4633 C   0  0  1  0  0  0  0  0  0  0  0  0
    4.5459   -1.3271   -2.5201 C   0  0  2  0  0  0  0  0  0  0  0  0
    3.9962   -1.9147   -3.8058 C   0  0  0  0  0  0  0  0  0  0  0  0
    3.9700   -3.1091   -2.8641 C   0  0  2  0  0  0  0  0  0  0  0  0
    3.0627   -2.9065   -1.6575 C   0  0  1  0  0  0  0  0  0  0  0  0
    5.3447   -2.6246   -2.3294 C   0  0  2  0  0  0  0  0  0  0  0  0
    5.6623   -3.1169   -0.8531 C   0  0  2  0  0  0  0  0  0  0  0  0
    4.2358   -3.5384    2.8964 H   0  0  0  0  0  0  0  0  0  0  0  0
    3.3392   -4.8474    2.1398 H   0  0  0  0  0  0  0  0  0  0  0  0
    6.1451   -4.1427    1.7535 H   0  0  0  0  0  0  0  0  0  0  0  0
    6.4467   -5.7697    0.1622 H   0  0  0  0  0  0  0  0  0  0  0  0
    4.8001   -6.3289    0.3861 H   0  0  0  0  0  0  0  0  0  0  0  0
    5.0137   -5.0511   -1.6506 H   0  0  0  0  0  0  0  0  0  0  0  0
    2.7704   -4.7344   -0.4092 H   0  0  0  0  0  0  0  0  0  0  0  0
    2.8677   -2.6359    1.1007 H   0  0  0  0  0  0  0  0  0  0  0  0
    5.6052   -2.0451    1.1385 H   0  0  0  0  0  0  0  0  0  0  0  0
    3.4982   -0.6605    0.5743 H   0  0  0  0  0  0  0  0  0  0  0  0
    4.9251   -0.2285   -0.3171 H   0  0  0  0  0  0  0  0  0  0  0  0
    2.6905   -0.6943   -1.7088 H   0  0  0  0  0  0  0  0  0  0  0  0
    5.1237   -0.4078   -2.6205 H   0  0  0  0  0  0  0  0  0  0  0  0
    3.0135   -1.5368   -4.0840 H   0  0  0  0  0  0  0  0  0  0  0  0
    4.6539   -1.9795   -4.6602 H   0  0  0  0  0  0  0  0  0  0  0  0
    3.9664   -4.0793   -3.3624 H   0  0  0  0  0  0  0  0  0  0  0  0
    2.0041   -2.9888   -1.9128 H   0  0  0  0  0  0  0  0  0  0  0  0
    6.1553   -2.7740   -3.0505 H   0  0  0  0  0  0  0  0  0  0  0  0
    6.7362   -3.2085   -0.6778 H   0  0  0  0  0  0  0  0  0  0  0  0
    5.5518   -5.5227    2.4128 H   0  0  0  0  0  0  0  0  0  0  0  0
  1  6  1  0
  1  2  1  0
  1 16  1  0
  1 17  1  0
  2  3  1  0
  2 18  1  0
  2 35  1  0
  3  4  1  0
  3 19  1  0
  3 20  1  0
  4 15  1  0
  4  5  1  0
  4 21  1  6
  5 13  1  0
  5  6  1  0
  5 22  1  1
  6  7  1  0
  6 23  1  1
  7 15  1  0
  7  8  1  0
  7 24  1  1
  8  9  1  0
  8 25  1  0
  8 26  1  0
  9 13  1  0
  9 10  1  0
  9 27  1  6
 10 14  1  0
 10 11  1  0
 10 28  1  6
 11 12  1  0
 11 29  1  0
 11 30  1  0
 12 13  1  0
 12 14  1  0
 12 31  1  6
 13 32  1  6
 14 15  1  0
 14 33  1  6
 15 34  1  1
M  CHG  1   2   1
M  END
>  <i_m_ct_stereo_status>  (77) 
1

>  <s_m_source_file>  (77) 
/var/tmp/pbs.5076255.sched01/tmpj20d55gn/0_c3see42.sdf

>  <i_m_source_file_index>  (77) 
30

>  <i_lp_mmshare_version>  (77) 
48012

>  <i_f3d_flags>  (77) 
0

>  <s_epik_input>  (77) 
W0NIMl0xW05IXVtDSDJdW0NASF0oW0NAQEhdMltDQEhdMTMpW0NASF00W0NAQEhdM1tDQEBIXTVbQ0BASF02W0NASF0oW0NIMl00KVtDQEhdMltDQEhdNVtDSDJdNg==

>  <s_epik_cmdline>  (77) 
J2VwaWtfcHl0aG9uJywgJy1waHQnLCAnMi4wJywgJy1waCcsICc3LjAnLCAnLXRuJywgJzgnLCAnLW1hJywgJzIwMCcsICctaW1hZScsICc8aW5maWxlLm1hZT4nLCAnLW9tYWUnLCAnPG91dGZpbGUubWFlPic=

>  <r_lp_tautomer_probability>  (77) 
1

>  <r_epik_Ionization_Penalty>  (77) 
0.00015957

>  <r_epik_Ionization_Penalty_Charging>  (77) 
0.00015957

>  <r_epik_Ionization_Penalty_Neutral>  (77) 
0

>  <r_epik_State_Penalty>  (77) 
-0

>  <r_epik_Charging_Adjusted_Penalty>  (77) 
0.00015957

>  <i_epik_Tot_Q>  (77) 
1

>  <i_epik_Tot_abs_Q>  (77) 
1

>  <s_lp_Force_Field>  (77) 
OPLS3e

>  <r_lp_Energy>  (77) 
97.5919

>  <b_lp_Chiralities_Consistent>  (77) 
1

>  <s_lp_Variant>  (77) 
19:0-1

>  <s_i_glide_gridfile>  (77) 
pfpi4k_grid

>  <i_i_glide_lignum>  (77) 
30

>  <i_i_glide_rotatable_bonds>  (77) 
0

>  <r_i_docking_score>  (77) 
-3.70993

>  <r_i_glide_ligand_efficiency>  (77) 
-0.247329

>  <r_i_glide_ligand_efficiency_sa>  (77) 
-0.609966

>  <r_i_glide_ligand_efficiency_ln>  (77) 
-1.00051

>  <r_i_glide_gscore>  (77) 
-3.70993

>  <r_i_glide_lipo>  (77) 
-0.4048

>  <r_i_glide_hbond>  (77) 
0

>  <r_i_glide_metal>  (77) 
-0

>  <r_i_glide_rewards>  (77) 
-2.02967

>  <r_i_glide_evdw>  (77) 
-19.1657

>  <r_i_glide_ecoul>  (77) 
-2.11455

>  <r_i_glide_erotb>  (77) 
0

>  <r_i_glide_esite>  (77) 
0

>  <r_i_glide_emodel>  (77) 
-26.2451

>  <r_i_glide_energy>  (77) 
-21.2802

>  <r_i_glide_einternal>  (77) 
0

>  <r_i_glide_intrahb_reward>  (77) 
-0

>  <i_i_glide_confnum>  (77) 
1

>  <i_i_glide_posenum>  (77) 
37

>  <r_i_glide_eff_state_penalty>  (77) 
0

>  <ligand_id>  (77) 
19

>  <original_smiles>  (77) 
C1NCC2C3C1C1CC4C5CC(C43)C5C12

>  <smiles>  (77) 
[H]C1([H])C2([H])C3([H])C([H])([H])C4([H])C5([H])C2([H])C1([H])C3([H])C1([H])C4([H])C([H])([H])[N+]([H])([H])C([H])([H])C51[H]

$$$$
20:0:0
     RDKit          3D

 85 89  0  0  1  0  0  0  0  0999 V2000
    4.5642   -2.3568    4.6624 C   0  0  0  0  0  0  0  0  0  0  0  0
    4.8414   -2.8991    3.3807 O   0  0  0  0  0  0  0  0  0  0  0  0
    5.3681   -2.1432    2.4039 C   0  0  0  0  0  0  0  0  0  0  0  0
    5.6262   -0.9533    2.5476 O   0  0  0  0  0  0  0  0  0  0  0  0
    5.6707   -2.9122    1.0591 C   0  0  2  0  0  0  0  0  0  0  0  0
    6.2550   -1.9131    0.0178 C   0  0  0  0  0  0  0  0  0  0  0  0
    5.1937   -0.9810   -0.5758 C   0  0  0  0  0  0  0  0  0  0  0  0
    4.0990   -1.7768   -1.2746 C   0  0  1  0  0  0  0  0  0  0  0  0
    4.6546   -2.4388   -2.5589 C   0  0  0  0  0  0  0  0  0  0  0  0
    3.4128   -2.7399   -0.2747 C   0  0  1  0  0  0  0  0  0  0  0  0
    2.3324   -3.5207   -1.0511 C   0  0  0  0  0  0  0  0  0  0  0  0
    4.4478   -3.6630    0.4518 C   0  0  2  0  0  0  0  0  0  0  0  0
    3.8914   -4.7215    1.4429 C   0  0  0  0  0  0  0  0  0  0  0  0
    2.6500   -4.6770    1.9267 C   0  0  0  0  0  0  0  0  0  0  0  0
    2.0043   -5.7172    2.8009 C   0  0  0  0  0  0  0  0  0  0  0  0
    2.8363   -7.0199    3.0775 C   0  0  2  0  0  0  0  0  0  0  0  0
    2.1610   -7.8222    4.2884 C   0  0  1  0  0  0  0  0  0  0  0  0
    0.6453   -7.9181    3.9303 C   0  0  0  0  0  0  0  0  0  0  0  0
    2.6623   -9.2887    4.4295 C   0  0  0  0  0  0  0  0  0  0  0  0
    2.0900  -10.0441    5.6361 C   0  0  1  0  0  0  0  0  0  0  0  0
    2.6493  -11.3377    5.6785 O   0  0  0  0  0  0  0  0  0  0  0  0
    2.3472   -9.3291    6.9833 C   0  0  1  0  0  0  0  0  0  0  0  0
    3.7108   -9.4566    7.3281 O   0  0  0  0  0  0  0  0  0  0  0  0
    1.8976   -7.8345    6.9589 C   0  0  0  0  0  0  0  0  0  0  0  0
    0.3523   -7.7976    7.0641 C   0  0  0  0  0  0  0  0  0  0  0  0
    2.3686   -7.1129    8.2522 C   0  0  0  0  0  0  0  0  0  0  0  0
    2.4110   -7.0802    5.6596 C   0  0  1  0  0  0  0  0  0  0  0  0
    3.8936   -6.6394    5.7697 C   0  0  0  0  0  0  0  0  0  0  0  0
    4.4693   -5.9212    4.5328 C   0  0  0  0  0  0  0  0  0  0  0  0
    4.3714   -6.6755    3.1794 C   0  0  1  0  0  0  0  0  0  0  0  0
    5.2939   -7.9257    3.2921 C   0  0  0  0  0  0  0  0  0  0  0  0
    4.8795   -5.8342    1.8901 C   0  0  1  0  0  0  0  0  0  0  0  0
    5.0006   -6.7726    0.6635 C   0  0  0  0  0  0  0  0  0  0  0  0
    6.2984   -5.1997    2.1531 C   0  0  0  0  0  0  0  0  0  0  0  0
    6.7252   -4.0327    1.2420 C   0  0  0  0  0  0  0  0  0  0  0  0
    4.1315   -3.1163    5.3163 H   0  0  0  0  0  0  0  0  0  0  0  0
    3.8431   -1.5477    4.5792 H   0  0  0  0  0  0  0  0  0  0  0  0
    5.4811   -2.0055    5.1300 H   0  0  0  0  0  0  0  0  0  0  0  0
    7.0095   -1.2822    0.4871 H   0  0  0  0  0  0  0  0  0  0  0  0
    6.7891   -2.4315   -0.7846 H   0  0  0  0  0  0  0  0  0  0  0  0
    4.7575   -0.3503    0.1956 H   0  0  0  0  0  0  0  0  0  0  0  0
    5.6557   -0.2950   -1.2793 H   0  0  0  0  0  0  0  0  0  0  0  0
    3.3499   -1.0554   -1.6057 H   0  0  0  0  0  0  0  0  0  0  0  0
    5.3591   -3.2424   -2.3471 H   0  0  0  0  0  0  0  0  0  0  0  0
    5.1742   -1.6984   -3.1678 H   0  0  0  0  0  0  0  0  0  0  0  0
    3.8575   -2.8479   -3.1786 H   0  0  0  0  0  0  0  0  0  0  0  0
    2.9272   -2.1127    0.4772 H   0  0  0  0  0  0  0  0  0  0  0  0
    2.7644   -4.2506   -1.7119 H   0  0  0  0  0  0  0  0  0  0  0  0
    1.7229   -2.8469   -1.6620 H   0  0  0  0  0  0  0  0  0  0  0  0
    1.6517   -4.0696   -0.4095 H   0  0  0  0  0  0  0  0  0  0  0  0
    4.8376   -4.2408   -0.3838 H   0  0  0  0  0  0  0  0  0  0  0  0
    2.0007   -3.8464    1.6847 H   0  0  0  0  0  0  0  0  0  0  0  0
    1.7420   -5.1915    3.7161 H   0  0  0  0  0  0  0  0  0  0  0  0
    1.0665   -5.9663    2.3072 H   0  0  0  0  0  0  0  0  0  0  0  0
    2.7227   -7.6432    2.1921 H   0  0  0  0  0  0  0  0  0  0  0  0
    0.1189   -8.7402    4.3987 H   0  0  0  0  0  0  0  0  0  0  0  0
    0.5109   -8.0968    2.8629 H   0  0  0  0  0  0  0  0  0  0  0  0
    0.1025   -7.0116    4.1967 H   0  0  0  0  0  0  0  0  0  0  0  0
    2.4682   -9.8455    3.5120 H   0  0  0  0  0  0  0  0  0  0  0  0
    3.7286   -9.3324    4.5861 H   0  0  0  0  0  0  0  0  0  0  0  0
    1.0266  -10.2233    5.5280 H   0  0  0  0  0  0  0  0  0  0  0  0
    2.1948  -11.8260    6.3330 H   0  0  0  0  0  0  0  0  0  0  0  0
    1.7960   -9.8541    7.7681 H   0  0  0  0  0  0  0  0  0  0  0  0
    3.8981  -10.3905    7.3442 H   0  0  0  0  0  0  0  0  0  0  0  0
   -0.0483   -6.8359    6.7477 H   0  0  0  0  0  0  0  0  0  0  0  0
    0.0168   -7.9743    8.0875 H   0  0  0  0  0  0  0  0  0  0  0  0
   -0.1293   -8.5762    6.4772 H   0  0  0  0  0  0  0  0  0  0  0  0
    2.0598   -6.0673    8.2485 H   0  0  0  0  0  0  0  0  0  0  0  0
    3.4504   -7.1370    8.3749 H   0  0  0  0  0  0  0  0  0  0  0  0
    1.9524   -7.5819    9.1437 H   0  0  0  0  0  0  0  0  0  0  0  0
    1.8440   -6.1506    5.6455 H   0  0  0  0  0  0  0  0  0  0  0  0
    3.9814   -5.9133    6.5732 H   0  0  0  0  0  0  0  0  0  0  0  0
    4.5230   -7.4735    6.0621 H   0  0  0  0  0  0  0  0  0  0  0  0
    3.9028   -5.0059    4.4203 H   0  0  0  0  0  0  0  0  0  0  0  0
    5.4952   -5.6589    4.7838 H   0  0  0  0  0  0  0  0  0  0  0  0
    6.3086   -7.7402    2.9458 H   0  0  0  0  0  0  0  0  0  0  0  0
    4.8983   -8.7614    2.7097 H   0  0  0  0  0  0  0  0  0  0  0  0
    5.4507   -8.2569    4.3138 H   0  0  0  0  0  0  0  0  0  0  0  0
    5.6785   -7.6073    0.8287 H   0  0  0  0  0  0  0  0  0  0  0  0
    5.3973   -6.2587   -0.2084 H   0  0  0  0  0  0  0  0  0  0  0  0
    4.0313   -7.1797    0.3768 H   0  0  0  0  0  0  0  0  0  0  0  0
    6.3851   -4.8134    3.1599 H   0  0  0  0  0  0  0  0  0  0  0  0
    7.0814   -5.9571    2.1027 H   0  0  0  0  0  0  0  0  0  0  0  0
    6.9795   -4.4536    0.2680 H   0  0  0  0  0  0  0  0  0  0  0  0
    7.6515   -3.6091    1.6209 H   0  0  0  0  0  0  0  0  0  0  0  0
  1  2  1  0
  1 36  1  0
  1 37  1  0
  1 38  1  0
  2  3  1  0
  3  4  2  0
  5  3  1  1
  5 12  1  0
  5 35  1  0
  5  6  1  0
  6  7  1  0
  6 39  1  0
  6 40  1  0
  7  8  1  0
  7 41  1  0
  7 42  1  0
  8  9  1  0
  8 10  1  0
  8 43  1  6
  9 44  1  0
  9 45  1  0
  9 46  1  0
 10 11  1  0
 10 12  1  0
 10 47  1  1
 11 48  1  0
 11 49  1  0
 11 50  1  0
 12 13  1  0
 12 51  1  6
 13 32  1  0
 13 14  2  0
 14 15  1  0
 14 52  1  0
 15 16  1  0
 15 53  1  0
 15 54  1  0
 16 30  1  0
 16 17  1  0
 16 55  1  6
 17 27  1  0
 17 18  1  6
 17 19  1  0
 18 56  1  0
 18 57  1  0
 18 58  1  0
 19 20  1  0
 19 59  1  0
 19 60  1  0
 20 21  1  0
 20 22  1  0
 20 61  1  6
 21 62  1  0
 22 23  1  0
 22 24  1  0
 22 63  1  1
 23 64  1  0
 24 25  1  0
 24 26  1  0
 24 27  1  0
 25 65  1  0
 25 66  1  0
 25 67  1  0
 26 68  1  0
 26 69  1  0
 26 70  1  0
 27 28  1  0
 27 71  1  6
 28 29  1  0
 28 72  1  0
 28 73  1  0
 29 30  1  0
 29 74  1  0
 29 75  1  0
 30 31  1  1
 30 32  1  0
 31 76  1  0
 31 77  1  0
 31 78  1  0
 32 33  1  6
 32 34  1  0
 33 79  1  0
 33 80  1  0
 33 81  1  0
 34 35  1  0
 34 82  1  0
 34 83  1  0
 35 84  1  0
 35 85  1  0
M  END
>  <i_m_ct_stereo_status>  (78) 
1

>  <s_m_source_file>  (78) 
/var/tmp/pbs.5076255.sched01/tmpj20d55gn/0_c3see42.sdf

>  <i_m_source_file_index>  (78) 
31

>  <i_lp_mmshare_version>  (78) 
48012

>  <i_f3d_flags>  (78) 
0

>  <s_epik_input>  (78) 
W0NIM11PQyg9TylbQ0BAXTEyW0NASF0oW0NASF0oW0NIM10pW0NASF0oW0NIM10pW0NIMl1bQ0gyXTEpQz0zW0NAQF0oW0NIM10pKFtDSDJdW0NIMl0yKVtDQF00KFtDSDNdKVtDQEhdKFtDSDJdW0NIXTMpW0NAXTUoW0NIM10pW0NASF0oW0NIMl1bQ0gyXTQpQyhbQ0gzXSkoW0NIM10pW0NASF0oW09IXSlbQ0BASF0oW0NIMl01KVtPSF0=

>  <s_epik_cmdline>  (78) 
J2VwaWtfcHl0aG9uJywgJy1waHQnLCAnMi4wJywgJy1waCcsICc3LjAnLCAnLXRuJywgJzgnLCAnLW1hJywgJzIwMCcsICctaW1hZScsICc8aW5maWxlLm1hZT4nLCAnLW9tYWUnLCAnPG91dGZpbGUubWFlPic=

>  <r_lp_tautomer_probability>  (78) 
1

>  <r_epik_Ionization_Penalty>  (78) 
1.42687e-06

>  <r_epik_Ionization_Penalty_Charging>  (78) 
0

>  <r_epik_Ionization_Penalty_Neutral>  (78) 
1.42687e-06

>  <r_epik_State_Penalty>  (78) 
-0

>  <r_epik_Charging_Adjusted_Penalty>  (78) 
0

>  <i_epik_Tot_Q>  (78) 
0

>  <i_epik_Tot_abs_Q>  (78) 
0

>  <s_epik_Chemistry_Notes>  (78) 
This compound has an ester and may undergo hydrolysis at high or low pH.

>  <s_lp_Force_Field>  (78) 
OPLS3e

>  <r_lp_Energy>  (78) 
100.007

>  <b_lp_Chiralities_Consistent>  (78) 
1

>  <s_lp_Variant>  (78) 
20:0-1

>  <s_i_glide_gridfile>  (78) 
pfpi4k_grid

>  <i_i_glide_lignum>  (78) 
31

>  <i_i_glide_rotatable_bonds>  (78) 
4

>  <r_i_docking_score>  (78) 
-2.67344

>  <r_i_glide_ligand_efficiency>  (78) 
-0.0763841

>  <r_i_glide_ligand_efficiency_sa>  (78) 
-0.249857

>  <r_i_glide_ligand_efficiency_ln>  (78) 
-0.58688

>  <r_i_glide_gscore>  (78) 
-2.67344

>  <r_i_glide_lipo>  (78) 
-0.525009

>  <r_i_glide_hbond>  (78) 
0

>  <r_i_glide_metal>  (78) 
-0

>  <r_i_glide_rewards>  (78) 
-0.175649

>  <r_i_glide_evdw>  (78) 
-26.2347

>  <r_i_glide_ecoul>  (78) 
-4.97896

>  <r_i_glide_erotb>  (78) 
0.0857918

>  <r_i_glide_esite>  (78) 
0

>  <r_i_glide_emodel>  (78) 
-34.1952

>  <r_i_glide_energy>  (78) 
-31.2136

>  <r_i_glide_einternal>  (78) 
4.35131

>  <r_i_glide_intrahb_reward>  (78) 
-0

>  <i_i_glide_confnum>  (78) 
3

>  <i_i_glide_posenum>  (78) 
3

>  <r_i_glide_eff_state_penalty>  (78) 
0

>  <ligand_id>  (78) 
20

>  <original_smiles>  (78) 
COC(=O)C12CCC(C)C(C)C1C1=CCC3C4(C)CC(O)C(O)C(C)(C)C4CCC3(C)C1(C)CC2

>  <smiles>  (78) 
[H]OC1([H])C([H])([H])C2(C([H])([H])[H])C([H])(C([H])([H])C([H])([H])C3(C([H])([H])[H])C2([H])C([H])([H])C([H])=C2C4([H])C([H])(C([H])([H])[H])C([H])(C([H])([H])[H])C([H])([H])C([H])([H])C4(C(=O)OC([H])([H])[H])C([H])([H])C([H])([H])C23C([H])([H])[H])C(C([H])([H])[H])(C([H])([H])[H])C1([H])O[H]

$$$$
20:0:1
     RDKit          3D

 85 89  0  0  1  0  0  0  0  0999 V2000
    3.6543   -3.2723    4.8235 C   0  0  0  0  0  0  0  0  0  0  0  0
    4.2140   -3.5787    3.5551 O   0  0  0  0  0  0  0  0  0  0  0  0
    5.0108   -2.7119    2.9186 C   0  0  0  0  0  0  0  0  0  0  0  0
    5.3000   -1.6239    3.3731 O   0  0  0  0  0  0  0  0  0  0  0  0
    5.5819   -3.2115    1.5261 C   0  0  2  0  0  0  0  0  0  0  0  0
    6.4407   -2.0744    0.8868 C   0  0  0  0  0  0  0  0  0  0  0  0
    5.6028   -0.9174    0.3431 C   0  0  0  0  0  0  0  0  0  0  0  0
    4.6543   -1.4268   -0.7347 C   0  0  1  0  0  0  0  0  0  0  0  0
    5.4733   -1.8692   -1.9577 C   0  0  0  0  0  0  0  0  0  0  0  0
    3.7023   -2.5183   -0.1787 C   0  0  1  0  0  0  0  0  0  0  0  0
    2.8027   -3.0107   -1.3463 C   0  0  0  0  0  0  0  0  0  0  0  0
    4.4866   -3.6708    0.5224 C   0  0  2  0  0  0  0  0  0  0  0  0
    3.6559   -4.8435    1.0943 C   0  0  0  0  0  0  0  0  0  0  0  0
    2.3431   -4.7656    1.3000 C   0  0  0  0  0  0  0  0  0  0  0  0
    1.4547   -5.8915    1.7407 C   0  0  0  0  0  0  0  0  0  0  0  0
    2.1146   -7.3055    1.8823 C   0  0  2  0  0  0  0  0  0  0  0  0
    1.1315   -8.2417    2.7022 C   0  0  1  0  0  0  0  0  0  0  0  0
   -0.2676   -8.0616    2.0345 C   0  0  0  0  0  0  0  0  0  0  0  0
    1.5010   -9.7443    2.6034 C   0  0  0  0  0  0  0  0  0  0  0  0
    0.6099  -10.6376    3.4599 C   0  0  1  0  0  0  0  0  0  0  0  0
    0.9764  -11.9558    3.2894 O   0  0  0  0  0  0  0  0  0  0  0  0
    0.6298  -10.2805    4.9488 C   0  0  1  0  0  0  0  0  0  0  0  0
    1.8497  -10.6551    5.5667 O   0  0  0  0  0  0  0  0  0  0  0  0
    0.2731   -8.7851    5.1480 C   0  0  0  0  0  0  0  0  0  0  0  0
   -1.2310   -8.5948    4.8546 C   0  0  0  0  0  0  0  0  0  0  0  0
    0.4234   -8.4224    6.6502 C   0  0  0  0  0  0  0  0  0  0  0  0
    1.1088   -7.8343    4.2217 C   0  0  1  0  0  0  0  0  0  0  0  0
    2.5358   -7.6145    4.7528 C   0  0  0  0  0  0  0  0  0  0  0  0
    3.4229   -6.7267    3.8719 C   0  0  0  0  0  0  0  0  0  0  0  0
    3.5939   -7.1607    2.3948 C   0  0  1  0  0  0  0  0  0  0  0  0
    4.3885   -8.5045    2.4012 C   0  0  0  0  0  0  0  0  0  0  0  0
    4.4309   -6.1199    1.4876 C   0  0  1  0  0  0  0  0  0  0  0  0
    4.7588   -6.7680    0.1408 C   0  0  0  0  0  0  0  0  0  0  0  0
    5.7885   -5.7298    2.1743 C   0  0  0  0  0  0  0  0  0  0  0  0
    6.4773   -4.4753    1.6280 C   0  0  0  0  0  0  0  0  0  0  0  0
    3.0293   -4.0909    5.1865 H   0  0  0  0  0  0  0  0  0  0  0  0
    3.0284   -2.3907    4.7540 H   0  0  0  0  0  0  0  0  0  0  0  0
    4.4398   -3.1168    5.5539 H   0  0  0  0  0  0  0  0  0  0  0  0
    7.0854   -1.6131    1.6312 H   0  0  0  0  0  0  0  0  0  0  0  0
    7.1219   -2.4616    0.1176 H   0  0  0  0  0  0  0  0  0  0  0  0
    5.0364   -0.4363    1.1351 H   0  0  0  0  0  0  0  0  0  0  0  0
    6.2488   -0.1271   -0.0366 H   0  0  0  0  0  0  0  0  0  0  0  0
    4.0567   -0.5775   -1.0642 H   0  0  0  0  0  0  0  0  0  0  0  0
    6.0359   -2.7931   -1.8067 H   0  0  0  0  0  0  0  0  0  0  0  0
    6.1864   -1.0767   -2.1756 H   0  0  0  0  0  0  0  0  0  0  0  0
    4.8513   -1.9894   -2.8443 H   0  0  0  0  0  0  0  0  0  0  0  0
    3.0763   -2.0162    0.5613 H   0  0  0  0  0  0  0  0  0  0  0  0
    3.3425   -3.6394   -2.0593 H   0  0  0  0  0  0  0  0  0  0  0  0
    2.4096   -2.1615   -1.9151 H   0  0  0  0  0  0  0  0  0  0  0  0
    1.9302   -3.5696   -1.0112 H   0  0  0  0  0  0  0  0  0  0  0  0
    5.0221   -4.0931   -0.3252 H   0  0  0  0  0  0  0  0  0  0  0  0
    1.8255   -3.8351    1.1110 H   0  0  0  0  0  0  0  0  0  0  0  0
    1.0139   -5.5395    2.6705 H   0  0  0  0  0  0  0  0  0  0  0  0
    0.6606   -5.9396    1.0007 H   0  0  0  0  0  0  0  0  0  0  0  0
    2.1710   -7.7187    0.8840 H   0  0  0  0  0  0  0  0  0  0  0  0
   -0.9280   -8.9158    2.0944 H   0  0  0  0  0  0  0  0  0  0  0  0
   -0.1673   -7.9463    0.9573 H   0  0  0  0  0  0  0  0  0  0  0  0
   -0.8216   -7.1974    2.4016 H   0  0  0  0  0  0  0  0  0  0  0  0
    1.4766  -10.0702    1.5678 H   0  0  0  0  0  0  0  0  0  0  0  0
    2.4941   -9.9576    2.9604 H   0  0  0  0  0  0  0  0  0  0  0  0
   -0.4087  -10.6144    3.1014 H   0  0  0  0  0  0  0  0  0  0  0  0
    1.8254  -12.0918    3.7031 H   0  0  0  0  0  0  0  0  0  0  0  0
   -0.1161  -10.8891    5.4612 H   0  0  0  0  0  0  0  0  0  0  0  0
    1.6693  -11.2506    6.2835 H   0  0  0  0  0  0  0  0  0  0  0  0
   -1.5352   -7.5427    4.7713 H   0  0  0  0  0  0  0  0  0  0  0  0
   -1.8108   -9.0545    5.6452 H   0  0  0  0  0  0  0  0  0  0  0  0
   -1.5951   -9.1017    3.9680 H   0  0  0  0  0  0  0  0  0  0  0  0
    0.1801   -7.3703    6.8295 H   0  0  0  0  0  0  0  0  0  0  0  0
    1.4364   -8.5957    7.0164 H   0  0  0  0  0  0  0  0  0  0  0  0
   -0.2315   -9.0363    7.2769 H   0  0  0  0  0  0  0  0  0  0  0  0
    0.6085   -6.8647    4.3059 H   0  0  0  0  0  0  0  0  0  0  0  0
    2.4695   -7.0939    5.7043 H   0  0  0  0  0  0  0  0  0  0  0  0
    3.0188   -8.5637    4.9686 H   0  0  0  0  0  0  0  0  0  0  0  0
    2.9495   -5.7547    3.8496 H   0  0  0  0  0  0  0  0  0  0  0  0
    4.3729   -6.6359    4.3881 H   0  0  0  0  0  0  0  0  0  0  0  0
    5.4641   -8.3662    2.3388 H   0  0  0  0  0  0  0  0  0  0  0  0
    4.0953   -9.1455    1.5653 H   0  0  0  0  0  0  0  0  0  0  0  0
    4.2845   -9.0644    3.3243 H   0  0  0  0  0  0  0  0  0  0  0  0
    5.3208   -7.6878    0.2619 H   0  0  0  0  0  0  0  0  0  0  0  0
    5.3832   -6.1378   -0.4837 H   0  0  0  0  0  0  0  0  0  0  0  0
    3.8605   -6.9880   -0.4237 H   0  0  0  0  0  0  0  0  0  0  0  0
    5.6768   -5.5670    3.2414 H   0  0  0  0  0  0  0  0  0  0  0  0
    6.5034   -6.5494    2.1081 H   0  0  0  0  0  0  0  0  0  0  0  0
    6.8893   -4.7136    0.6415 H   0  0  0  0  0  0  0  0  0  0  0  0
    7.3538   -4.3317    2.2364 H   0  0  0  0  0  0  0  0  0  0  0  0
  1  2  1  0
  1 36  1  0
  1 37  1  0
  1 38  1  0
  2  3  1  0
  3  4  2  0
  5  3  1  1
  5 12  1  0
  5 35  1  0
  5  6  1  0
  6  7  1  0
  6 39  1  0
  6 40  1  0
  7  8  1  0
  7 41  1  0
  7 42  1  0
  8  9  1  0
  8 10  1  0
  8 43  1  6
  9 44  1  0
  9 45  1  0
  9 46  1  0
 10 11  1  0
 10 12  1  0
 10 47  1  1
 11 48  1  0
 11 49  1  0
 11 50  1  0
 12 13  1  0
 12 51  1  6
 13 32  1  0
 13 14  2  0
 14 15  1  0
 14 52  1  0
 15 16  1  0
 15 53  1  0
 15 54  1  0
 16 30  1  0
 16 17  1  0
 16 55  1  6
 17 27  1  0
 17 18  1  6
 17 19  1  0
 18 56  1  0
 18 57  1  0
 18 58  1  0
 19 20  1  0
 19 59  1  0
 19 60  1  0
 20 21  1  0
 20 22  1  0
 20 61  1  6
 21 62  1  0
 22 23  1  0
 22 24  1  0
 22 63  1  1
 23 64  1  0
 24 25  1  0
 24 26  1  0
 24 27  1  0
 25 65  1  0
 25 66  1  0
 25 67  1  0
 26 68  1  0
 26 69  1  0
 26 70  1  0
 27 28  1  0
 27 71  1  6
 28 29  1  0
 28 72  1  0
 28 73  1  0
 29 30  1  0
 29 74  1  0
 29 75  1  0
 30 31  1  1
 30 32  1  0
 31 76  1  0
 31 77  1  0
 31 78  1  0
 32 33  1  6
 32 34  1  0
 33 79  1  0
 33 80  1  0
 33 81  1  0
 34 35  1  0
 34 82  1  0
 34 83  1  0
 35 84  1  0
 35 85  1  0
M  END
>  <i_m_ct_stereo_status>  (79) 
1

>  <s_m_source_file>  (79) 
/var/tmp/pbs.5076255.sched01/tmpj20d55gn/0_c3see42.sdf

>  <i_m_source_file_index>  (79) 
31

>  <i_lp_mmshare_version>  (79) 
48012

>  <i_f3d_flags>  (79) 
0

>  <s_epik_input>  (79) 
W0NIM11PQyg9TylbQ0BAXTEyW0NASF0oW0NASF0oW0NIM10pW0NASF0oW0NIM10pW0NIMl1bQ0gyXTEpQz0zW0NAQF0oW0NIM10pKFtDSDJdW0NIMl0yKVtDQF00KFtDSDNdKVtDQEhdKFtDSDJdW0NIXTMpW0NAXTUoW0NIM10pW0NASF0oW0NIMl1bQ0gyXTQpQyhbQ0gzXSkoW0NIM10pW0NASF0oW09IXSlbQ0BASF0oW0NIMl01KVtPSF0=

>  <s_epik_cmdline>  (79) 
J2VwaWtfcHl0aG9uJywgJy1waHQnLCAnMi4wJywgJy1waCcsICc3LjAnLCAnLXRuJywgJzgnLCAnLW1hJywgJzIwMCcsICctaW1hZScsICc8aW5maWxlLm1hZT4nLCAnLW9tYWUnLCAnPG91dGZpbGUubWFlPic=

>  <r_lp_tautomer_probability>  (79) 
1

>  <r_epik_Ionization_Penalty>  (79) 
1.42687e-06

>  <r_epik_Ionization_Penalty_Charging>  (79) 
0

>  <r_epik_Ionization_Penalty_Neutral>  (79) 
1.42687e-06

>  <r_epik_State_Penalty>  (79) 
-0

>  <r_epik_Charging_Adjusted_Penalty>  (79) 
0

>  <i_epik_Tot_Q>  (79) 
0

>  <i_epik_Tot_abs_Q>  (79) 
0

>  <s_epik_Chemistry_Notes>  (79) 
This compound has an ester and may undergo hydrolysis at high or low pH.

>  <s_lp_Force_Field>  (79) 
OPLS3e

>  <r_lp_Energy>  (79) 
100.007

>  <b_lp_Chiralities_Consistent>  (79) 
1

>  <s_lp_Variant>  (79) 
20:0-1

>  <s_i_glide_gridfile>  (79) 
pfpi4k_grid

>  <i_i_glide_lignum>  (79) 
31

>  <i_i_glide_rotatable_bonds>  (79) 
4

>  <r_i_docking_score>  (79) 
-2.57804

>  <r_i_glide_ligand_efficiency>  (79) 
-0.0736582

>  <r_i_glide_ligand_efficiency_sa>  (79) 
-0.240941

>  <r_i_glide_ligand_efficiency_ln>  (79) 
-0.565937

>  <r_i_glide_gscore>  (79) 
-2.57804

>  <r_i_glide_lipo>  (79) 
-0.636994

>  <r_i_glide_hbond>  (79) 
0

>  <r_i_glide_metal>  (79) 
-0

>  <r_i_glide_rewards>  (79) 
-0.162535

>  <r_i_glide_evdw>  (79) 
-25.2237

>  <r_i_glide_ecoul>  (79) 
-4.02076

>  <r_i_glide_erotb>  (79) 
0.0857918

>  <r_i_glide_esite>  (79) 
0

>  <r_i_glide_emodel>  (79) 
-30.7911

>  <r_i_glide_energy>  (79) 
-29.2445

>  <r_i_glide_einternal>  (79) 
5.077

>  <r_i_glide_intrahb_reward>  (79) 
-0

>  <i_i_glide_confnum>  (79) 
2

>  <i_i_glide_posenum>  (79) 
2

>  <r_i_glide_eff_state_penalty>  (79) 
0

>  <ligand_id>  (79) 
20

>  <original_smiles>  (79) 
COC(=O)C12CCC(C)C(C)C1C1=CCC3C4(C)CC(O)C(O)C(C)(C)C4CCC3(C)C1(C)CC2

>  <smiles>  (79) 
[H]OC1([H])C([H])([H])C2(C([H])([H])[H])C([H])(C([H])([H])C([H])([H])C3(C([H])([H])[H])C2([H])C([H])([H])C([H])=C2C4([H])C([H])(C([H])([H])[H])C([H])(C([H])([H])[H])C([H])([H])C([H])([H])C4(C(=O)OC([H])([H])[H])C([H])([H])C([H])([H])C23C([H])([H])[H])C(C([H])([H])[H])(C([H])([H])[H])C1([H])O[H]

$$$$
20:0:2
     RDKit          3D

 85 89  0  0  1  0  0  0  0  0999 V2000
    3.2300   -1.0087    3.6787 C   0  0  0  0  0  0  0  0  0  0  0  0
    3.8432   -1.5862    2.5378 O   0  0  0  0  0  0  0  0  0  0  0  0
    4.8889   -2.4088    2.6697 C   0  0  0  0  0  0  0  0  0  0  0  0
    5.3627   -2.7220    3.7591 O   0  0  0  0  0  0  0  0  0  0  0  0
    5.4754   -2.8999    1.3153 C   0  0  2  0  0  0  0  0  0  0  0  0
    6.2219   -1.7349    0.6250 C   0  0  0  0  0  0  0  0  0  0  0  0
    5.2891   -0.7001    0.0018 C   0  0  0  0  0  0  0  0  0  0  0  0
    4.3654   -1.3754   -1.0284 C   0  0  1  0  0  0  0  0  0  0  0  0
    5.1509   -1.8233   -2.2677 C   0  0  0  0  0  0  0  0  0  0  0  0
    3.5139   -2.4890   -0.3787 C   0  0  1  0  0  0  0  0  0  0  0  0
    2.6226   -3.1166   -1.4736 C   0  0  0  0  0  0  0  0  0  0  0  0
    4.4097   -3.5172    0.3840 C   0  0  2  0  0  0  0  0  0  0  0  0
    3.7006   -4.6886    1.0963 C   0  0  0  0  0  0  0  0  0  0  0  0
    2.3793   -4.7027    1.3327 C   0  0  0  0  0  0  0  0  0  0  0  0
    1.6038   -5.8827    1.8549 C   0  0  0  0  0  0  0  0  0  0  0  0
    2.3829   -7.2197    2.0608 C   0  0  2  0  0  0  0  0  0  0  0  0
    1.5039   -8.1983    2.9632 C   0  0  1  0  0  0  0  0  0  0  0  0
    0.0829   -8.2113    2.3168 C   0  0  0  0  0  0  0  0  0  0  0  0
    1.9851   -9.6750    2.9403 C   0  0  0  0  0  0  0  0  0  0  0  0
    1.1874  -10.5913    3.8751 C   0  0  1  0  0  0  0  0  0  0  0  0
    1.7546  -11.8583    3.7877 O   0  0  0  0  0  0  0  0  0  0  0  0
    1.1998  -10.1435    5.3410 C   0  0  1  0  0  0  0  0  0  0  0  0
    2.4628  -10.3961    5.9292 O   0  0  0  0  0  0  0  0  0  0  0  0
    0.7609   -8.6666    5.4778 C   0  0  0  0  0  0  0  0  0  0  0  0
   -0.7625   -8.6562    5.2491 C   0  0  0  0  0  0  0  0  0  0  0  0
    0.9256   -8.1900    6.9454 C   0  0  0  0  0  0  0  0  0  0  0  0
    1.4730   -7.7039    4.4529 C   0  0  1  0  0  0  0  0  0  0  0  0
    2.8885   -7.2915    4.9233 C   0  0  0  0  0  0  0  0  0  0  0  0
    3.6866   -6.3704    3.9781 C   0  0  0  0  0  0  0  0  0  0  0  0
    3.8540   -6.9012    2.5267 C   0  0  1  0  0  0  0  0  0  0  0  0
    4.7488   -8.1840    2.6003 C   0  0  0  0  0  0  0  0  0  0  0  0
    4.5741   -5.8643    1.5273 C   0  0  1  0  0  0  0  0  0  0  0  0
    4.9120   -6.5914    0.2218 C   0  0  0  0  0  0  0  0  0  0  0  0
    5.9081   -5.3288    2.1370 C   0  0  0  0  0  0  0  0  0  0  0  0
    6.4840   -4.0659    1.4705 C   0  0  0  0  0  0  0  0  0  0  0  0
    2.4202   -0.3501    3.3566 H   0  0  0  0  0  0  0  0  0  0  0  0
    3.9443   -0.4139    4.2484 H   0  0  0  0  0  0  0  0  0  0  0  0
    2.8172   -1.7847    4.3212 H   0  0  0  0  0  0  0  0  0  0  0  0
    6.8381   -1.2045    1.3489 H   0  0  0  0  0  0  0  0  0  0  0  0
    6.9151   -2.1041   -0.1329 H   0  0  0  0  0  0  0  0  0  0  0  0
    4.7001   -0.1658    0.7397 H   0  0  0  0  0  0  0  0  0  0  0  0
    5.9026    0.0784   -0.4374 H   0  0  0  0  0  0  0  0  0  0  0  0
    3.6723   -0.6234   -1.3971 H   0  0  0  0  0  0  0  0  0  0  0  0
    5.8302   -2.6581   -2.0780 H   0  0  0  0  0  0  0  0  0  0  0  0
    5.7337   -0.9643   -2.5875 H   0  0  0  0  0  0  0  0  0  0  0  0
    4.4948   -2.0934   -3.0996 H   0  0  0  0  0  0  0  0  0  0  0  0
    2.8442   -1.9826    0.3165 H   0  0  0  0  0  0  0  0  0  0  0  0
    3.1838   -3.7446   -2.1693 H   0  0  0  0  0  0  0  0  0  0  0  0
    2.1475   -2.3279   -2.0616 H   0  0  0  0  0  0  0  0  0  0  0  0
    1.8181   -3.7192   -1.0619 H   0  0  0  0  0  0  0  0  0  0  0  0
    4.9500   -3.9681   -0.4467 H   0  0  0  0  0  0  0  0  0  0  0  0
    1.8174   -3.8286    1.0959 H   0  0  0  0  0  0  0  0  0  0  0  0
    1.1481   -5.5300    2.7745 H   0  0  0  0  0  0  0  0  0  0  0  0
    0.8039   -6.0435    1.1332 H   0  0  0  0  0  0  0  0  0  0  0  0
    2.4563   -7.6922    1.0825 H   0  0  0  0  0  0  0  0  0  0  0  0
   -0.5015   -9.1070    2.4893 H   0  0  0  0  0  0  0  0  0  0  0  0
    0.1582   -8.2024    1.2350 H   0  0  0  0  0  0  0  0  0  0  0  0
   -0.5310   -7.3638    2.6273 H   0  0  0  0  0  0  0  0  0  0  0  0
    1.9679  -10.0775    1.9279 H   0  0  0  0  0  0  0  0  0  0  0  0
    3.0019   -9.7751    3.2838 H   0  0  0  0  0  0  0  0  0  0  0  0
    0.1688  -10.7325    3.5419 H   0  0  0  0  0  0  0  0  0  0  0  0
    2.5648  -11.8269    4.2690 H   0  0  0  0  0  0  0  0  0  0  0  0
    0.5023  -10.7729    5.8964 H   0  0  0  0  0  0  0  0  0  0  0  0
    2.3343  -11.1248    6.5338 H   0  0  0  0  0  0  0  0  0  0  0  0
   -1.1614   -7.6485    5.1145 H   0  0  0  0  0  0  0  0  0  0  0  0
   -1.2776   -9.1469    6.0784 H   0  0  0  0  0  0  0  0  0  0  0  0
   -1.0674   -9.2419    4.3902 H   0  0  0  0  0  0  0  0  0  0  0  0
    0.6005   -7.1518    7.0588 H   0  0  0  0  0  0  0  0  0  0  0  0
    1.9651   -8.2527    7.2742 H   0  0  0  0  0  0  0  0  0  0  0  0
    0.3473   -8.8056    7.6366 H   0  0  0  0  0  0  0  0  0  0  0  0
    0.8910   -6.7842    4.4879 H   0  0  0  0  0  0  0  0  0  0  0  0
    2.8059   -6.7408    5.8561 H   0  0  0  0  0  0  0  0  0  0  0  0
    3.4706   -8.1807    5.1549 H   0  0  0  0  0  0  0  0  0  0  0  0
    3.2142   -5.3865    3.9598 H   0  0  0  0  0  0  0  0  0  0  0  0
    4.6556   -6.2366    4.4543 H   0  0  0  0  0  0  0  0  0  0  0  0
    5.8095   -7.9735    2.4846 H   0  0  0  0  0  0  0  0  0  0  0  0
    4.4867   -8.8992    1.8131 H   0  0  0  0  0  0  0  0  0  0  0  0
    4.7177   -8.7015    3.5524 H   0  0  0  0  0  0  0  0  0  0  0  0
    5.5191   -7.4589    0.4377 H   0  0  0  0  0  0  0  0  0  0  0  0
    5.4911   -5.9803   -0.4650 H   0  0  0  0  0  0  0  0  0  0  0  0
    4.0258   -6.9249   -0.3195 H   0  0  0  0  0  0  0  0  0  0  0  0
    5.7857   -5.0794    3.1837 H   0  0  0  0  0  0  0  0  0  0  0  0
    6.6946   -6.0842    2.1238 H   0  0  0  0  0  0  0  0  0  0  0  0
    6.9036   -4.3333    0.5041 H   0  0  0  0  0  0  0  0  0  0  0  0
    7.3514   -3.7287    2.0378 H   0  0  0  0  0  0  0  0  0  0  0  0
  1  2  1  0
  1 36  1  0
  1 37  1  0
  1 38  1  0
  2  3  1  0
  3  4  2  0
  5  3  1  1
  5 12  1  0
  5 35  1  0
  5  6  1  0
  6  7  1  0
  6 39  1  0
  6 40  1  0
  7  8  1  0
  7 41  1  0
  7 42  1  0
  8  9  1  0
  8 10  1  0
  8 43  1  6
  9 44  1  0
  9 45  1  0
  9 46  1  0
 10 11  1  0
 10 12  1  0
 10 47  1  1
 11 48  1  0
 11 49  1  0
 11 50  1  0
 12 13  1  0
 12 51  1  6
 13 32  1  0
 13 14  2  0
 14 15  1  0
 14 52  1  0
 15 16  1  0
 15 53  1  0
 15 54  1  0
 16 30  1  0
 16 17  1  0
 16 55  1  6
 17 27  1  0
 17 18  1  6
 17 19  1  0
 18 56  1  0
 18 57  1  0
 18 58  1  0
 19 20  1  0
 19 59  1  0
 19 60  1  0
 20 21  1  0
 20 22  1  0
 20 61  1  6
 21 62  1  0
 22 23  1  0
 22 24  1  0
 22 63  1  1
 23 64  1  0
 24 25  1  0
 24 26  1  0
 24 27  1  0
 25 65  1  0
 25 66  1  0
 25 67  1  0
 26 68  1  0
 26 69  1  0
 26 70  1  0
 27 28  1  0
 27 71  1  6
 28 29  1  0
 28 72  1  0
 28 73  1  0
 29 30  1  0
 29 74  1  0
 29 75  1  0
 30 31  1  1
 30 32  1  0
 31 76  1  0
 31 77  1  0
 31 78  1  0
 32 33  1  6
 32 34  1  0
 33 79  1  0
 33 80  1  0
 33 81  1  0
 34 35  1  0
 34 82  1  0
 34 83  1  0
 35 84  1  0
 35 85  1  0
M  END
>  <i_m_ct_stereo_status>  (80) 
1

>  <s_m_source_file>  (80) 
/var/tmp/pbs.5076255.sched01/tmpj20d55gn/0_c3see42.sdf

>  <i_m_source_file_index>  (80) 
31

>  <i_lp_mmshare_version>  (80) 
48012

>  <i_f3d_flags>  (80) 
0

>  <s_epik_input>  (80) 
W0NIM11PQyg9TylbQ0BAXTEyW0NASF0oW0NASF0oW0NIM10pW0NASF0oW0NIM10pW0NIMl1bQ0gyXTEpQz0zW0NAQF0oW0NIM10pKFtDSDJdW0NIMl0yKVtDQF00KFtDSDNdKVtDQEhdKFtDSDJdW0NIXTMpW0NAXTUoW0NIM10pW0NASF0oW0NIMl1bQ0gyXTQpQyhbQ0gzXSkoW0NIM10pW0NASF0oW09IXSlbQ0BASF0oW0NIMl01KVtPSF0=

>  <s_epik_cmdline>  (80) 
J2VwaWtfcHl0aG9uJywgJy1waHQnLCAnMi4wJywgJy1waCcsICc3LjAnLCAnLXRuJywgJzgnLCAnLW1hJywgJzIwMCcsICctaW1hZScsICc8aW5maWxlLm1hZT4nLCAnLW9tYWUnLCAnPG91dGZpbGUubWFlPic=

>  <r_lp_tautomer_probability>  (80) 
1

>  <r_epik_Ionization_Penalty>  (80) 
1.42687e-06

>  <r_epik_Ionization_Penalty_Charging>  (80) 
0

>  <r_epik_Ionization_Penalty_Neutral>  (80) 
1.42687e-06

>  <r_epik_State_Penalty>  (80) 
-0

>  <r_epik_Charging_Adjusted_Penalty>  (80) 
0

>  <i_epik_Tot_Q>  (80) 
0

>  <i_epik_Tot_abs_Q>  (80) 
0

>  <s_epik_Chemistry_Notes>  (80) 
This compound has an ester and may undergo hydrolysis at high or low pH.

>  <s_lp_Force_Field>  (80) 
OPLS3e

>  <r_lp_Energy>  (80) 
100.007

>  <b_lp_Chiralities_Consistent>  (80) 
1

>  <s_lp_Variant>  (80) 
20:0-1

>  <s_i_glide_gridfile>  (80) 
pfpi4k_grid

>  <i_i_glide_lignum>  (80) 
31

>  <i_i_glide_rotatable_bonds>  (80) 
4

>  <r_i_docking_score>  (80) 
-2.44317

>  <r_i_glide_ligand_efficiency>  (80) 
-0.0698049

>  <r_i_glide_ligand_efficiency_sa>  (80) 
-0.228337

>  <r_i_glide_ligand_efficiency_ln>  (80) 
-0.536331

>  <r_i_glide_gscore>  (80) 
-2.44317

>  <r_i_glide_lipo>  (80) 
-0.606606

>  <r_i_glide_hbond>  (80) 
0

>  <r_i_glide_metal>  (80) 
-0

>  <r_i_glide_rewards>  (80) 
-0.15803

>  <r_i_glide_evdw>  (80) 
-26.6216

>  <r_i_glide_ecoul>  (80) 
-2.88832

>  <r_i_glide_erotb>  (80) 
0.0857918

>  <r_i_glide_esite>  (80) 
0

>  <r_i_glide_emodel>  (80) 
-31.8027

>  <r_i_glide_energy>  (80) 
-29.51

>  <r_i_glide_einternal>  (80) 
2.41232

>  <r_i_glide_intrahb_reward>  (80) 
-0

>  <i_i_glide_confnum>  (80) 
3

>  <i_i_glide_posenum>  (80) 
18

>  <r_i_glide_eff_state_penalty>  (80) 
0

>  <ligand_id>  (80) 
20

>  <original_smiles>  (80) 
COC(=O)C12CCC(C)C(C)C1C1=CCC3C4(C)CC(O)C(O)C(C)(C)C4CCC3(C)C1(C)CC2

>  <smiles>  (80) 
[H]OC1([H])C([H])([H])C2(C([H])([H])[H])C([H])(C([H])([H])C([H])([H])C3(C([H])([H])[H])C2([H])C([H])([H])C([H])=C2C4([H])C([H])(C([H])([H])[H])C([H])(C([H])([H])[H])C([H])([H])C([H])([H])C4(C(=O)OC([H])([H])[H])C([H])([H])C([H])([H])C23C([H])([H])[H])C(C([H])([H])[H])(C([H])([H])[H])C1([H])O[H]

$$$$
21:0:0
     RDKit          3D

 27 27  0  0  1  0  0  0  0  0999 V2000
   -1.7467    3.4479    9.2407 C   0  0  0  0  0  0  0  0  0  0  0  0
   -2.5827    3.7182    7.9787 C   0  0  0  0  0  0  0  0  0  0  0  0
   -1.9494    3.2056    6.8066 O   0  0  0  0  0  0  0  0  0  0  0  0
   -1.9610    1.8805    6.5622 C   0  0  0  0  0  0  0  0  0  0  0  0
   -2.5534    1.0639    7.2647 O   0  0  0  0  0  0  0  0  0  0  0  0
   -1.1468    1.4782    5.3840 C   0  0  0  0  0  0  0  0  0  0  0  0
   -0.7677    0.1259    5.2464 C   0  0  0  0  0  0  0  0  0  0  0  0
    0.0175   -0.2836    4.1531 C   0  0  0  0  0  0  0  0  0  0  0  0
    0.4263    0.6482    3.1734 C   0  0  0  0  0  0  0  0  0  0  0  0
    1.1503    0.1970    2.0405 N   0  0  0  0  0  0  0  0  0  0  0  0
    2.3904   -0.3458    2.0515 C   0  0  0  0  0  0  0  0  0  0  0  0
    2.6253   -0.9666    0.8812 N   0  0  0  0  0  0  0  0  0  0  0  0
    3.5123   -0.3055    3.2811 S   0  0  0  0  0  0  0  0  0  0  0  0
    0.0347    2.0008    3.2998 C   0  0  0  0  0  0  0  0  0  0  0  0
   -0.7373    2.4138    4.4072 C   0  0  0  0  0  0  0  0  0  0  0  0
   -2.2262    3.8686   10.1236 H   0  0  0  0  0  0  0  0  0  0  0  0
   -0.7528    3.8842    9.1461 H   0  0  0  0  0  0  0  0  0  0  0  0
   -1.6278    2.3814    9.4169 H   0  0  0  0  0  0  0  0  0  0  0  0
   -3.5944    3.3136    8.0779 H   0  0  0  0  0  0  0  0  0  0  0  0
   -2.6964    4.7929    7.8530 H   0  0  0  0  0  0  0  0  0  0  0  0
   -1.0706   -0.6128    5.9786 H   0  0  0  0  0  0  0  0  0  0  0  0
    0.2907   -1.3267    4.0455 H   0  0  0  0  0  0  0  0  0  0  0  0
    0.6595    0.1973    1.1456 H   0  0  0  0  0  0  0  0  0  0  0  0
    1.8803   -1.0281    0.1600 H   0  0  0  0  0  0  0  0  0  0  0  0
    3.4998   -1.4552    0.7624 H   0  0  0  0  0  0  0  0  0  0  0  0
    0.3141    2.7308    2.5400 H   0  0  0  0  0  0  0  0  0  0  0  0
   -1.0332    3.4577    4.4927 H   0  0  0  0  0  0  0  0  0  0  0  0
  1  2  1  0
  1 16  1  0
  1 17  1  0
  1 18  1  0
  2  3  1  0
  2 19  1  0
  2 20  1  0
  3  4  1  0
  4  5  2  0
  4  6  1  0
  6 15  2  0
  6  7  1  0
  7  8  2  0
  7 21  1  0
  8  9  1  0
  8 22  1  0
  9 10  1  0
  9 14  2  0
 10 11  1  0
 10 23  1  0
 11 12  1  0
 11 13  2  0
 12 24  1  0
 12 25  1  0
 14 15  1  0
 14 26  1  0
 15 27  1  0
M  END
>  <i_m_ct_stereo_status>  (81) 
1

>  <s_m_source_file>  (81) 
/var/tmp/pbs.5076255.sched01/tmpj20d55gn/0_c3see42.sdf

>  <i_m_source_file_index>  (81) 
32

>  <i_lp_mmshare_version>  (81) 
48012

>  <i_f3d_flags>  (81) 
0

>  <s_epik_input>  (81) 
W0NIM11bQ0gyXU9DKD1PKWMxW2NIXVtjSF1jKFtjSF1bY0hdMSlbTkhdQyg9UylbTkgyXQ==

>  <s_epik_cmdline>  (81) 
J2VwaWtfcHl0aG9uJywgJy1waHQnLCAnMi4wJywgJy1waCcsICc3LjAnLCAnLXRuJywgJzgnLCAnLW1hJywgJzIwMCcsICctaW1hZScsICc8aW5maWxlLm1hZT4nLCAnLW9tYWUnLCAnPG91dGZpbGUubWFlPic=

>  <r_lp_tautomer_probability>  (81) 
1

>  <r_epik_Ionization_Penalty>  (81) 
5.4347e-07

>  <r_epik_Ionization_Penalty_Charging>  (81) 
0

>  <r_epik_Ionization_Penalty_Neutral>  (81) 
5.4347e-07

>  <r_epik_State_Penalty>  (81) 
-0

>  <r_epik_Charging_Adjusted_Penalty>  (81) 
0

>  <i_epik_Tot_Q>  (81) 
0

>  <i_epik_Tot_abs_Q>  (81) 
0

>  <s_epik_Chemistry_Notes>  (81) 
This compound has an ester and may undergo hydrolysis at high or low pH.

>  <s_lp_Force_Field>  (81) 
OPLS3e

>  <r_lp_Energy>  (81) 
14.0553

>  <b_lp_Chiralities_Consistent>  (81) 
1

>  <s_lp_Variant>  (81) 
21:0-1

>  <s_i_glide_gridfile>  (81) 
pfpi4k_grid

>  <i_i_glide_lignum>  (81) 
32

>  <i_i_glide_rotatable_bonds>  (81) 
5

>  <r_i_docking_score>  (81) 
-3.84409

>  <r_i_glide_ligand_efficiency>  (81) 
-0.256273

>  <r_i_glide_ligand_efficiency_sa>  (81) 
-0.632023

>  <r_i_glide_ligand_efficiency_ln>  (81) 
-1.03669

>  <r_i_glide_gscore>  (81) 
-3.84409

>  <r_i_glide_lipo>  (81) 
-0.0901652

>  <r_i_glide_hbond>  (81) 
-0.370654

>  <r_i_glide_metal>  (81) 
-0

>  <r_i_glide_rewards>  (81) 
-1.89379

>  <r_i_glide_evdw>  (81) 
-14.427

>  <r_i_glide_ecoul>  (81) 
-10.5974

>  <r_i_glide_erotb>  (81) 
1.01059

>  <r_i_glide_esite>  (81) 
-0.189107

>  <r_i_glide_emodel>  (81) 
-30.6661

>  <r_i_glide_energy>  (81) 
-25.0244

>  <r_i_glide_einternal>  (81) 
4.17056

>  <r_i_glide_intrahb_reward>  (81) 
-0

>  <i_i_glide_confnum>  (81) 
4

>  <i_i_glide_posenum>  (81) 
2

>  <r_i_glide_eff_state_penalty>  (81) 
0

>  <ligand_id>  (81) 
21

>  <original_smiles>  (81) 
CCOC(=O)c1ccc(NC(N)=S)cc1

>  <smiles>  (81) 
[H]c1c([H])c(N([H])C(=S)N([H])[H])c([H])c([H])c1C(=O)OC([H])([H])C([H])([H])[H]

$$$$
21:0:1
     RDKit          3D

 27 27  0  0  1  0  0  0  0  0999 V2000
   -2.2715    2.8999    9.2672 C   0  0  0  0  0  0  0  0  0  0  0  0
   -2.9627    3.2413    7.9398 C   0  0  0  0  0  0  0  0  0  0  0  0
   -2.2400    2.7140    6.8355 O   0  0  0  0  0  0  0  0  0  0  0  0
   -1.1371    3.3431    6.3696 C   0  0  0  0  0  0  0  0  0  0  0  0
   -0.7061    4.4066    6.8197 O   0  0  0  0  0  0  0  0  0  0  0  0
   -0.4899    2.5964    5.2689 C   0  0  0  0  0  0  0  0  0  0  0  0
   -1.2288    1.6980    4.4629 C   0  0  0  0  0  0  0  0  0  0  0  0
   -0.6055    0.9983    3.4100 C   0  0  0  0  0  0  0  0  0  0  0  0
    0.7753    1.1619    3.1584 C   0  0  0  0  0  0  0  0  0  0  0  0
    1.3482    0.4207    2.0823 N   0  0  0  0  0  0  0  0  0  0  0  0
    2.5338   -0.2385    2.0329 C   0  0  0  0  0  0  0  0  0  0  0  0
    2.6399   -0.9137    0.8800 N   0  0  0  0  0  0  0  0  0  0  0  0
    3.7557   -0.3365    3.1557 S   0  0  0  0  0  0  0  0  0  0  0  0
    1.5074    2.0886    3.9397 C   0  0  0  0  0  0  0  0  0  0  0  0
    0.8825    2.7883    4.9951 C   0  0  0  0  0  0  0  0  0  0  0  0
   -2.8337    3.2946   10.1135 H   0  0  0  0  0  0  0  0  0  0  0  0
   -1.2702    3.3285    9.3079 H   0  0  0  0  0  0  0  0  0  0  0  0
   -2.1781    1.8223    9.3945 H   0  0  0  0  0  0  0  0  0  0  0  0
   -3.9632    2.8031    7.9258 H   0  0  0  0  0  0  0  0  0  0  0  0
   -3.0933    4.3205    7.8316 H   0  0  0  0  0  0  0  0  0  0  0  0
   -2.2849    1.5487    4.6279 H   0  0  0  0  0  0  0  0  0  0  0  0
   -1.1991    0.3346    2.8021 H   0  0  0  0  0  0  0  0  0  0  0  0
    0.7388    0.2629    1.2959 H   0  0  0  0  0  0  0  0  0  0  0  0
    1.8699   -0.9243    0.1857 H   0  0  0  0  0  0  0  0  0  0  0  0
    3.4596   -1.4763    0.7337 H   0  0  0  0  0  0  0  0  0  0  0  0
    2.5516    2.2768    3.7459 H   0  0  0  0  0  0  0  0  0  0  0  0
    1.4680    3.4670    5.5974 H   0  0  0  0  0  0  0  0  0  0  0  0
  1  2  1  0
  1 16  1  0
  1 17  1  0
  1 18  1  0
  2  3  1  0
  2 19  1  0
  2 20  1  0
  3  4  1  0
  4  5  2  0
  4  6  1  0
  6 15  2  0
  6  7  1  0
  7  8  2  0
  7 21  1  0
  8  9  1  0
  8 22  1  0
  9 10  1  0
  9 14  2  0
 10 11  1  0
 10 23  1  0
 11 12  1  0
 11 13  2  0
 12 24  1  0
 12 25  1  0
 14 15  1  0
 14 26  1  0
 15 27  1  0
M  END
>  <i_m_ct_stereo_status>  (82) 
1

>  <s_m_source_file>  (82) 
/var/tmp/pbs.5076255.sched01/tmpj20d55gn/0_c3see42.sdf

>  <i_m_source_file_index>  (82) 
32

>  <i_lp_mmshare_version>  (82) 
48012

>  <i_f3d_flags>  (82) 
0

>  <s_epik_input>  (82) 
W0NIM11bQ0gyXU9DKD1PKWMxW2NIXVtjSF1jKFtjSF1bY0hdMSlbTkhdQyg9UylbTkgyXQ==

>  <s_epik_cmdline>  (82) 
J2VwaWtfcHl0aG9uJywgJy1waHQnLCAnMi4wJywgJy1waCcsICc3LjAnLCAnLXRuJywgJzgnLCAnLW1hJywgJzIwMCcsICctaW1hZScsICc8aW5maWxlLm1hZT4nLCAnLW9tYWUnLCAnPG91dGZpbGUubWFlPic=

>  <r_lp_tautomer_probability>  (82) 
1

>  <r_epik_Ionization_Penalty>  (82) 
5.4347e-07

>  <r_epik_Ionization_Penalty_Charging>  (82) 
0

>  <r_epik_Ionization_Penalty_Neutral>  (82) 
5.4347e-07

>  <r_epik_State_Penalty>  (82) 
-0

>  <r_epik_Charging_Adjusted_Penalty>  (82) 
0

>  <i_epik_Tot_Q>  (82) 
0

>  <i_epik_Tot_abs_Q>  (82) 
0

>  <s_epik_Chemistry_Notes>  (82) 
This compound has an ester and may undergo hydrolysis at high or low pH.

>  <s_lp_Force_Field>  (82) 
OPLS3e

>  <r_lp_Energy>  (82) 
14.0553

>  <b_lp_Chiralities_Consistent>  (82) 
1

>  <s_lp_Variant>  (82) 
21:0-1

>  <s_i_glide_gridfile>  (82) 
pfpi4k_grid

>  <i_i_glide_lignum>  (82) 
32

>  <i_i_glide_rotatable_bonds>  (82) 
5

>  <r_i_docking_score>  (82) 
-3.33195

>  <r_i_glide_ligand_efficiency>  (82) 
-0.22213

>  <r_i_glide_ligand_efficiency_sa>  (82) 
-0.54782

>  <r_i_glide_ligand_efficiency_ln>  (82) 
-0.898573

>  <r_i_glide_gscore>  (82) 
-3.33195

>  <r_i_glide_lipo>  (82) 
-0.126781

>  <r_i_glide_hbond>  (82) 
-0.163746

>  <r_i_glide_metal>  (82) 
-0

>  <r_i_glide_rewards>  (82) 
-1.93099

>  <r_i_glide_evdw>  (82) 
-16.4332

>  <r_i_glide_ecoul>  (82) 
-7.67014

>  <r_i_glide_erotb>  (82) 
1.01059

>  <r_i_glide_esite>  (82) 
-0.148848

>  <r_i_glide_emodel>  (82) 
-30.2074

>  <r_i_glide_energy>  (82) 
-24.1033

>  <r_i_glide_einternal>  (82) 
1.31187

>  <r_i_glide_intrahb_reward>  (82) 
-0

>  <i_i_glide_confnum>  (82) 
2

>  <i_i_glide_posenum>  (82) 
22

>  <r_i_glide_eff_state_penalty>  (82) 
0

>  <ligand_id>  (82) 
21

>  <original_smiles>  (82) 
CCOC(=O)c1ccc(NC(N)=S)cc1

>  <smiles>  (82) 
[H]c1c([H])c(N([H])C(=S)N([H])[H])c([H])c([H])c1C(=O)OC([H])([H])C([H])([H])[H]

$$$$
21:0:2
     RDKit          3D

 27 27  0  0  1  0  0  0  0  0999 V2000
   -0.9850    3.7825   11.8666 C   0  0  0  0  0  0  0  0  0  0  0  0
   -1.9647    4.5971   11.0171 C   0  0  0  0  0  0  0  0  0  0  0  0
   -1.6290    4.4412    9.6424 O   0  0  0  0  0  0  0  0  0  0  0  0
   -2.4245    3.7388    8.8104 C   0  0  0  0  0  0  0  0  0  0  0  0
   -3.5320    3.3032    9.1196 O   0  0  0  0  0  0  0  0  0  0  0  0
   -1.8123    3.5231    7.4687 C   0  0  0  0  0  0  0  0  0  0  0  0
   -2.4911    2.7075    6.5364 C   0  0  0  0  0  0  0  0  0  0  0  0
   -1.9469    2.4592    5.2632 C   0  0  0  0  0  0  0  0  0  0  0  0
   -0.7042    3.0141    4.8904 C   0  0  0  0  0  0  0  0  0  0  0  0
   -0.2023    2.7988    3.5762 N   0  0  0  0  0  0  0  0  0  0  0  0
    0.0926    1.5968    3.0179 C   0  0  0  0  0  0  0  0  0  0  0  0
    0.2956    1.7460    1.6934 N   0  0  0  0  0  0  0  0  0  0  0  0
    0.2168    0.1259    3.7804 S   0  0  0  0  0  0  0  0  0  0  0  0
   -0.0184    3.8421    5.8104 C   0  0  0  0  0  0  0  0  0  0  0  0
   -0.5644    4.0874    7.0924 C   0  0  0  0  0  0  0  0  0  0  0  0
   -1.2216    3.8861   12.9255 H   0  0  0  0  0  0  0  0  0  0  0  0
    0.0438    4.1103   11.7140 H   0  0  0  0  0  0  0  0  0  0  0  0
   -1.0475    2.7215   11.6230 H   0  0  0  0  0  0  0  0  0  0  0  0
   -2.9883    4.2954   11.2441 H   0  0  0  0  0  0  0  0  0  0  0  0
   -1.8937    5.6544   11.2752 H   0  0  0  0  0  0  0  0  0  0  0  0
   -3.4438    2.2726    6.8009 H   0  0  0  0  0  0  0  0  0  0  0  0
   -2.4888    1.8473    4.5578 H   0  0  0  0  0  0  0  0  0  0  0  0
   -0.1202    3.6115    2.9777 H   0  0  0  0  0  0  0  0  0  0  0  0
    0.2189    2.6853    1.2813 H   0  0  0  0  0  0  0  0  0  0  0  0
    0.4588    0.9347    1.1050 H   0  0  0  0  0  0  0  0  0  0  0  0
    0.9298    4.2909    5.5426 H   0  0  0  0  0  0  0  0  0  0  0  0
   -0.0183    4.7180    7.7851 H   0  0  0  0  0  0  0  0  0  0  0  0
  1  2  1  0
  1 16  1  0
  1 17  1  0
  1 18  1  0
  2  3  1  0
  2 19  1  0
  2 20  1  0
  3  4  1  0
  4  5  2  0
  4  6  1  0
  6 15  2  0
  6  7  1  0
  7  8  2  0
  7 21  1  0
  8  9  1  0
  8 22  1  0
  9 10  1  0
  9 14  2  0
 10 11  1  0
 10 23  1  0
 11 12  1  0
 11 13  2  0
 12 24  1  0
 12 25  1  0
 14 15  1  0
 14 26  1  0
 15 27  1  0
M  END
>  <i_m_ct_stereo_status>  (83) 
1

>  <s_m_source_file>  (83) 
/var/tmp/pbs.5076255.sched01/tmpj20d55gn/0_c3see42.sdf

>  <i_m_source_file_index>  (83) 
32

>  <i_lp_mmshare_version>  (83) 
48012

>  <i_f3d_flags>  (83) 
0

>  <s_epik_input>  (83) 
W0NIM11bQ0gyXU9DKD1PKWMxW2NIXVtjSF1jKFtjSF1bY0hdMSlbTkhdQyg9UylbTkgyXQ==

>  <s_epik_cmdline>  (83) 
J2VwaWtfcHl0aG9uJywgJy1waHQnLCAnMi4wJywgJy1waCcsICc3LjAnLCAnLXRuJywgJzgnLCAnLW1hJywgJzIwMCcsICctaW1hZScsICc8aW5maWxlLm1hZT4nLCAnLW9tYWUnLCAnPG91dGZpbGUubWFlPic=

>  <r_lp_tautomer_probability>  (83) 
1

>  <r_epik_Ionization_Penalty>  (83) 
5.4347e-07

>  <r_epik_Ionization_Penalty_Charging>  (83) 
0

>  <r_epik_Ionization_Penalty_Neutral>  (83) 
5.4347e-07

>  <r_epik_State_Penalty>  (83) 
-0

>  <r_epik_Charging_Adjusted_Penalty>  (83) 
0

>  <i_epik_Tot_Q>  (83) 
0

>  <i_epik_Tot_abs_Q>  (83) 
0

>  <s_epik_Chemistry_Notes>  (83) 
This compound has an ester and may undergo hydrolysis at high or low pH.

>  <s_lp_Force_Field>  (83) 
OPLS3e

>  <r_lp_Energy>  (83) 
14.0553

>  <b_lp_Chiralities_Consistent>  (83) 
1

>  <s_lp_Variant>  (83) 
21:0-1

>  <s_i_glide_gridfile>  (83) 
pfpi4k_grid

>  <i_i_glide_lignum>  (83) 
32

>  <i_i_glide_rotatable_bonds>  (83) 
5

>  <r_i_docking_score>  (83) 
-3.28972

>  <r_i_glide_ligand_efficiency>  (83) 
-0.219315

>  <r_i_glide_ligand_efficiency_sa>  (83) 
-0.540876

>  <r_i_glide_ligand_efficiency_ln>  (83) 
-0.887183

>  <r_i_glide_gscore>  (83) 
-3.28972

>  <r_i_glide_lipo>  (83) 
-0.21479

>  <r_i_glide_hbond>  (83) 
-0.19101

>  <r_i_glide_metal>  (83) 
-0

>  <r_i_glide_rewards>  (83) 
-1.88739

>  <r_i_glide_evdw>  (83) 
-18.9435

>  <r_i_glide_ecoul>  (83) 
-5.7124

>  <r_i_glide_erotb>  (83) 
1.01059

>  <r_i_glide_esite>  (83) 
-0.203084

>  <r_i_glide_emodel>  (83) 
-29.3284

>  <r_i_glide_energy>  (83) 
-24.6559

>  <r_i_glide_einternal>  (83) 
3.72811

>  <r_i_glide_intrahb_reward>  (83) 
-0

>  <i_i_glide_confnum>  (83) 
4

>  <i_i_glide_posenum>  (83) 
1

>  <r_i_glide_eff_state_penalty>  (83) 
0

>  <ligand_id>  (83) 
21

>  <original_smiles>  (83) 
CCOC(=O)c1ccc(NC(N)=S)cc1

>  <smiles>  (83) 
[H]c1c([H])c(N([H])C(=S)N([H])[H])c([H])c([H])c1C(=O)OC([H])([H])C([H])([H])[H]

$$$$
22:0:0
     RDKit          3D

 11 12  0  0  1  0  0  0  0  0999 V2000
    1.8643   -6.4522    1.1495 C   0  0  0  0  0  0  0  0  0  0  0  0
    0.4901   -6.3637    1.2111 N   0  0  0  0  0  0  0  0  0  0  0  0
    0.1400   -7.4432    1.8594 C   0  0  0  0  0  0  0  0  0  0  0  0
   -1.2700   -8.3187    2.4956 S   0  0  0  0  0  0  0  0  0  0  0  0
   -0.1718   -9.5672    3.1383 C   0  0  0  0  0  0  0  0  0  0  0  0
    1.1863   -9.2724    2.8405 C   0  0  0  0  0  0  0  0  0  0  0  0
    1.2803   -8.1200    2.1552 N   0  0  0  0  0  0  0  0  0  0  0  0
    2.4036   -7.5293    1.7229 N   0  0  0  0  0  0  0  0  0  0  0  0
    2.4772   -5.7095    0.6522 H   0  0  0  0  0  0  0  0  0  0  0  0
   -0.5518  -10.4237    3.6818 H   0  0  0  0  0  0  0  0  0  0  0  0
    2.1000   -9.8041    3.0728 H   0  0  0  0  0  0  0  0  0  0  0  0
  1  8  2  0
  1  2  1  0
  1  9  1  0
  2  3  2  0
  3  7  1  0
  3  4  1  0
  4  5  1  0
  5  6  2  0
  5 10  1  0
  6  7  1  0
  6 11  1  0
  7  8  1  0
M  END
>  <i_m_ct_stereo_status>  (84) 
1

>  <s_m_source_file>  (84) 
/var/tmp/pbs.5076255.sched01/tmpj20d55gn/0_c3see42.sdf

>  <i_m_source_file_index>  (84) 
33

>  <i_lp_mmshare_version>  (84) 
48012

>  <i_f3d_flags>  (84) 
0

>  <s_epik_input>  (84) 
bjFbY0hdbm4oYzEyKVtjSF1bY0hdczI=

>  <s_epik_cmdline>  (84) 
J2VwaWtfcHl0aG9uJywgJy1waHQnLCAnMi4wJywgJy1waCcsICc3LjAnLCAnLXRuJywgJzgnLCAnLW1hJywgJzIwMCcsICctaW1hZScsICc8aW5maWxlLm1hZT4nLCAnLW9tYWUnLCAnPG91dGZpbGUubWFlPic=

>  <r_epik_Ionization_Penalty>  (84) 
0.000391322

>  <r_epik_Ionization_Penalty_Charging>  (84) 
0

>  <r_epik_Ionization_Penalty_Neutral>  (84) 
0.000391322

>  <r_epik_State_Penalty>  (84) 
0.000239483

>  <r_epik_Charging_Adjusted_Penalty>  (84) 
0.000239483

>  <i_epik_Tot_Q>  (84) 
0

>  <i_epik_Tot_abs_Q>  (84) 
0

>  <s_lp_Force_Field>  (84) 
OPLS3e

>  <r_lp_Energy>  (84) 
2.40499

>  <b_lp_Chiralities_Consistent>  (84) 
1

>  <s_lp_Variant>  (84) 
22:0-1

>  <s_i_glide_gridfile>  (84) 
pfpi4k_grid

>  <i_i_glide_lignum>  (84) 
33

>  <i_i_glide_rotatable_bonds>  (84) 
0

>  <r_i_docking_score>  (84) 
-3.95158

>  <r_i_glide_ligand_efficiency>  (84) 
-0.493947

>  <r_i_glide_ligand_efficiency_sa>  (84) 
-0.987895

>  <r_i_glide_ligand_efficiency_ln>  (84) 
-1.28321

>  <r_i_glide_gscore>  (84) 
-3.95158

>  <r_i_glide_lipo>  (84) 
-0.0194367

>  <r_i_glide_hbond>  (84) 
-0.16

>  <r_i_glide_metal>  (84) 
-0

>  <r_i_glide_rewards>  (84) 
-2.25

>  <r_i_glide_evdw>  (84) 
-13.9994

>  <r_i_glide_ecoul>  (84) 
-4.50892

>  <r_i_glide_erotb>  (84) 
0

>  <r_i_glide_esite>  (84) 
-0.145834

>  <r_i_glide_emodel>  (84) 
-23.7213

>  <r_i_glide_energy>  (84) 
-18.5083

>  <r_i_glide_einternal>  (84) 
0

>  <r_i_glide_intrahb_reward>  (84) 
-0

>  <i_i_glide_confnum>  (84) 
1

>  <i_i_glide_posenum>  (84) 
8

>  <r_i_glide_eff_state_penalty>  (84) 
0

>  <ligand_id>  (84) 
22

>  <original_smiles>  (84) 
c1nc2sccn2n1

>  <smiles>  (84) 
[H]c1nc2sc([H])c([H])n2n1

$$$$
22:0:1
     RDKit          3D

 11 12  0  0  1  0  0  0  0  0999 V2000
    1.8747   -6.3616    1.2333 C   0  0  0  0  0  0  0  0  0  0  0  0
    2.4639   -7.5147    1.6896 N   0  0  0  0  0  0  0  0  0  0  0  0
    1.4686   -8.2320    2.1341 C   0  0  0  0  0  0  0  0  0  0  0  0
    1.0388   -9.7928    2.8978 S   0  0  0  0  0  0  0  0  0  0  0  0
   -0.6756   -9.2922    2.8795 C   0  0  0  0  0  0  0  0  0  0  0  0
   -0.8385   -8.0039    2.3149 C   0  0  0  0  0  0  0  0  0  0  0  0
    0.3358   -7.4932    1.9357 N   0  0  0  0  0  0  0  0  0  0  0  0
    0.5547   -6.2982    1.3593 N   0  0  0  0  0  0  0  0  0  0  0  0
    2.4434   -5.5562    0.7863 H   0  0  0  0  0  0  0  0  0  0  0  0
   -1.4486   -9.9398    3.2705 H   0  0  0  0  0  0  0  0  0  0  0  0
   -1.7230   -7.4045    2.1438 H   0  0  0  0  0  0  0  0  0  0  0  0
  1  8  2  0
  1  2  1  0
  1  9  1  0
  2  3  2  0
  3  7  1  0
  3  4  1  0
  4  5  1  0
  5  6  2  0
  5 10  1  0
  6  7  1  0
  6 11  1  0
  7  8  1  0
M  END
>  <i_m_ct_stereo_status>  (85) 
1

>  <s_m_source_file>  (85) 
/var/tmp/pbs.5076255.sched01/tmpj20d55gn/0_c3see42.sdf

>  <i_m_source_file_index>  (85) 
33

>  <i_lp_mmshare_version>  (85) 
48012

>  <i_f3d_flags>  (85) 
0

>  <s_epik_input>  (85) 
bjFbY0hdbm4oYzEyKVtjSF1bY0hdczI=

>  <s_epik_cmdline>  (85) 
J2VwaWtfcHl0aG9uJywgJy1waHQnLCAnMi4wJywgJy1waCcsICc3LjAnLCAnLXRuJywgJzgnLCAnLW1hJywgJzIwMCcsICctaW1hZScsICc8aW5maWxlLm1hZT4nLCAnLW9tYWUnLCAnPG91dGZpbGUubWFlPic=

>  <r_epik_Ionization_Penalty>  (85) 
0.000391322

>  <r_epik_Ionization_Penalty_Charging>  (85) 
0

>  <r_epik_Ionization_Penalty_Neutral>  (85) 
0.000391322

>  <r_epik_State_Penalty>  (85) 
0.000239483

>  <r_epik_Charging_Adjusted_Penalty>  (85) 
0.000239483

>  <i_epik_Tot_Q>  (85) 
0

>  <i_epik_Tot_abs_Q>  (85) 
0

>  <s_lp_Force_Field>  (85) 
OPLS3e

>  <r_lp_Energy>  (85) 
2.40499

>  <b_lp_Chiralities_Consistent>  (85) 
1

>  <s_lp_Variant>  (85) 
22:0-1

>  <s_i_glide_gridfile>  (85) 
pfpi4k_grid

>  <i_i_glide_lignum>  (85) 
33

>  <i_i_glide_rotatable_bonds>  (85) 
0

>  <r_i_docking_score>  (85) 
-3.82792

>  <r_i_glide_ligand_efficiency>  (85) 
-0.47849

>  <r_i_glide_ligand_efficiency_sa>  (85) 
-0.95698

>  <r_i_glide_ligand_efficiency_ln>  (85) 
-1.24306

>  <r_i_glide_gscore>  (85) 
-3.82792

>  <r_i_glide_lipo>  (85) 
-0.0771947

>  <r_i_glide_hbond>  (85) 
-0.16

>  <r_i_glide_metal>  (85) 
-0

>  <r_i_glide_rewards>  (85) 
-2.25

>  <r_i_glide_evdw>  (85) 
-13.7444

>  <r_i_glide_ecoul>  (85) 
-3.4664

>  <r_i_glide_erotb>  (85) 
0

>  <r_i_glide_esite>  (85) 
-0.133546

>  <r_i_glide_emodel>  (85) 
-22.2607

>  <r_i_glide_energy>  (85) 
-17.2108

>  <r_i_glide_einternal>  (85) 
0

>  <r_i_glide_intrahb_reward>  (85) 
-0

>  <i_i_glide_confnum>  (85) 
2

>  <i_i_glide_posenum>  (85) 
20

>  <r_i_glide_eff_state_penalty>  (85) 
0

>  <ligand_id>  (85) 
22

>  <original_smiles>  (85) 
c1nc2sccn2n1

>  <smiles>  (85) 
[H]c1nc2sc([H])c([H])n2n1

$$$$
22:0:2
     RDKit          3D

 11 12  0  0  1  0  0  0  0  0999 V2000
    5.2188   -1.8051   -0.3589 C   0  0  0  0  0  0  0  0  0  0  0  0
    5.4163   -1.0673   -1.5019 N   0  0  0  0  0  0  0  0  0  0  0  0
    4.4763   -1.4758   -2.3046 C   0  0  0  0  0  0  0  0  0  0  0  0
    3.7930   -1.2371   -3.9249 S   0  0  0  0  0  0  0  0  0  0  0  0
    2.5948   -2.5110   -3.5787 C   0  0  0  0  0  0  0  0  0  0  0  0
    2.7527   -3.0347   -2.2708 C   0  0  0  0  0  0  0  0  0  0  0  0
    3.7779   -2.4335   -1.6453 N   0  0  0  0  0  0  0  0  0  0  0  0
    4.2136   -2.6806   -0.4026 N   0  0  0  0  0  0  0  0  0  0  0  0
    5.8404   -1.7046    0.5191 H   0  0  0  0  0  0  0  0  0  0  0  0
    1.8348   -2.7916   -4.2967 H   0  0  0  0  0  0  0  0  0  0  0  0
    2.1999   -3.7906   -1.7288 H   0  0  0  0  0  0  0  0  0  0  0  0
  1  8  2  0
  1  2  1  0
  1  9  1  0
  2  3  2  0
  3  7  1  0
  3  4  1  0
  4  5  1  0
  5  6  2  0
  5 10  1  0
  6  7  1  0
  6 11  1  0
  7  8  1  0
M  END
>  <i_m_ct_stereo_status>  (86) 
1

>  <s_m_source_file>  (86) 
/var/tmp/pbs.5076255.sched01/tmpj20d55gn/0_c3see42.sdf

>  <i_m_source_file_index>  (86) 
33

>  <i_lp_mmshare_version>  (86) 
48012

>  <i_f3d_flags>  (86) 
0

>  <s_epik_input>  (86) 
bjFbY0hdbm4oYzEyKVtjSF1bY0hdczI=

>  <s_epik_cmdline>  (86) 
J2VwaWtfcHl0aG9uJywgJy1waHQnLCAnMi4wJywgJy1waCcsICc3LjAnLCAnLXRuJywgJzgnLCAnLW1hJywgJzIwMCcsICctaW1hZScsICc8aW5maWxlLm1hZT4nLCAnLW9tYWUnLCAnPG91dGZpbGUubWFlPic=

>  <r_epik_Ionization_Penalty>  (86) 
0.000391322

>  <r_epik_Ionization_Penalty_Charging>  (86) 
0

>  <r_epik_Ionization_Penalty_Neutral>  (86) 
0.000391322

>  <r_epik_State_Penalty>  (86) 
0.000239483

>  <r_epik_Charging_Adjusted_Penalty>  (86) 
0.000239483

>  <i_epik_Tot_Q>  (86) 
0

>  <i_epik_Tot_abs_Q>  (86) 
0

>  <s_lp_Force_Field>  (86) 
OPLS3e

>  <r_lp_Energy>  (86) 
2.40499

>  <b_lp_Chiralities_Consistent>  (86) 
1

>  <s_lp_Variant>  (86) 
22:0-1

>  <s_i_glide_gridfile>  (86) 
pfpi4k_grid

>  <i_i_glide_lignum>  (86) 
33

>  <i_i_glide_rotatable_bonds>  (86) 
0

>  <r_i_docking_score>  (86) 
-3.82329

>  <r_i_glide_ligand_efficiency>  (86) 
-0.477912

>  <r_i_glide_ligand_efficiency_sa>  (86) 
-0.955824

>  <r_i_glide_ligand_efficiency_ln>  (86) 
-1.24155

>  <r_i_glide_gscore>  (86) 
-3.82329

>  <r_i_glide_lipo>  (86) 
-0.375273

>  <r_i_glide_hbond>  (86) 
-0.00848917

>  <r_i_glide_metal>  (86) 
-0

>  <r_i_glide_rewards>  (86) 
-2.25

>  <r_i_glide_evdw>  (86) 
-17.8011

>  <r_i_glide_ecoul>  (86) 
-1.4247

>  <r_i_glide_erotb>  (86) 
0

>  <r_i_glide_esite>  (86) 
-0.0857733

>  <r_i_glide_emodel>  (86) 
-24.2699

>  <r_i_glide_energy>  (86) 
-19.2258

>  <r_i_glide_einternal>  (86) 
0

>  <r_i_glide_intrahb_reward>  (86) 
-0

>  <i_i_glide_confnum>  (86) 
1

>  <i_i_glide_posenum>  (86) 
2

>  <r_i_glide_eff_state_penalty>  (86) 
0

>  <ligand_id>  (86) 
22

>  <original_smiles>  (86) 
c1nc2sccn2n1

>  <smiles>  (86) 
[H]c1nc2sc([H])c([H])n2n1

$$$$
23:0:0
     RDKit          3D

 46 50  0  0  1  0  0  0  0  0999 V2000
    4.9615   -3.8493   -3.7589 C   0  0  0  0  0  0  0  0  0  0  0  0
    4.0525   -2.9562   -2.9107 C   0  0  2  0  0  0  0  0  0  0  0  0
    3.9760   -1.5076   -3.4206 C   0  0  0  0  0  0  0  0  0  0  0  0
    3.9862   -1.1878   -4.6087 O   0  0  0  0  0  0  0  0  0  0  0  0
    3.9659   -0.6723   -2.3562 O   0  0  0  0  0  0  0  0  0  0  0  0
    3.8154   -1.4131   -1.1617 C   0  0  2  0  0  0  0  0  0  0  0  0
    4.4116   -1.0322    0.1860 C   0  0  0  0  0  0  0  0  0  0  0  0
    4.7419   -2.4082    0.8445 C   0  0  1  0  0  0  0  0  0  0  0  0
    3.8620   -2.7819    2.0430 C   0  0  2  0  0  0  0  0  0  0  0  0
    4.6220   -3.4702    3.0161 O   0  0  0  0  0  0  0  0  0  0  0  0
    3.8129   -4.4855    3.4953 C   0  0  1  0  0  0  0  0  0  0  0  0
    2.9438   -3.9855    4.6515 C   0  0  0  0  0  0  0  0  0  0  0  0
    3.4140   -2.9878    5.5324 C   0  0  0  0  0  0  0  0  0  0  0  0
    2.6264   -2.5630    6.6221 C   0  0  0  0  0  0  0  0  0  0  0  0
    1.3698   -3.1514    6.8558 C   0  0  0  0  0  0  0  0  0  0  0  0
    0.9038   -4.1702    6.0038 C   0  0  0  0  0  0  0  0  0  0  0  0
    1.6944   -4.5920    4.9173 C   0  0  0  0  0  0  0  0  0  0  0  0
    3.0062   -4.9172    2.4537 O   0  0  0  0  0  0  0  0  0  0  0  0
    2.8392   -3.8173    1.5756 C   0  0  2  0  0  0  0  0  0  0  0  0
    3.1949   -4.2310    0.1328 C   0  0  1  0  0  0  0  0  0  0  0  0
    2.1099   -3.9564   -0.7227 O   0  0  0  0  0  0  0  0  0  0  0  0
    4.5282   -3.5129   -0.2385 C   0  0  2  0  0  0  0  0  0  0  0  0
    5.6740   -4.5360   -0.2183 C   0  0  0  0  0  0  0  0  0  0  0  0
    4.5854   -2.6509   -1.5177 C   0  0  1  0  0  0  0  0  0  0  0  0
    4.5828   -3.9401   -4.7766 H   0  0  0  0  0  0  0  0  0  0  0  0
    5.0144   -4.8579   -3.3468 H   0  0  0  0  0  0  0  0  0  0  0  0
    5.9796   -3.4562   -3.8093 H   0  0  0  0  0  0  0  0  0  0  0  0
    3.0418   -3.3537   -2.9005 H   0  0  0  0  0  0  0  0  0  0  0  0
    2.7597   -1.6455   -1.0307 H   0  0  0  0  0  0  0  0  0  0  0  0
    5.3272   -0.4565    0.0449 H   0  0  0  0  0  0  0  0  0  0  0  0
    3.7220   -0.4215    0.7690 H   0  0  0  0  0  0  0  0  0  0  0  0
    5.7869   -2.3693    1.1618 H   0  0  0  0  0  0  0  0  0  0  0  0
    3.3761   -1.9251    2.5064 H   0  0  0  0  0  0  0  0  0  0  0  0
    4.4481   -5.3140    3.8107 H   0  0  0  0  0  0  0  0  0  0  0  0
    4.3857   -2.5450    5.3792 H   0  0  0  0  0  0  0  0  0  0  0  0
    2.9934   -1.7946    7.2878 H   0  0  0  0  0  0  0  0  0  0  0  0
    0.7683   -2.8251    7.6929 H   0  0  0  0  0  0  0  0  0  0  0  0
   -0.0492   -4.6388    6.1927 H   0  0  0  0  0  0  0  0  0  0  0  0
    1.3400   -5.3954    4.2899 H   0  0  0  0  0  0  0  0  0  0  0  0
    1.8262   -3.4245    1.6731 H   0  0  0  0  0  0  0  0  0  0  0  0
    3.3186   -5.3142    0.0825 H   0  0  0  0  0  0  0  0  0  0  0  0
    2.2782   -4.3758   -1.5574 H   0  0  0  0  0  0  0  0  0  0  0  0
    5.5123   -5.2814   -0.9951 H   0  0  0  0  0  0  0  0  0  0  0  0
    5.7253   -5.0590    0.7385 H   0  0  0  0  0  0  0  0  0  0  0  0
    6.6423   -4.0642   -0.3892 H   0  0  0  0  0  0  0  0  0  0  0  0
    5.6367   -2.3708   -1.6405 H   0  0  0  0  0  0  0  0  0  0  0  0
  1  2  1  0
  1 25  1  0
  1 26  1  0
  1 27  1  0
  2 24  1  0
  2  3  1  0
  2 28  1  1
  3  4  2  0
  3  5  1  0
  5  6  1  0
  6 24  1  0
  6  7  1  0
  6 29  1  1
  7  8  1  0
  7 30  1  0
  7 31  1  0
  8 22  1  0
  8  9  1  0
  8 32  1  1
  9 19  1  0
  9 10  1  0
  9 33  1  1
 10 11  1  0
 11 12  1  0
 11 18  1  0
 11 34  1  1
 12 17  1  0
 12 13  2  0
 13 14  1  0
 13 35  1  0
 14 15  2  0
 14 36  1  0
 15 16  1  0
 15 37  1  0
 16 17  2  0
 16 38  1  0
 17 39  1  0
 18 19  1  0
 19 20  1  0
 19 40  1  6
 20 21  1  0
 20 22  1  0
 20 41  1  1
 21 42  1  0
 22 23  1  6
 22 24  1  0
 23 43  1  0
 23 44  1  0
 23 45  1  0
 24 46  1  6
M  END
>  <i_m_ct_stereo_status>  (87) 
1

>  <s_m_source_file>  (87) 
/var/tmp/pbs.5076255.sched01/tmpj20d55gn/0_c3see42.sdf

>  <i_m_source_file_index>  (87) 
34

>  <i_lp_mmshare_version>  (87) 
48012

>  <i_f3d_flags>  (87) 
0

>  <s_epik_input>  (87) 
Tz1DKE8xKVtDQEBIXShbQ0gzXSlbQ0BIXTJbQ0BIXTFbQ0gyXVtDQEhdKFtDQF0yM1tDSDNdKVtDQEhdNFtDQEBIXShbQ0BIXTNbT0hdKU9bQ0BASF0oTzQpYzVbY0hdW2NIXVtjSF1bY0hdW2NIXTU=

>  <s_epik_cmdline>  (87) 
J2VwaWtfcHl0aG9uJywgJy1waHQnLCAnMi4wJywgJy1waCcsICc3LjAnLCAnLXRuJywgJzgnLCAnLW1hJywgJzIwMCcsICctaW1hZScsICc8aW5maWxlLm1hZT4nLCAnLW9tYWUnLCAnPG91dGZpbGUubWFlPic=

>  <r_lp_tautomer_probability>  (87) 
1

>  <r_epik_Ionization_Penalty>  (87) 
2.48289e-07

>  <r_epik_Ionization_Penalty_Charging>  (87) 
0

>  <r_epik_Ionization_Penalty_Neutral>  (87) 
2.48289e-07

>  <r_epik_State_Penalty>  (87) 
-0

>  <r_epik_Charging_Adjusted_Penalty>  (87) 
0

>  <i_epik_Tot_Q>  (87) 
0

>  <i_epik_Tot_abs_Q>  (87) 
0

>  <s_epik_Chemistry_Notes>  (87) 
This compound has an ester and may undergo hydrolysis at high or low pH. This compound contains an acetal/aminal-like group ( X-CH(R)-Y where X, Y are N, S, or O) that may be acid/base labile, releasing an aldehyde.

>  <s_lp_Force_Field>  (87) 
OPLS3e

>  <r_lp_Energy>  (87) 
15.7556

>  <b_lp_Chiralities_Consistent>  (87) 
1

>  <s_lp_Variant>  (87) 
23:0-1

>  <s_i_glide_gridfile>  (87) 
pfpi4k_grid

>  <i_i_glide_lignum>  (87) 
34

>  <i_i_glide_rotatable_bonds>  (87) 
2

>  <r_i_docking_score>  (87) 
-3.75237

>  <r_i_glide_ligand_efficiency>  (87) 
-0.156349

>  <r_i_glide_ligand_efficiency_sa>  (87) 
-0.450987

>  <r_i_glide_ligand_efficiency_ln>  (87) 
-0.898114

>  <r_i_glide_gscore>  (87) 
-3.75237

>  <r_i_glide_lipo>  (87) 
-0.172221

>  <r_i_glide_hbond>  (87) 
-0.308325

>  <r_i_glide_metal>  (87) 
-0

>  <r_i_glide_rewards>  (87) 
-1.37966

>  <r_i_glide_evdw>  (87) 
-25.406

>  <r_i_glide_ecoul>  (87) 
-5.29448

>  <r_i_glide_erotb>  (87) 
0.172311

>  <r_i_glide_esite>  (87) 
0

>  <r_i_glide_emodel>  (87) 
-39.4891

>  <r_i_glide_energy>  (87) 
-30.7005

>  <r_i_glide_einternal>  (87) 
0.613879

>  <r_i_glide_intrahb_reward>  (87) 
-0

>  <i_i_glide_confnum>  (87) 
4

>  <i_i_glide_posenum>  (87) 
12

>  <r_i_glide_eff_state_penalty>  (87) 
0

>  <ligand_id>  (87) 
23

>  <original_smiles>  (87) 
CC1C(=O)OC2CC3C4OC(c5ccccc5)OC4C(O)C3(C)C21

>  <smiles>  (87) 
[H]OC1([H])C2([H])OC([H])(c3c([H])c([H])c([H])c([H])c3[H])OC2([H])C2([H])C([H])([H])C3([H])OC(=O)C([H])(C([H])([H])[H])C3([H])C12C([H])([H])[H]

$$$$
23:0:1
     RDKit          3D

 46 50  0  0  1  0  0  0  0  0999 V2000
   -0.3743    1.3014    5.5447 C   0  0  0  0  0  0  0  0  0  0  0  0
   -0.3005    0.0990    4.5878 C   0  0  2  0  0  0  0  0  0  0  0  0
   -1.1115   -1.1107    5.0767 C   0  0  0  0  0  0  0  0  0  0  0  0
   -2.1810   -1.0269    5.6819 O   0  0  0  0  0  0  0  0  0  0  0  0
   -0.4343   -2.2423    4.7799 O   0  0  0  0  0  0  0  0  0  0  0  0
    0.6819   -1.9469    3.9689 C   0  0  2  0  0  0  0  0  0  0  0  0
    2.0101   -2.6854    4.0008 C   0  0  0  0  0  0  0  0  0  0  0  0
    3.0605   -1.5679    3.6936 C   0  0  1  0  0  0  0  0  0  0  0  0
    3.7360   -1.6863    2.3199 C   0  0  2  0  0  0  0  0  0  0  0  0
    5.0973   -1.3144    2.3892 O   0  0  0  0  0  0  0  0  0  0  0  0
    5.3475   -0.5681    1.2570 C   0  0  1  0  0  0  0  0  0  0  0  0
    5.8478   -1.4535    0.1296 C   0  0  0  0  0  0  0  0  0  0  0  0
    5.0192   -1.8553   -0.9448 C   0  0  0  0  0  0  0  0  0  0  0  0
    5.5343   -2.6673   -1.9701 C   0  0  0  0  0  0  0  0  0  0  0  0
    6.8839   -3.0571   -1.9360 C   0  0  0  0  0  0  0  0  0  0  0  0
    7.7235   -2.6590   -0.8829 C   0  0  0  0  0  0  0  0  0  0  0  0
    7.2017   -1.8572    0.1469 C   0  0  0  0  0  0  0  0  0  0  0  0
    4.1983    0.1045    0.8885 O   0  0  0  0  0  0  0  0  0  0  0  0
    3.1099   -0.6449    1.3954 C   0  0  2  0  0  0  0  0  0  0  0  0
    2.1594    0.2386    2.2205 C   0  0  1  0  0  0  0  0  0  0  0  0
    0.8514    0.0989    1.6920 O   0  0  0  0  0  0  0  0  0  0  0  0
    2.3147   -0.1933    3.7181 C   0  0  2  0  0  0  0  0  0  0  0  0
    3.1277    0.8677    4.4889 C   0  0  0  0  0  0  0  0  0  0  0  0
    1.0547   -0.5955    4.5139 C   0  0  1  0  0  0  0  0  0  0  0  0
   -1.3987    1.6700    5.6349 H   0  0  0  0  0  0  0  0  0  0  0  0
    0.2341    2.1262    5.1751 H   0  0  0  0  0  0  0  0  0  0  0  0
   -0.0231    1.0425    6.5460 H   0  0  0  0  0  0  0  0  0  0  0  0
   -0.6699    0.3831    3.6043 H   0  0  0  0  0  0  0  0  0  0  0  0
    0.3393   -1.8806    2.9389 H   0  0  0  0  0  0  0  0  0  0  0  0
    2.1879   -3.1011    4.9946 H   0  0  0  0  0  0  0  0  0  0  0  0
    2.0251   -3.5115    3.2899 H   0  0  0  0  0  0  0  0  0  0  0  0
    3.8190   -1.6179    4.4784 H   0  0  0  0  0  0  0  0  0  0  0  0
    3.6767   -2.6875    1.8933 H   0  0  0  0  0  0  0  0  0  0  0  0
    6.1131    0.1504    1.5129 H   0  0  0  0  0  0  0  0  0  0  0  0
    3.9866   -1.5501   -1.0118 H   0  0  0  0  0  0  0  0  0  0  0  0
    4.8935   -2.9952   -2.7725 H   0  0  0  0  0  0  0  0  0  0  0  0
    7.2747   -3.6885   -2.7162 H   0  0  0  0  0  0  0  0  0  0  0  0
    8.7623   -2.9594   -0.8825 H   0  0  0  0  0  0  0  0  0  0  0  0
    7.8576   -1.5313    0.9414 H   0  0  0  0  0  0  0  0  0  0  0  0
    2.6016   -1.1374    0.5740 H   0  0  0  0  0  0  0  0  0  0  0  0
    2.4278    1.2901    2.0965 H   0  0  0  0  0  0  0  0  0  0  0  0
    0.8956   -0.0440    0.7392 H   0  0  0  0  0  0  0  0  0  0  0  0
    2.5891    1.8138    4.5425 H   0  0  0  0  0  0  0  0  0  0  0  0
    4.0848    1.0569    3.9993 H   0  0  0  0  0  0  0  0  0  0  0  0
    3.3380    0.5515    5.5098 H   0  0  0  0  0  0  0  0  0  0  0  0
    1.3863   -0.7278    5.5484 H   0  0  0  0  0  0  0  0  0  0  0  0
  1  2  1  0
  1 25  1  0
  1 26  1  0
  1 27  1  0
  2 24  1  0
  2  3  1  0
  2 28  1  6
  3  4  2  0
  3  5  1  0
  5  6  1  0
  6 24  1  0
  6  7  1  0
  6 29  1  6
  7  8  1  0
  7 30  1  0
  7 31  1  0
  8 22  1  0
  8  9  1  0
  8 32  1  1
  9 19  1  0
  9 10  1  0
  9 33  1  6
 10 11  1  0
 11 12  1  0
 11 18  1  0
 11 34  1  1
 12 17  1  0
 12 13  2  0
 13 14  1  0
 13 35  1  0
 14 15  2  0
 14 36  1  0
 15 16  1  0
 15 37  1  0
 16 17  2  0
 16 38  1  0
 17 39  1  0
 18 19  1  0
 19 20  1  0
 19 40  1  6
 20 21  1  0
 20 22  1  0
 20 41  1  1
 21 42  1  0
 22 23  1  1
 22 24  1  0
 23 43  1  0
 23 44  1  0
 23 45  1  0
 24 46  1  1
M  END
>  <i_m_ct_stereo_status>  (88) 
1

>  <s_m_source_file>  (88) 
/var/tmp/pbs.5076255.sched01/tmpj20d55gn/0_c3see42.sdf

>  <i_m_source_file_index>  (88) 
34

>  <i_lp_mmshare_version>  (88) 
48012

>  <i_f3d_flags>  (88) 
0

>  <s_epik_input>  (88) 
Tz1DKE8xKVtDQEBIXShbQ0gzXSlbQ0BIXTJbQ0BIXTFbQ0gyXVtDQEhdKFtDQF0yM1tDSDNdKVtDQEhdNFtDQEBIXShbQ0BIXTNbT0hdKU9bQ0BASF0oTzQpYzVbY0hdW2NIXVtjSF1bY0hdW2NIXTU=

>  <s_epik_cmdline>  (88) 
J2VwaWtfcHl0aG9uJywgJy1waHQnLCAnMi4wJywgJy1waCcsICc3LjAnLCAnLXRuJywgJzgnLCAnLW1hJywgJzIwMCcsICctaW1hZScsICc8aW5maWxlLm1hZT4nLCAnLW9tYWUnLCAnPG91dGZpbGUubWFlPic=

>  <r_lp_tautomer_probability>  (88) 
1

>  <r_epik_Ionization_Penalty>  (88) 
2.48289e-07

>  <r_epik_Ionization_Penalty_Charging>  (88) 
0

>  <r_epik_Ionization_Penalty_Neutral>  (88) 
2.48289e-07

>  <r_epik_State_Penalty>  (88) 
-0

>  <r_epik_Charging_Adjusted_Penalty>  (88) 
0

>  <i_epik_Tot_Q>  (88) 
0

>  <i_epik_Tot_abs_Q>  (88) 
0

>  <s_epik_Chemistry_Notes>  (88) 
This compound has an ester and may undergo hydrolysis at high or low pH. This compound contains an acetal/aminal-like group ( X-CH(R)-Y where X, Y are N, S, or O) that may be acid/base labile, releasing an aldehyde.

>  <s_lp_Force_Field>  (88) 
OPLS3e

>  <r_lp_Energy>  (88) 
15.7556

>  <b_lp_Chiralities_Consistent>  (88) 
1

>  <s_lp_Variant>  (88) 
23:0-1

>  <s_i_glide_gridfile>  (88) 
pfpi4k_grid

>  <i_i_glide_lignum>  (88) 
34

>  <i_i_glide_rotatable_bonds>  (88) 
2

>  <r_i_docking_score>  (88) 
-3.73376

>  <r_i_glide_ligand_efficiency>  (88) 
-0.155573

>  <r_i_glide_ligand_efficiency_sa>  (88) 
-0.448752

>  <r_i_glide_ligand_efficiency_ln>  (88) 
-0.893661

>  <r_i_glide_gscore>  (88) 
-3.73376

>  <r_i_glide_lipo>  (88) 
-0.0638278

>  <r_i_glide_hbond>  (88) 
-0.0472539

>  <r_i_glide_metal>  (88) 
-0

>  <r_i_glide_rewards>  (88) 
-1.33986

>  <r_i_glide_evdw>  (88) 
-26.3258

>  <r_i_glide_ecoul>  (88) 
-7.34275

>  <r_i_glide_erotb>  (88) 
0.172311

>  <r_i_glide_esite>  (88) 
-0.0374242

>  <r_i_glide_emodel>  (88) 
-41.6971

>  <r_i_glide_energy>  (88) 
-33.6686

>  <r_i_glide_einternal>  (88) 
1.44056

>  <r_i_glide_intrahb_reward>  (88) 
-0

>  <i_i_glide_confnum>  (88) 
4

>  <i_i_glide_posenum>  (88) 
23

>  <r_i_glide_eff_state_penalty>  (88) 
0

>  <ligand_id>  (88) 
23

>  <original_smiles>  (88) 
CC1C(=O)OC2CC3C4OC(c5ccccc5)OC4C(O)C3(C)C21

>  <smiles>  (88) 
[H]OC1([H])C2([H])OC([H])(c3c([H])c([H])c([H])c([H])c3[H])OC2([H])C2([H])C([H])([H])C3([H])OC(=O)C([H])(C([H])([H])[H])C3([H])C12C([H])([H])[H]

$$$$
23:0:2
     RDKit          3D

 46 50  0  0  1  0  0  0  0  0999 V2000
    1.1911    4.2377    4.1156 C   0  0  0  0  0  0  0  0  0  0  0  0
    0.2396    3.1524    3.5821 C   0  0  2  0  0  0  0  0  0  0  0  0
   -1.2450    3.4272    3.8872 C   0  0  0  0  0  0  0  0  0  0  0  0
   -1.7622    4.5436    3.9100 O   0  0  0  0  0  0  0  0  0  0  0  0
   -1.8581    2.2524    4.1850 O   0  0  0  0  0  0  0  0  0  0  0  0
   -0.9871    1.1756    3.9107 C   0  0  2  0  0  0  0  0  0  0  0  0
   -0.9506   -0.1274    4.6918 C   0  0  0  0  0  0  0  0  0  0  0  0
    0.5582   -0.5310    4.6489 C   0  0  1  0  0  0  0  0  0  0  0  0
    0.8708   -1.7602    3.7878 C   0  0  2  0  0  0  0  0  0  0  0  0
    1.8947   -2.5353    4.3779 O   0  0  0  0  0  0  0  0  0  0  0  0
    2.7138   -2.9539    3.3417 C   0  0  1  0  0  0  0  0  0  0  0  0
    2.2065   -4.2642    2.7367 C   0  0  0  0  0  0  0  0  0  0  0  0
    1.4021   -5.1582    3.4797 C   0  0  0  0  0  0  0  0  0  0  0  0
    0.9688   -6.3741    2.9161 C   0  0  0  0  0  0  0  0  0  0  0  0
    1.3507   -6.7216    1.6058 C   0  0  0  0  0  0  0  0  0  0  0  0
    2.1773   -5.8527    0.8705 C   0  0  0  0  0  0  0  0  0  0  0  0
    2.6131   -4.6390    1.4353 C   0  0  0  0  0  0  0  0  0  0  0  0
    2.7201   -1.9647    2.3748 O   0  0  0  0  0  0  0  0  0  0  0  0
    1.4886   -1.2765    2.4772 C   0  0  2  0  0  0  0  0  0  0  0  0
    1.7228    0.2403    2.5844 C   0  0  1  0  0  0  0  0  0  0  0  0
    0.9638    0.8785    1.5816 O   0  0  0  0  0  0  0  0  0  0  0  0
    1.3620    0.6648    4.0456 C   0  0  2  0  0  0  0  0  0  0  0  0
    2.6529    0.9342    4.8443 C   0  0  0  0  0  0  0  0  0  0  0  0
    0.3360    1.7969    4.2665 C   0  0  1  0  0  0  0  0  0  0  0  0
    0.9827    5.2051    3.6531 H   0  0  0  0  0  0  0  0  0  0  0  0
    2.2283    3.9923    3.8859 H   0  0  0  0  0  0  0  0  0  0  0  0
    1.1052    4.3583    5.1977 H   0  0  0  0  0  0  0  0  0  0  0  0
    0.3515    3.0635    2.5025 H   0  0  0  0  0  0  0  0  0  0  0  0
   -1.0621    0.9585    2.8462 H   0  0  0  0  0  0  0  0  0  0  0  0
   -1.2666    0.0429    5.7208 H   0  0  0  0  0  0  0  0  0  0  0  0
   -1.6226   -0.8667    4.2547 H   0  0  0  0  0  0  0  0  0  0  0  0
    0.8671   -0.7258    5.6773 H   0  0  0  0  0  0  0  0  0  0  0  0
    0.0002   -2.3922    3.6159 H   0  0  0  0  0  0  0  0  0  0  0  0
    3.7279   -3.0711    3.7214 H   0  0  0  0  0  0  0  0  0  0  0  0
    1.1177   -4.9156    4.4951 H   0  0  0  0  0  0  0  0  0  0  0  0
    0.3549   -7.0521    3.4929 H   0  0  0  0  0  0  0  0  0  0  0  0
    1.0214   -7.6584    1.1738 H   0  0  0  0  0  0  0  0  0  0  0  0
    2.4889   -6.1166   -0.1298 H   0  0  0  0  0  0  0  0  0  0  0  0
    3.2573   -3.9878    0.8597 H   0  0  0  0  0  0  0  0  0  0  0  0
    0.8522   -1.5385    1.6325 H   0  0  0  0  0  0  0  0  0  0  0  0
    2.7673    0.4717    2.3657 H   0  0  0  0  0  0  0  0  0  0  0  0
    1.0149    0.3797    0.7685 H   0  0  0  0  0  0  0  0  0  0  0  0
    3.1911    1.7948    4.4464 H   0  0  0  0  0  0  0  0  0  0  0  0
    3.3226    0.0750    4.8030 H   0  0  0  0  0  0  0  0  0  0  0  0
    2.4433    1.1351    5.8950 H   0  0  0  0  0  0  0  0  0  0  0  0
    0.3428    2.0028    5.3422 H   0  0  0  0  0  0  0  0  0  0  0  0
  1  2  1  0
  1 25  1  0
  1 26  1  0
  1 27  1  0
  2 24  1  0
  2  3  1  0
  2 28  1  6
  3  4  2  0
  3  5  1  0
  5  6  1  0
  6 24  1  0
  6  7  1  0
  6 29  1  6
  7  8  1  0
  7 30  1  0
  7 31  1  0
  8 22  1  0
  8  9  1  0
  8 32  1  1
  9 19  1  0
  9 10  1  0
  9 33  1  6
 10 11  1  0
 11 12  1  0
 11 18  1  0
 11 34  1  1
 12 17  1  0
 12 13  2  0
 13 14  1  0
 13 35  1  0
 14 15  2  0
 14 36  1  0
 15 16  1  0
 15 37  1  0
 16 17  2  0
 16 38  1  0
 17 39  1  0
 18 19  1  0
 19 20  1  0
 19 40  1  6
 20 21  1  0
 20 22  1  0
 20 41  1  6
 21 42  1  0
 22 23  1  1
 22 24  1  0
 23 43  1  0
 23 44  1  0
 23 45  1  0
 24 46  1  1
M  END
>  <i_m_ct_stereo_status>  (89) 
1

>  <s_m_source_file>  (89) 
/var/tmp/pbs.5076255.sched01/tmpj20d55gn/0_c3see42.sdf

>  <i_m_source_file_index>  (89) 
34

>  <i_lp_mmshare_version>  (89) 
48012

>  <i_f3d_flags>  (89) 
0

>  <s_epik_input>  (89) 
Tz1DKE8xKVtDQEBIXShbQ0gzXSlbQ0BIXTJbQ0BIXTFbQ0gyXVtDQEhdKFtDQF0yM1tDSDNdKVtDQEhdNFtDQEBIXShbQ0BIXTNbT0hdKU9bQ0BASF0oTzQpYzVbY0hdW2NIXVtjSF1bY0hdW2NIXTU=

>  <s_epik_cmdline>  (89) 
J2VwaWtfcHl0aG9uJywgJy1waHQnLCAnMi4wJywgJy1waCcsICc3LjAnLCAnLXRuJywgJzgnLCAnLW1hJywgJzIwMCcsICctaW1hZScsICc8aW5maWxlLm1hZT4nLCAnLW9tYWUnLCAnPG91dGZpbGUubWFlPic=

>  <r_lp_tautomer_probability>  (89) 
1

>  <r_epik_Ionization_Penalty>  (89) 
2.48289e-07

>  <r_epik_Ionization_Penalty_Charging>  (89) 
0

>  <r_epik_Ionization_Penalty_Neutral>  (89) 
2.48289e-07

>  <r_epik_State_Penalty>  (89) 
-0

>  <r_epik_Charging_Adjusted_Penalty>  (89) 
0

>  <i_epik_Tot_Q>  (89) 
0

>  <i_epik_Tot_abs_Q>  (89) 
0

>  <s_epik_Chemistry_Notes>  (89) 
This compound has an ester and may undergo hydrolysis at high or low pH. This compound contains an acetal/aminal-like group ( X-CH(R)-Y where X, Y are N, S, or O) that may be acid/base labile, releasing an aldehyde.

>  <s_lp_Force_Field>  (89) 
OPLS3e

>  <r_lp_Energy>  (89) 
15.7556

>  <b_lp_Chiralities_Consistent>  (89) 
1

>  <s_lp_Variant>  (89) 
23:0-1

>  <s_i_glide_gridfile>  (89) 
pfpi4k_grid

>  <i_i_glide_lignum>  (89) 
34

>  <i_i_glide_rotatable_bonds>  (89) 
2

>  <r_i_docking_score>  (89) 
-3.31592

>  <r_i_glide_ligand_efficiency>  (89) 
-0.138163

>  <r_i_glide_ligand_efficiency_sa>  (89) 
-0.398531

>  <r_i_glide_ligand_efficiency_ln>  (89) 
-0.793651

>  <r_i_glide_gscore>  (89) 
-3.31592

>  <r_i_glide_lipo>  (89) 
-0.00497612

>  <r_i_glide_hbond>  (89) 
-0.149955

>  <r_i_glide_metal>  (89) 
-0

>  <r_i_glide_rewards>  (89) 
-1.15735

>  <r_i_glide_evdw>  (89) 
-23.2484

>  <r_i_glide_ecoul>  (89) 
-6.3554

>  <r_i_glide_erotb>  (89) 
0.172311

>  <r_i_glide_esite>  (89) 
-0.0602128

>  <r_i_glide_emodel>  (89) 
-37.0474

>  <r_i_glide_energy>  (89) 
-29.6038

>  <r_i_glide_einternal>  (89) 
1.00149

>  <r_i_glide_intrahb_reward>  (89) 
-0

>  <i_i_glide_confnum>  (89) 
2

>  <i_i_glide_posenum>  (89) 
2

>  <r_i_glide_eff_state_penalty>  (89) 
0

>  <ligand_id>  (89) 
23

>  <original_smiles>  (89) 
CC1C(=O)OC2CC3C4OC(c5ccccc5)OC4C(O)C3(C)C21

>  <smiles>  (89) 
[H]OC1([H])C2([H])OC([H])(c3c([H])c([H])c([H])c([H])c3[H])OC2([H])C2([H])C([H])([H])C3([H])OC(=O)C([H])(C([H])([H])[H])C3([H])C12C([H])([H])[H]

$$$$
24:0:0
     RDKit          3D

 61 66  0  0  1  0  0  0  0  0999 V2000
    2.3680   -3.0568   -2.4797 C   0  0  0  0  0  0  0  0  0  0  0  0
    3.5289   -3.0825   -1.7971 C   0  0  0  0  0  0  0  0  0  0  0  0
    4.7474   -2.3776   -2.3621 C   0  0  0  0  0  0  0  0  0  0  0  0
    5.2940   -1.3811   -1.3475 C   0  0  0  0  0  0  0  0  0  0  0  0
    5.5912   -2.0541   -0.0024 C   0  0  0  0  0  0  0  0  0  0  0  0
    4.3675   -2.7983    0.6201 C   0  0  1  0  0  0  0  0  0  0  0  0
    3.2929   -1.7248    0.9515 C   0  0  0  0  0  0  0  0  0  0  0  0
    3.7872   -3.7807   -0.4455 C   0  0  1  0  0  0  0  0  0  0  0  0
    2.6208   -4.6606    0.1072 C   0  0  0  0  0  0  0  0  0  0  0  0
    2.5549   -4.8790    1.6419 C   0  0  0  0  0  0  0  0  0  0  0  0
    3.8964   -4.7992    2.3797 C   0  0  1  0  0  0  0  0  0  0  0  0
    4.9510   -5.7612    1.7976 C   0  0  0  0  0  0  0  0  0  0  0  0
    5.9529   -4.6216    1.7507 C   0  0  0  0  0  0  0  0  0  0  0  0
    4.7995   -3.6014    1.9033 C   0  0  1  0  0  0  0  0  0  0  0  0
    5.1091   -2.6060    3.0381 C   0  0  0  0  0  0  0  0  0  0  0  0
    4.5589   -2.5834    4.2721 C   0  0  0  0  0  0  0  0  0  0  0  0
    4.8680   -1.4828    5.2705 C   0  0  0  0  0  0  0  0  0  0  0  0
    3.6233   -3.6845    4.7503 C   0  0  2  0  0  0  0  0  0  0  0  0
    2.1201   -3.3495    4.6347 C   0  0  0  0  0  0  0  0  0  0  0  0
    1.4593   -4.7438    4.6013 C   0  0  0  0  0  0  0  0  0  0  0  0
    2.6729   -5.6998    4.6651 C   0  0  2  0  0  0  0  0  0  0  0  0
    3.1910   -5.6385    6.1296 C   0  0  1  0  0  0  0  0  0  0  0  0
    4.1260   -6.7948    6.5301 C   0  0  0  0  0  0  0  0  0  0  0  0
    3.8742   -4.2457    6.1778 C   0  0  0  0  0  0  0  0  0  0  0  0
    3.8002   -4.9557    3.9342 C   0  0  1  0  0  0  0  0  0  0  0  0
    1.4715   -3.5527   -2.1350 H   0  0  0  0  0  0  0  0  0  0  0  0
    2.2927   -2.5270   -3.4204 H   0  0  0  0  0  0  0  0  0  0  0  0
    5.5082   -3.1214   -2.6093 H   0  0  0  0  0  0  0  0  0  0  0  0
    4.4971   -1.8648   -3.2905 H   0  0  0  0  0  0  0  0  0  0  0  0
    6.2104   -0.9596   -1.7432 H   0  0  0  0  0  0  0  0  0  0  0  0
    4.5953   -0.5532   -1.2194 H   0  0  0  0  0  0  0  0  0  0  0  0
    6.4160   -2.7402   -0.1713 H   0  0  0  0  0  0  0  0  0  0  0  0
    5.9719   -1.2975    0.6803 H   0  0  0  0  0  0  0  0  0  0  0  0
    2.4608   -2.1125    1.5292 H   0  0  0  0  0  0  0  0  0  0  0  0
    2.8557   -1.3096    0.0450 H   0  0  0  0  0  0  0  0  0  0  0  0
    3.7068   -0.8812    1.5019 H   0  0  0  0  0  0  0  0  0  0  0  0
    4.5851   -4.4834   -0.7011 H   0  0  0  0  0  0  0  0  0  0  0  0
    1.6654   -4.2538   -0.2000 H   0  0  0  0  0  0  0  0  0  0  0  0
    2.6923   -5.6495   -0.3417 H   0  0  0  0  0  0  0  0  0  0  0  0
    1.8837   -4.1159    2.0152 H   0  0  0  0  0  0  0  0  0  0  0  0
    2.0630   -5.8294    1.8438 H   0  0  0  0  0  0  0  0  0  0  0  0
    5.2511   -6.5769    2.4563 H   0  0  0  0  0  0  0  0  0  0  0  0
    4.7132   -6.1561    0.8094 H   0  0  0  0  0  0  0  0  0  0  0  0
    6.6396   -4.6530    2.5945 H   0  0  0  0  0  0  0  0  0  0  0  0
    6.4921   -4.6210    0.8037 H   0  0  0  0  0  0  0  0  0  0  0  0
    5.7914   -1.8140    2.7739 H   0  0  0  0  0  0  0  0  0  0  0  0
    3.9449   -1.0216    5.6261 H   0  0  0  0  0  0  0  0  0  0  0  0
    5.4829   -0.6990    4.8215 H   0  0  0  0  0  0  0  0  0  0  0  0
    5.4052   -1.8768    6.1343 H   0  0  0  0  0  0  0  0  0  0  0  0
    1.7759   -2.7559    5.4822 H   0  0  0  0  0  0  0  0  0  0  0  0
    1.9050   -2.7786    3.7323 H   0  0  0  0  0  0  0  0  0  0  0  0
    0.7799   -4.8882    5.4428 H   0  0  0  0  0  0  0  0  0  0  0  0
    0.8614   -4.8938    3.7057 H   0  0  0  0  0  0  0  0  0  0  0  0
    2.4697   -6.7132    4.3176 H   0  0  0  0  0  0  0  0  0  0  0  0
    2.3520   -5.6563    6.8262 H   0  0  0  0  0  0  0  0  0  0  0  0
    5.0184   -6.8467    5.9063 H   0  0  0  0  0  0  0  0  0  0  0  0
    3.6113   -7.7528    6.4502 H   0  0  0  0  0  0  0  0  0  0  0  0
    4.4566   -6.6886    7.5643 H   0  0  0  0  0  0  0  0  0  0  0  0
    4.9405   -4.3328    6.3917 H   0  0  0  0  0  0  0  0  0  0  0  0
    3.4395   -3.6071    6.9481 H   0  0  0  0  0  0  0  0  0  0  0  0
    4.7533   -5.3952    4.2333 H   0  0  0  0  0  0  0  0  0  0  0  0
  1  2  2  0
  1 26  1  0
  1 27  1  0
  2  8  1  0
  2  3  1  0
  3  4  1  0
  3 28  1  0
  3 29  1  0
  4  5  1  0
  4 30  1  0
  4 31  1  0
  5  6  1  0
  5 32  1  0
  5 33  1  0
  6 14  1  0
  6  7  1  1
  6  8  1  0
  7 34  1  0
  7 35  1  0
  7 36  1  0
  8  9  1  0
  8 37  1  6
  9 10  1  0
  9 38  1  0
  9 39  1  0
 11 10  1  6
 10 40  1  0
 10 41  1  0
 11 14  1  0
 11 25  1  0
 11 12  1  0
 12 13  1  0
 12 42  1  0
 12 43  1  0
 14 13  1  6
 13 44  1  0
 13 45  1  0
 14 15  1  0
 15 16  2  0
 15 46  1  0
 16 17  1  0
 16 18  1  0
 17 47  1  0
 17 48  1  0
 17 49  1  0
 18 24  1  1
 18 25  1  0
 18 19  1  0
 19 20  1  0
 19 50  1  0
 19 51  1  0
 20 21  1  0
 20 52  1  0
 20 53  1  0
 21 22  1  0
 21 25  1  0
 21 54  1  6
 22 23  1  0
 22 24  1  0
 22 55  1  1
 23 56  1  0
 23 57  1  0
 23 58  1  0
 24 59  1  0
 24 60  1  0
 25 61  1  1
M  END
>  <i_m_ct_stereo_status>  (90) 
1

>  <s_m_source_file>  (90) 
/var/tmp/pbs.5076255.sched01/tmpj20d55gn/0_c3see42.sdf

>  <i_m_source_file_index>  (90) 
35

>  <i_lp_mmshare_version>  (90) 
48012

>  <i_f3d_flags>  (90) 
0

>  <s_epik_input>  (90) 
W0NIMl0xW0NIMl1bQ0gyXUMoPVtDSDJdKVtDQEhdKFtDSDJdW0NIMl0yKVtDQEBdMShbQ0gzXSlbQ0BAXShbQ0BAXTIzNCkoW0NIMl1bQ0gyXTMpW0NIXT1DKFtDSDNdKVtDQF01NltDQEhdNFtDQEhdKFtDSDJdW0NIMl01KVtDQEBIXShbQ0gzXSlbQ0gyXTY=

>  <s_epik_cmdline>  (90) 
J2VwaWtfcHl0aG9uJywgJy1waHQnLCAnMi4wJywgJy1waCcsICc3LjAnLCAnLXRuJywgJzgnLCAnLW1hJywgJzIwMCcsICctaW1hZScsICc8aW5maWxlLm1hZT4nLCAnLW9tYWUnLCAnPG91dGZpbGUubWFlPic=

>  <r_lp_tautomer_probability>  (90) 
1

>  <r_epik_Ionization_Penalty>  (90) 
0

>  <r_epik_Ionization_Penalty_Charging>  (90) 
0

>  <r_epik_Ionization_Penalty_Neutral>  (90) 
0

>  <r_epik_State_Penalty>  (90) 
-0

>  <r_epik_Charging_Adjusted_Penalty>  (90) 
0

>  <i_epik_Tot_Q>  (90) 
0

>  <i_epik_Tot_abs_Q>  (90) 
0

>  <s_lp_Force_Field>  (90) 
OPLS3e

>  <r_lp_Energy>  (90) 
90.5078

>  <b_lp_Chiralities_Consistent>  (90) 
1

>  <s_lp_Variant>  (90) 
24:0-1

>  <s_i_glide_gridfile>  (90) 
pfpi4k_grid

>  <i_i_glide_lignum>  (90) 
35

>  <i_i_glide_rotatable_bonds>  (90) 
0

>  <r_i_docking_score>  (90) 
-2.52976

>  <r_i_glide_ligand_efficiency>  (90) 
-0.10119

>  <r_i_glide_ligand_efficiency_sa>  (90) 
-0.295882

>  <r_i_glide_ligand_efficiency_ln>  (90) 
-0.599628

>  <r_i_glide_gscore>  (90) 
-2.52976

>  <r_i_glide_lipo>  (90) 
-0.390211

>  <r_i_glide_hbond>  (90) 
0

>  <r_i_glide_metal>  (90) 
-0

>  <r_i_glide_rewards>  (90) 
-1.11441

>  <r_i_glide_evdw>  (90) 
-21.4712

>  <r_i_glide_ecoul>  (90) 
0.32283

>  <r_i_glide_erotb>  (90) 
0

>  <r_i_glide_esite>  (90) 
0

>  <r_i_glide_emodel>  (90) 
-24.17

>  <r_i_glide_energy>  (90) 
-21.1484

>  <r_i_glide_einternal>  (90) 
0

>  <r_i_glide_intrahb_reward>  (90) 
-0

>  <i_i_glide_confnum>  (90) 
1

>  <i_i_glide_posenum>  (90) 
2

>  <r_i_glide_eff_state_penalty>  (90) 
0

>  <ligand_id>  (90) 
24

>  <original_smiles>  (90) 
C=C1CCCC2(C)C1CCC13CCC21C=C(C)C12CCC(C(C)C1)C23

>  <smiles>  (90) 
[H]C([H])=C1C([H])([H])C([H])([H])C([H])([H])C2(C([H])([H])[H])C1([H])C([H])([H])C([H])([H])C13C([H])([H])C([H])([H])C21C([H])=C(C([H])([H])[H])C12C([H])([H])C([H])([H])C([H])(C([H])(C([H])([H])[H])C1([H])[H])C23[H]

$$$$
24:0:1
     RDKit          3D

 61 66  0  0  1  0  0  0  0  0999 V2000
    3.3379   -3.0498   -2.1026 C   0  0  0  0  0  0  0  0  0  0  0  0
    4.2167   -2.9866   -1.0835 C   0  0  0  0  0  0  0  0  0  0  0  0
    5.3767   -2.0039   -1.1403 C   0  0  0  0  0  0  0  0  0  0  0  0
    5.3707   -1.0916    0.0887 C   0  0  0  0  0  0  0  0  0  0  0  0
    5.3639   -1.9183    1.3834 C   0  0  0  0  0  0  0  0  0  0  0  0
    4.1852   -2.9424    1.4891 C   0  0  1  0  0  0  0  0  0  0  0  0
    2.8634   -2.1235    1.5385 C   0  0  0  0  0  0  0  0  0  0  0  0
    4.1745   -3.8315    0.2046 C   0  0  1  0  0  0  0  0  0  0  0  0
    3.0986   -4.9628    0.2469 C   0  0  0  0  0  0  0  0  0  0  0  0
    2.6146   -5.4330    1.6448 C   0  0  0  0  0  0  0  0  0  0  0  0
    3.6146   -5.2444    2.7967 C   0  0  1  0  0  0  0  0  0  0  0  0
    4.9696   -5.9217    2.5122 C   0  0  0  0  0  0  0  0  0  0  0  0
    5.6810   -4.6419    2.9080 C   0  0  0  0  0  0  0  0  0  0  0  0
    4.3560   -3.8541    2.7635 C   0  0  1  0  0  0  0  0  0  0  0  0
    4.0966   -3.0122    4.0274 C   0  0  0  0  0  0  0  0  0  0  0  0
    3.1993   -3.2704    5.0048 C   0  0  0  0  0  0  0  0  0  0  0  0
    2.9519   -2.3031    6.1489 C   0  0  0  0  0  0  0  0  0  0  0  0
    2.4052   -4.5688    5.0373 C   0  0  2  0  0  0  0  0  0  0  0  0
    0.9763   -4.4686    4.4632 C   0  0  0  0  0  0  0  0  0  0  0  0
    0.6558   -5.9304    4.0818 C   0  0  0  0  0  0  0  0  0  0  0  0
    1.9570   -6.6746    4.4550 C   0  0  2  0  0  0  0  0  0  0  0  0
    1.9749   -6.7566    6.0064 C   0  0  1  0  0  0  0  0  0  0  0  0
    2.9538   -7.7942    6.5841 C   0  0  0  0  0  0  0  0  0  0  0  0
    2.3120   -5.2950    6.4084 C   0  0  0  0  0  0  0  0  0  0  0  0
    3.0776   -5.6528    4.2102 C   0  0  1  0  0  0  0  0  0  0  0  0
    2.5031   -3.7360   -2.1190 H   0  0  0  0  0  0  0  0  0  0  0  0
    3.4480   -2.4018   -2.9582 H   0  0  0  0  0  0  0  0  0  0  0  0
    6.3116   -2.5674   -1.1894 H   0  0  0  0  0  0  0  0  0  0  0  0
    5.3203   -1.4040   -2.0485 H   0  0  0  0  0  0  0  0  0  0  0  0
    6.2455   -0.4415    0.0781 H   0  0  0  0  0  0  0  0  0  0  0  0
    4.5064   -0.4285    0.0550 H   0  0  0  0  0  0  0  0  0  0  0  0
    6.3237   -2.4266    1.4347 H   0  0  0  0  0  0  0  0  0  0  0  0
    5.3529   -1.2275    2.2244 H   0  0  0  0  0  0  0  0  0  0  0  0
    1.9945   -2.7271    1.7789 H   0  0  0  0  0  0  0  0  0  0  0  0
    2.6418   -1.6530    0.5806 H   0  0  0  0  0  0  0  0  0  0  0  0
    2.9088   -1.3199    2.2716 H   0  0  0  0  0  0  0  0  0  0  0  0
    5.1374   -4.3462    0.1703 H   0  0  0  0  0  0  0  0  0  0  0  0
    2.1997   -4.6785   -0.2947 H   0  0  0  0  0  0  0  0  0  0  0  0
    3.5081   -5.8203   -0.2893 H   0  0  0  0  0  0  0  0  0  0  0  0
    1.7263   -4.8513    1.8502 H   0  0  0  0  0  0  0  0  0  0  0  0
    2.2835   -6.4705    1.5836 H   0  0  0  0  0  0  0  0  0  0  0  0
    5.2103   -6.7697    3.1542 H   0  0  0  0  0  0  0  0  0  0  0  0
    5.1340   -6.1897    1.4681 H   0  0  0  0  0  0  0  0  0  0  0  0
    6.0633   -4.6858    3.9287 H   0  0  0  0  0  0  0  0  0  0  0  0
    6.4713   -4.4065    2.1997 H   0  0  0  0  0  0  0  0  0  0  0  0
    4.6531   -2.0889    4.0832 H   0  0  0  0  0  0  0  0  0  0  0  0
    1.8897   -2.0599    6.2186 H   0  0  0  0  0  0  0  0  0  0  0  0
    3.5003   -1.3690    6.0059 H   0  0  0  0  0  0  0  0  0  0  0  0
    3.2641   -2.7342    7.1010 H   0  0  0  0  0  0  0  0  0  0  0  0
    0.2728   -4.0786    5.1997 H   0  0  0  0  0  0  0  0  0  0  0  0
    0.9366   -3.8082    3.6003 H   0  0  0  0  0  0  0  0  0  0  0  0
   -0.2060   -6.3133    4.6305 H   0  0  0  0  0  0  0  0  0  0  0  0
    0.4130   -6.0401    3.0290 H   0  0  0  0  0  0  0  0  0  0  0  0
    2.0838   -7.6408    3.9656 H   0  0  0  0  0  0  0  0  0  0  0  0
    0.9834   -7.0191    6.3787 H   0  0  0  0  0  0  0  0  0  0  0  0
    3.9853   -7.6057    6.2887 H   0  0  0  0  0  0  0  0  0  0  0  0
    2.6939   -8.7993    6.2509 H   0  0  0  0  0  0  0  0  0  0  0  0
    2.9209   -7.7973    7.6751 H   0  0  0  0  0  0  0  0  0  0  0  0
    3.2529   -5.2418    6.9577 H   0  0  0  0  0  0  0  0  0  0  0  0
    1.5399   -4.8638    7.0479 H   0  0  0  0  0  0  0  0  0  0  0  0
    3.9607   -5.9725    4.7673 H   0  0  0  0  0  0  0  0  0  0  0  0
  1  2  2  0
  1 26  1  0
  1 27  1  0
  2  8  1  0
  2  3  1  0
  3  4  1  0
  3 28  1  0
  3 29  1  0
  4  5  1  0
  4 30  1  0
  4 31  1  0
  5  6  1  0
  5 32  1  0
  5 33  1  0
  6 14  1  0
  6  7  1  1
  6  8  1  0
  7 34  1  0
  7 35  1  0
  7 36  1  0
  8  9  1  0
  8 37  1  1
  9 10  1  0
  9 38  1  0
  9 39  1  0
 11 10  1  6
 10 40  1  0
 10 41  1  0
 11 14  1  0
 11 25  1  0
 11 12  1  0
 12 13  1  0
 12 42  1  0
 12 43  1  0
 14 13  1  1
 13 44  1  0
 13 45  1  0
 14 15  1  0
 15 16  2  0
 15 46  1  0
 16 17  1  0
 16 18  1  0
 17 47  1  0
 17 48  1  0
 17 49  1  0
 18 24  1  1
 18 25  1  0
 18 19  1  0
 19 20  1  0
 19 50  1  0
 19 51  1  0
 20 21  1  0
 20 52  1  0
 20 53  1  0
 21 22  1  0
 21 25  1  0
 21 54  1  6
 22 23  1  0
 22 24  1  0
 22 55  1  1
 23 56  1  0
 23 57  1  0
 23 58  1  0
 24 59  1  0
 24 60  1  0
 25 61  1  1
M  END
>  <i_m_ct_stereo_status>  (91) 
1

>  <s_m_source_file>  (91) 
/var/tmp/pbs.5076255.sched01/tmpj20d55gn/0_c3see42.sdf

>  <i_m_source_file_index>  (91) 
35

>  <i_lp_mmshare_version>  (91) 
48012

>  <i_f3d_flags>  (91) 
0

>  <s_epik_input>  (91) 
W0NIMl0xW0NIMl1bQ0gyXUMoPVtDSDJdKVtDQEhdKFtDSDJdW0NIMl0yKVtDQEBdMShbQ0gzXSlbQ0BAXShbQ0BAXTIzNCkoW0NIMl1bQ0gyXTMpW0NIXT1DKFtDSDNdKVtDQF01NltDQEhdNFtDQEhdKFtDSDJdW0NIMl01KVtDQEBIXShbQ0gzXSlbQ0gyXTY=

>  <s_epik_cmdline>  (91) 
J2VwaWtfcHl0aG9uJywgJy1waHQnLCAnMi4wJywgJy1waCcsICc3LjAnLCAnLXRuJywgJzgnLCAnLW1hJywgJzIwMCcsICctaW1hZScsICc8aW5maWxlLm1hZT4nLCAnLW9tYWUnLCAnPG91dGZpbGUubWFlPic=

>  <r_lp_tautomer_probability>  (91) 
1

>  <r_epik_Ionization_Penalty>  (91) 
0

>  <r_epik_Ionization_Penalty_Charging>  (91) 
0

>  <r_epik_Ionization_Penalty_Neutral>  (91) 
0

>  <r_epik_State_Penalty>  (91) 
-0

>  <r_epik_Charging_Adjusted_Penalty>  (91) 
0

>  <i_epik_Tot_Q>  (91) 
0

>  <i_epik_Tot_abs_Q>  (91) 
0

>  <s_lp_Force_Field>  (91) 
OPLS3e

>  <r_lp_Energy>  (91) 
90.5078

>  <b_lp_Chiralities_Consistent>  (91) 
1

>  <s_lp_Variant>  (91) 
24:0-1

>  <s_i_glide_gridfile>  (91) 
pfpi4k_grid

>  <i_i_glide_lignum>  (91) 
35

>  <i_i_glide_rotatable_bonds>  (91) 
0

>  <r_i_docking_score>  (91) 
-2.35374

>  <r_i_glide_ligand_efficiency>  (91) 
-0.0941496

>  <r_i_glide_ligand_efficiency_sa>  (91) 
-0.275295

>  <r_i_glide_ligand_efficiency_ln>  (91) 
-0.557907

>  <r_i_glide_gscore>  (91) 
-2.35374

>  <r_i_glide_lipo>  (91) 
-0.162676

>  <r_i_glide_hbond>  (91) 
0

>  <r_i_glide_metal>  (91) 
-0

>  <r_i_glide_rewards>  (91) 
-1.11441

>  <r_i_glide_evdw>  (91) 
-21.1748

>  <r_i_glide_ecoul>  (91) 
-0.119422

>  <r_i_glide_erotb>  (91) 
0

>  <r_i_glide_esite>  (91) 
0

>  <r_i_glide_emodel>  (91) 
-24.1502

>  <r_i_glide_energy>  (91) 
-21.2942

>  <r_i_glide_einternal>  (91) 
0

>  <r_i_glide_intrahb_reward>  (91) 
-0

>  <i_i_glide_confnum>  (91) 
2

>  <i_i_glide_posenum>  (91) 
17

>  <r_i_glide_eff_state_penalty>  (91) 
0

>  <ligand_id>  (91) 
24

>  <original_smiles>  (91) 
C=C1CCCC2(C)C1CCC13CCC21C=C(C)C12CCC(C(C)C1)C23

>  <smiles>  (91) 
[H]C([H])=C1C([H])([H])C([H])([H])C([H])([H])C2(C([H])([H])[H])C1([H])C([H])([H])C([H])([H])C13C([H])([H])C([H])([H])C21C([H])=C(C([H])([H])[H])C12C([H])([H])C([H])([H])C([H])(C([H])(C([H])([H])[H])C1([H])[H])C23[H]

$$$$
25:0:0
     RDKit          3D

 13 14  0  0  1  0  0  0  0  0999 V2000
    3.9682   -2.9316    2.7098 N   0  0  0  0  0  0  0  0  0  0  0  0
    4.2772   -2.6085    1.6426 C   0  0  0  0  0  0  0  0  0  0  0  0
    4.6551   -2.2170    0.3543 C   0  0  0  0  0  0  0  0  0  0  0  0
    5.7741   -1.5063    0.0267 C   0  0  0  0  0  0  0  0  0  0  0  0
    5.8139   -1.2926   -1.3497 N   0  0  0  0  0  0  0  0  0  0  0  0
    4.7440   -1.8814   -1.7968 C   0  0  0  0  0  0  0  0  0  0  0  0
    3.9243   -2.1769   -3.3267 S   0  0  0  0  0  0  0  0  0  0  0  0
    2.6009   -3.0581   -2.5959 C   0  0  0  0  0  0  0  0  0  0  0  0
    2.8329   -3.1094   -1.2434 C   0  0  0  0  0  0  0  0  0  0  0  0
    3.9657   -2.4788   -0.8267 N   0  0  0  0  0  0  0  0  0  0  0  0
    6.5630   -1.1220    0.6624 H   0  0  0  0  0  0  0  0  0  0  0  0
    1.7976   -3.4619   -3.1904 H   0  0  0  0  0  0  0  0  0  0  0  0
    2.2007   -3.5834   -0.5122 H   0  0  0  0  0  0  0  0  0  0  0  0
  1  2  3  0
  2  3  1  0
  3 10  1  0
  3  4  2  0
  4  5  1  0
  4 11  1  0
  5  6  2  0
  6 10  1  0
  6  7  1  0
  7  8  1  0
  8  9  2  0
  8 12  1  0
  9 10  1  0
  9 13  1  0
M  END
>  <i_m_ct_stereo_status>  (92) 
1

>  <s_m_source_file>  (92) 
/var/tmp/pbs.5076255.sched01/tmpj20d55gn/0_c3see42.sdf

>  <i_m_source_file_index>  (92) 
36

>  <i_lp_mmshare_version>  (92) 
48012

>  <i_f3d_flags>  (92) 
0

>  <s_epik_input>  (92) 
TiNDYyhbY0hdbjEpbihjMTIpW2NIXVtjSF1zMg==

>  <s_epik_cmdline>  (92) 
J2VwaWtfcHl0aG9uJywgJy1waHQnLCAnMi4wJywgJy1waCcsICc3LjAnLCAnLXRuJywgJzgnLCAnLW1hJywgJzIwMCcsICctaW1hZScsICc8aW5maWxlLm1hZT4nLCAnLW9tYWUnLCAnPG91dGZpbGUubWFlPic=

>  <r_lp_tautomer_probability>  (92) 
1

>  <r_epik_Ionization_Penalty>  (92) 
5.04287e-07

>  <r_epik_Ionization_Penalty_Charging>  (92) 
0

>  <r_epik_Ionization_Penalty_Neutral>  (92) 
5.04287e-07

>  <r_epik_State_Penalty>  (92) 
-0

>  <r_epik_Charging_Adjusted_Penalty>  (92) 
0

>  <i_epik_Tot_Q>  (92) 
0

>  <i_epik_Tot_abs_Q>  (92) 
0

>  <s_lp_Force_Field>  (92) 
OPLS3e

>  <r_lp_Energy>  (92) 
2.72991

>  <b_lp_Chiralities_Consistent>  (92) 
1

>  <s_lp_Variant>  (92) 
25:0-1

>  <s_i_glide_gridfile>  (92) 
pfpi4k_grid

>  <i_i_glide_lignum>  (92) 
36

>  <i_i_glide_rotatable_bonds>  (92) 
1

>  <r_i_docking_score>  (92) 
-3.76815

>  <r_i_glide_ligand_efficiency>  (92) 
-0.376815

>  <r_i_glide_ligand_efficiency_sa>  (92) 
-0.811822

>  <r_i_glide_ligand_efficiency_ln>  (92) 
-1.14097

>  <r_i_glide_gscore>  (92) 
-3.76815

>  <r_i_glide_lipo>  (92) 
-0.173788

>  <r_i_glide_hbond>  (92) 
-0.0773648

>  <r_i_glide_metal>  (92) 
-0

>  <r_i_glide_rewards>  (92) 
-2.26206

>  <r_i_glide_evdw>  (92) 
-16.0344

>  <r_i_glide_ecoul>  (92) 
-2.66524

>  <r_i_glide_erotb>  (92) 
0

>  <r_i_glide_esite>  (92) 
-0.0534328

>  <r_i_glide_emodel>  (92) 
-23.4416

>  <r_i_glide_energy>  (92) 
-18.6996

>  <r_i_glide_einternal>  (92) 
-0.269999

>  <r_i_glide_intrahb_reward>  (92) 
-0

>  <i_i_glide_confnum>  (92) 
1

>  <i_i_glide_posenum>  (92) 
7

>  <r_i_glide_eff_state_penalty>  (92) 
0

>  <ligand_id>  (92) 
25

>  <original_smiles>  (92) 
N#Cc1cnc2sccn12

>  <smiles>  (92) 
[H]c1nc2sc([H])c([H])n2c1C#N

$$$$
25:0:1
     RDKit          3D

 13 14  0  0  1  0  0  0  0  0999 V2000
   -0.2224    5.3355    6.1027 N   0  0  0  0  0  0  0  0  0  0  0  0
   -0.5724    4.2338    6.1408 C   0  0  0  0  0  0  0  0  0  0  0  0
   -0.9982    2.8972    6.1821 C   0  0  0  0  0  0  0  0  0  0  0  0
   -1.6266    2.2774    7.2322 C   0  0  0  0  0  0  0  0  0  0  0  0
   -1.8976    0.9448    6.9133 N   0  0  0  0  0  0  0  0  0  0  0  0
   -1.4124    0.8181    5.7071 C   0  0  0  0  0  0  0  0  0  0  0  0
   -1.2333   -0.4202    4.4748 S   0  0  0  0  0  0  0  0  0  0  0  0
   -0.4497    0.6446    3.3188 C   0  0  0  0  0  0  0  0  0  0  0  0
   -0.3367    1.8800    3.9005 C   0  0  0  0  0  0  0  0  0  0  0  0
   -0.8489    1.9629    5.1698 N   0  0  0  0  0  0  0  0  0  0  0  0
   -1.9055    2.6784    8.1949 H   0  0  0  0  0  0  0  0  0  0  0  0
   -0.1410    0.3035    2.3370 H   0  0  0  0  0  0  0  0  0  0  0  0
    0.1116    2.7514    3.4334 H   0  0  0  0  0  0  0  0  0  0  0  0
  1  2  3  0
  2  3  1  0
  3 10  1  0
  3  4  2  0
  4  5  1  0
  4 11  1  0
  5  6  2  0
  6 10  1  0
  6  7  1  0
  7  8  1  0
  8  9  2  0
  8 12  1  0
  9 10  1  0
  9 13  1  0
M  END
>  <i_m_ct_stereo_status>  (93) 
1

>  <s_m_source_file>  (93) 
/var/tmp/pbs.5076255.sched01/tmpj20d55gn/0_c3see42.sdf

>  <i_m_source_file_index>  (93) 
36

>  <i_lp_mmshare_version>  (93) 
48012

>  <i_f3d_flags>  (93) 
0

>  <s_epik_input>  (93) 
TiNDYyhbY0hdbjEpbihjMTIpW2NIXVtjSF1zMg==

>  <s_epik_cmdline>  (93) 
J2VwaWtfcHl0aG9uJywgJy1waHQnLCAnMi4wJywgJy1waCcsICc3LjAnLCAnLXRuJywgJzgnLCAnLW1hJywgJzIwMCcsICctaW1hZScsICc8aW5maWxlLm1hZT4nLCAnLW9tYWUnLCAnPG91dGZpbGUubWFlPic=

>  <r_lp_tautomer_probability>  (93) 
1

>  <r_epik_Ionization_Penalty>  (93) 
5.04287e-07

>  <r_epik_Ionization_Penalty_Charging>  (93) 
0

>  <r_epik_Ionization_Penalty_Neutral>  (93) 
5.04287e-07

>  <r_epik_State_Penalty>  (93) 
-0

>  <r_epik_Charging_Adjusted_Penalty>  (93) 
0

>  <i_epik_Tot_Q>  (93) 
0

>  <i_epik_Tot_abs_Q>  (93) 
0

>  <s_lp_Force_Field>  (93) 
OPLS3e

>  <r_lp_Energy>  (93) 
2.72991

>  <b_lp_Chiralities_Consistent>  (93) 
1

>  <s_lp_Variant>  (93) 
25:0-1

>  <s_i_glide_gridfile>  (93) 
pfpi4k_grid

>  <i_i_glide_lignum>  (93) 
36

>  <i_i_glide_rotatable_bonds>  (93) 
1

>  <r_i_docking_score>  (93) 
-3.69736

>  <r_i_glide_ligand_efficiency>  (93) 
-0.369736

>  <r_i_glide_ligand_efficiency_sa>  (93) 
-0.796573

>  <r_i_glide_ligand_efficiency_ln>  (93) 
-1.11954

>  <r_i_glide_gscore>  (93) 
-3.69736

>  <r_i_glide_lipo>  (93) 
-0.00313817

>  <r_i_glide_hbond>  (93) 
-0.16

>  <r_i_glide_metal>  (93) 
-0

>  <r_i_glide_rewards>  (93) 
-2.25

>  <r_i_glide_evdw>  (93) 
-11.7857

>  <r_i_glide_ecoul>  (93) 
-4.2226

>  <r_i_glide_erotb>  (93) 
0

>  <r_i_glide_esite>  (93) 
-0.0615515

>  <r_i_glide_emodel>  (93) 
-20.6678

>  <r_i_glide_energy>  (93) 
-16.0083

>  <r_i_glide_einternal>  (93) 
-0.279694

>  <r_i_glide_intrahb_reward>  (93) 
-0

>  <i_i_glide_confnum>  (93) 
2

>  <i_i_glide_posenum>  (93) 
10

>  <r_i_glide_eff_state_penalty>  (93) 
0

>  <ligand_id>  (93) 
25

>  <original_smiles>  (93) 
N#Cc1cnc2sccn12

>  <smiles>  (93) 
[H]c1nc2sc([H])c([H])n2c1C#N

$$$$
25:0:2
     RDKit          3D

 13 14  0  0  1  0  0  0  0  0999 V2000
    1.4722   -2.8937    3.5435 N   0  0  0  0  0  0  0  0  0  0  0  0
    0.7359   -2.1388    4.0062 C   0  0  0  0  0  0  0  0  0  0  0  0
   -0.1642   -1.2213    4.5655 C   0  0  0  0  0  0  0  0  0  0  0  0
   -0.9458   -1.4295    5.6691 C   0  0  0  0  0  0  0  0  0  0  0  0
   -1.7249   -0.3018    5.9415 N   0  0  0  0  0  0  0  0  0  0  0  0
   -1.3814    0.5353    4.9974 C   0  0  0  0  0  0  0  0  0  0  0  0
   -1.7521    2.1636    4.4605 S   0  0  0  0  0  0  0  0  0  0  0  0
   -0.6416    2.1102    3.1158 C   0  0  0  0  0  0  0  0  0  0  0  0
   -0.0354    0.8843    3.0924 C   0  0  0  0  0  0  0  0  0  0  0  0
   -0.4326    0.0595    4.1035 N   0  0  0  0  0  0  0  0  0  0  0  0
   -1.0000   -2.3174    6.2875 H   0  0  0  0  0  0  0  0  0  0  0  0
   -0.5175    2.9610    2.4786 H   0  0  0  0  0  0  0  0  0  0  0  0
    0.6991    0.5595    2.3618 H   0  0  0  0  0  0  0  0  0  0  0  0
  1  2  3  0
  2  3  1  0
  3 10  1  0
  3  4  2  0
  4  5  1  0
  4 11  1  0
  5  6  2  0
  6 10  1  0
  6  7  1  0
  7  8  1  0
  8  9  2  0
  8 12  1  0
  9 10  1  0
  9 13  1  0
M  END
>  <i_m_ct_stereo_status>  (94) 
1

>  <s_m_source_file>  (94) 
/var/tmp/pbs.5076255.sched01/tmpj20d55gn/0_c3see42.sdf

>  <i_m_source_file_index>  (94) 
36

>  <i_lp_mmshare_version>  (94) 
48012

>  <i_f3d_flags>  (94) 
0

>  <s_epik_input>  (94) 
TiNDYyhbY0hdbjEpbihjMTIpW2NIXVtjSF1zMg==

>  <s_epik_cmdline>  (94) 
J2VwaWtfcHl0aG9uJywgJy1waHQnLCAnMi4wJywgJy1waCcsICc3LjAnLCAnLXRuJywgJzgnLCAnLW1hJywgJzIwMCcsICctaW1hZScsICc8aW5maWxlLm1hZT4nLCAnLW9tYWUnLCAnPG91dGZpbGUubWFlPic=

>  <r_lp_tautomer_probability>  (94) 
1

>  <r_epik_Ionization_Penalty>  (94) 
5.04287e-07

>  <r_epik_Ionization_Penalty_Charging>  (94) 
0

>  <r_epik_Ionization_Penalty_Neutral>  (94) 
5.04287e-07

>  <r_epik_State_Penalty>  (94) 
-0

>  <r_epik_Charging_Adjusted_Penalty>  (94) 
0

>  <i_epik_Tot_Q>  (94) 
0

>  <i_epik_Tot_abs_Q>  (94) 
0

>  <s_lp_Force_Field>  (94) 
OPLS3e

>  <r_lp_Energy>  (94) 
2.72991

>  <b_lp_Chiralities_Consistent>  (94) 
1

>  <s_lp_Variant>  (94) 
25:0-1

>  <s_i_glide_gridfile>  (94) 
pfpi4k_grid

>  <i_i_glide_lignum>  (94) 
36

>  <i_i_glide_rotatable_bonds>  (94) 
1

>  <r_i_docking_score>  (94) 
-3.64696

>  <r_i_glide_ligand_efficiency>  (94) 
-0.364696

>  <r_i_glide_ligand_efficiency_sa>  (94) 
-0.785713

>  <r_i_glide_ligand_efficiency_ln>  (94) 
-1.10427

>  <r_i_glide_gscore>  (94) 
-3.64696

>  <r_i_glide_lipo>  (94) 
0

>  <r_i_glide_hbond>  (94) 
-0.11954

>  <r_i_glide_metal>  (94) 
-0

>  <r_i_glide_rewards>  (94) 
-2.28554

>  <r_i_glide_evdw>  (94) 
-12.9997

>  <r_i_glide_ecoul>  (94) 
-3.58651

>  <r_i_glide_erotb>  (94) 
0

>  <r_i_glide_esite>  (94) 
-0.0539143

>  <r_i_glide_emodel>  (94) 
-21.1659

>  <r_i_glide_energy>  (94) 
-16.5863

>  <r_i_glide_einternal>  (94) 
-0.270028

>  <r_i_glide_intrahb_reward>  (94) 
-0

>  <i_i_glide_confnum>  (94) 
1

>  <i_i_glide_posenum>  (94) 
33

>  <r_i_glide_eff_state_penalty>  (94) 
0

>  <ligand_id>  (94) 
25

>  <original_smiles>  (94) 
N#Cc1cnc2sccn12

>  <smiles>  (94) 
[H]c1nc2sc([H])c([H])n2c1C#N

$$$$
26:0:0
     RDKit          3D

 59 63  0  0  1  0  0  0  0  0999 V2000
   -0.6290   -1.4857    4.5867 C   0  0  0  0  0  0  0  0  0  0  0  0
    0.6036   -1.1894    3.9464 O   0  0  0  0  0  0  0  0  0  0  0  0
    1.0687    0.0865    3.7702 C   0  0  0  0  0  0  0  0  0  0  0  0
    2.1463    0.3288    3.2410 O   0  0  0  0  0  0  0  0  0  0  0  0
    0.1310    1.2264    4.2427 C   0  0  2  0  0  0  0  0  0  0  0  0
   -0.9758    1.3585    3.2008 C   0  0  0  0  0  0  0  0  0  0  0  0
   -1.6302    2.4887    2.9004 C   0  0  0  0  0  0  0  0  0  0  0  0
   -1.3323    3.7563    3.5641 C   0  0  0  0  0  0  0  0  0  0  0  0
   -1.9772    4.7707    3.2877 O   0  0  0  0  0  0  0  0  0  0  0  0
   -0.2236    3.8175    4.6679 C   0  0  1  0  0  0  0  0  0  0  0  0
    0.5370    5.1355    4.3187 C   0  0  0  0  0  0  0  0  0  0  0  0
   -0.9704    3.9203    6.0692 C   0  0  1  0  0  0  0  0  0  0  0  0
   -2.1762    2.9712    6.2615 C   0  0  0  0  0  0  0  0  0  0  0  0
   -2.1548    2.5838    7.7346 C   0  0  0  0  0  0  0  0  0  0  0  0
   -0.6602    2.5532    8.1508 C   0  0  1  0  0  0  0  0  0  0  0  0
   -0.5742    2.7738    9.6947 C   0  0  0  0  0  0  0  0  0  0  0  0
   -1.3159    1.7806   10.3790 O   0  0  0  0  0  0  0  0  0  0  0  0
    0.0777    1.2648    7.7387 C   0  0  0  0  0  0  0  0  0  0  0  0
   -0.5919    0.2642    7.4782 O   0  0  0  0  0  0  0  0  0  0  0  0
    1.6013    1.1552    7.7661 C   0  0  2  0  0  0  0  0  0  0  0  0
    1.9752   -0.1636    8.4578 C   0  0  0  0  0  0  0  0  0  0  0  0
    2.5598    2.3181    7.9666 C   0  0  2  0  0  0  0  0  0  0  0  0
    2.1936    3.7796    8.2953 C   0  0  0  0  0  0  0  0  0  0  0  0
    1.0430    4.3361    7.5097 C   0  0  0  0  0  0  0  0  0  0  0  0
   -0.1000    3.6807    7.3024 C   0  0  0  0  0  0  0  0  0  0  0  0
    2.4807    1.6588    6.5762 C   0  0  1  0  0  0  0  0  0  0  0  0
    3.7055    0.8116    6.1943 C   0  0  0  0  0  0  0  0  0  0  0  0
    2.1545    2.5984    5.3511 C   0  0  0  0  0  0  0  0  0  0  0  0
    0.8110    2.6085    4.4967 C   0  0  1  0  0  0  0  0  0  0  0  0
   -0.7966   -2.5641    4.5955 H   0  0  0  0  0  0  0  0  0  0  0  0
   -1.4774   -1.0282    4.0785 H   0  0  0  0  0  0  0  0  0  0  0  0
   -0.6100   -1.1433    5.6175 H   0  0  0  0  0  0  0  0  0  0  0  0
   -0.3310    0.9398    5.1775 H   0  0  0  0  0  0  0  0  0  0  0  0
   -1.2541    0.4702    2.6509 H   0  0  0  0  0  0  0  0  0  0  0  0
   -2.4155    2.4796    2.1567 H   0  0  0  0  0  0  0  0  0  0  0  0
    1.4813    5.2782    4.8342 H   0  0  0  0  0  0  0  0  0  0  0  0
   -0.0654    6.0261    4.5062 H   0  0  0  0  0  0  0  0  0  0  0  0
    0.7965    5.1570    3.2582 H   0  0  0  0  0  0  0  0  0  0  0  0
   -1.3501    4.9367    6.1861 H   0  0  0  0  0  0  0  0  0  0  0  0
   -3.1244    3.4279    5.9685 H   0  0  0  0  0  0  0  0  0  0  0  0
   -2.0797    2.0607    5.6781 H   0  0  0  0  0  0  0  0  0  0  0  0
   -2.6715    3.3660    8.2980 H   0  0  0  0  0  0  0  0  0  0  0  0
   -2.6976    1.6594    7.9348 H   0  0  0  0  0  0  0  0  0  0  0  0
    0.4427    2.7234   10.0786 H   0  0  0  0  0  0  0  0  0  0  0  0
   -0.9712    3.7538    9.9698 H   0  0  0  0  0  0  0  0  0  0  0  0
   -1.4863    2.0433   11.2793 H   0  0  0  0  0  0  0  0  0  0  0  0
    3.0031   -0.1564    8.8150 H   0  0  0  0  0  0  0  0  0  0  0  0
    1.8733   -0.9937    7.7609 H   0  0  0  0  0  0  0  0  0  0  0  0
    1.3475   -0.3586    9.3265 H   0  0  0  0  0  0  0  0  0  0  0  0
    3.4528    2.0646    8.5361 H   0  0  0  0  0  0  0  0  0  0  0  0
    2.0637    3.9229    9.3671 H   0  0  0  0  0  0  0  0  0  0  0  0
    3.0598    4.3777    8.0191 H   0  0  0  0  0  0  0  0  0  0  0  0
    1.3020    5.1682    6.8780 H   0  0  0  0  0  0  0  0  0  0  0  0
    4.4691    1.4108    5.6975 H   0  0  0  0  0  0  0  0  0  0  0  0
    3.4235   -0.0109    5.5399 H   0  0  0  0  0  0  0  0  0  0  0  0
    4.1925    0.3863    7.0667 H   0  0  0  0  0  0  0  0  0  0  0  0
    2.4898    3.5992    5.6008 H   0  0  0  0  0  0  0  0  0  0  0  0
    2.9124    2.3722    4.5968 H   0  0  0  0  0  0  0  0  0  0  0  0
    1.2185    2.8356    3.5091 H   0  0  0  0  0  0  0  0  0  0  0  0
  1  2  1  0
  1 30  1  0
  1 31  1  0
  1 32  1  0
  2  3  1  0
  3  4  2  0
  3  5  1  0
  5 29  1  0
  5  6  1  0
  5 33  1  1
  6  7  2  0
  6 34  1  0
  7  8  1  0
  7 35  1  0
  8  9  2  0
  8 10  1  0
 10 29  1  0
 10 11  1  6
 10 12  1  0
 11 36  1  0
 11 37  1  0
 11 38  1  0
 12 25  1  0
 12 13  1  0
 12 39  1  1
 13 14  1  0
 13 40  1  0
 13 41  1  0
 14 15  1  0
 14 42  1  0
 14 43  1  0
 15 25  1  0
 15 16  1  1
 15 18  1  0
 16 17  1  0
 16 44  1  0
 16 45  1  0
 17 46  1  0
 18 19  2  0
 18 20  1  0
 20 26  1  0
 20 21  1  1
 20 22  1  0
 21 47  1  0
 21 48  1  0
 21 49  1  0
 22 23  1  0
 22 26  1  0
 22 50  1  1
 23 24  1  0
 23 51  1  0
 23 52  1  0
 24 25  2  0
 24 53  1  0
 26 27  1  6
 26 28  1  0
 27 54  1  0
 27 55  1  0
 27 56  1  0
 28 29  1  0
 28 57  1  0
 28 58  1  0
 29 59  1  6
M  END
>  <i_m_ct_stereo_status>  (95) 
1

>  <s_m_source_file>  (95) 
/var/tmp/pbs.5076255.sched01/tmpj20d55gn/0_c3see42.sdf

>  <i_m_source_file_index>  (95) 
37

>  <i_lp_mmshare_version>  (95) 
48012

>  <i_f3d_flags>  (95) 
0

>  <s_epik_input>  (95) 
Tz1DMVtDSF09W0NIXVtDQEBIXShDKD1PKU9bQ0gzXSlbQ0BASF0yW0NIMl1bQ0BAXTMoW0NIM10pW0NAQEhdKFtDSDJdW0NIXT00KVtDQEBdMyhbQ0gzXSlDKD1PKVtDQEBdKFtDSDJdW0NIMl01KShbQ0gyXVtPSF0pQzRbQ0BIXTVbQ0BdMTJbQ0gzXQ==

>  <s_epik_cmdline>  (95) 
J2VwaWtfcHl0aG9uJywgJy1waHQnLCAnMi4wJywgJy1waCcsICc3LjAnLCAnLXRuJywgJzgnLCAnLW1hJywgJzIwMCcsICctaW1hZScsICc8aW5maWxlLm1hZT4nLCAnLW9tYWUnLCAnPG91dGZpbGUubWFlPic=

>  <r_lp_tautomer_probability>  (95) 
1

>  <r_epik_Ionization_Penalty>  (95) 
5.05636e-08

>  <r_epik_Ionization_Penalty_Charging>  (95) 
0

>  <r_epik_Ionization_Penalty_Neutral>  (95) 
5.05636e-08

>  <r_epik_State_Penalty>  (95) 
-0

>  <r_epik_Charging_Adjusted_Penalty>  (95) 
0

>  <i_epik_Tot_Q>  (95) 
0

>  <i_epik_Tot_abs_Q>  (95) 
0

>  <s_epik_Chemistry_Notes>  (95) 
This compound has an ester and may undergo hydrolysis at high or low pH.

>  <s_lp_Force_Field>  (95) 
OPLS3e

>  <r_lp_Energy>  (95) 
81.3094

>  <b_lp_Chiralities_Consistent>  (95) 
1

>  <s_lp_Variant>  (95) 
26:0-1

>  <s_i_glide_gridfile>  (95) 
pfpi4k_grid

>  <i_i_glide_lignum>  (95) 
37

>  <i_i_glide_rotatable_bonds>  (95) 
4

>  <r_i_docking_score>  (95) 
-2.87498

>  <r_i_glide_ligand_efficiency>  (95) 
-0.0991371

>  <r_i_glide_ligand_efficiency_sa>  (95) 
-0.304581

>  <r_i_glide_ligand_efficiency_ln>  (95) 
-0.658297

>  <r_i_glide_gscore>  (95) 
-2.87498

>  <r_i_glide_lipo>  (95) 
-0.125281

>  <r_i_glide_hbond>  (95) 
-0.209685

>  <r_i_glide_metal>  (95) 
-0

>  <r_i_glide_rewards>  (95) 
-0.6921

>  <r_i_glide_evdw>  (95) 
-17.9405

>  <r_i_glide_ecoul>  (95) 
-7.27136

>  <r_i_glide_erotb>  (95) 
0.246671

>  <r_i_glide_esite>  (95) 
-0.106851

>  <r_i_glide_emodel>  (95) 
-27.0616

>  <r_i_glide_energy>  (95) 
-25.2119

>  <r_i_glide_einternal>  (95) 
6.58163

>  <r_i_glide_intrahb_reward>  (95) 
-0

>  <i_i_glide_confnum>  (95) 
2

>  <i_i_glide_posenum>  (95) 
3

>  <r_i_glide_eff_state_penalty>  (95) 
0

>  <ligand_id>  (95) 
26

>  <original_smiles>  (95) 
COC(=O)C1C=CC(=O)C2(C)C3CCC4(CO)C(=O)C5(C)C(CC=C34)C5(C)CC12

>  <smiles>  (95) 
[H]OC([H])([H])C12C(=O)C3(C([H])([H])[H])C4([H])C([H])([H])C([H])=C1C([H])(C([H])([H])C2([H])[H])C1(C([H])([H])[H])C(=O)C([H])=C([H])C([H])(C(=O)OC([H])([H])[H])C1([H])C([H])([H])C43C([H])([H])[H]

$$$$
26:0:1
     RDKit          3D

 59 63  0  0  1  0  0  0  0  0999 V2000
   -2.0844   -0.7600    4.6793 C   0  0  0  0  0  0  0  0  0  0  0  0
   -1.6173   -1.6638    5.6662 O   0  0  0  0  0  0  0  0  0  0  0  0
   -0.3029   -1.6702    6.0296 C   0  0  0  0  0  0  0  0  0  0  0  0
    0.0814   -2.2515    7.0448 O   0  0  0  0  0  0  0  0  0  0  0  0
    0.6953   -0.9626    5.0671 C   0  0  2  0  0  0  0  0  0  0  0  0
    1.0941   -1.9945    4.0180 C   0  0  0  0  0  0  0  0  0  0  0  0
    2.2985   -2.0637    3.4260 C   0  0  0  0  0  0  0  0  0  0  0  0
    3.3613   -1.0870    3.7269 C   0  0  0  0  0  0  0  0  0  0  0  0
    4.4458   -1.1400    3.1407 O   0  0  0  0  0  0  0  0  0  0  0  0
    3.1047    0.0701    4.7521 C   0  0  1  0  0  0  0  0  0  0  0  0
    4.4443    0.1149    5.5600 C   0  0  0  0  0  0  0  0  0  0  0  0
    2.8926    1.4066    3.9115 C   0  0  1  0  0  0  0  0  0  0  0  0
    1.9752    1.2778    2.6758 C   0  0  0  0  0  0  0  0  0  0  0  0
    1.2367    2.6057    2.5852 C   0  0  0  0  0  0  0  0  0  0  0  0
    1.0317    3.0906    4.0411 C   0  0  1  0  0  0  0  0  0  0  0  0
    0.8209    4.6400    4.0238 C   0  0  0  0  0  0  0  0  0  0  0  0
   -0.3620    5.0003    3.3388 O   0  0  0  0  0  0  0  0  0  0  0  0
   -0.1522    2.4260    4.7729 C   0  0  0  0  0  0  0  0  0  0  0  0
   -1.0701    1.9744    4.0870 O   0  0  0  0  0  0  0  0  0  0  0  0
   -0.3245    2.4808    6.2967 C   0  0  2  0  0  0  0  0  0  0  0  0
   -1.7913    2.8189    6.5933 C   0  0  0  0  0  0  0  0  0  0  0  0
    0.7135    3.0230    7.2542 C   0  0  2  0  0  0  0  0  0  0  0  0
    2.0575    3.6936    6.9239 C   0  0  0  0  0  0  0  0  0  0  0  0
    2.8485    3.0159    5.8358 C   0  0  0  0  0  0  0  0  0  0  0  0
    2.3172    2.5881    4.6882 C   0  0  0  0  0  0  0  0  0  0  0  0
    0.4289    1.5080    7.2543 C   0  0  1  0  0  0  0  0  0  0  0  0
   -0.3342    0.9973    8.4943 C   0  0  0  0  0  0  0  0  0  0  0  0
    1.6607    0.5441    7.0447 C   0  0  0  0  0  0  0  0  0  0  0  0
    1.9386   -0.3444    5.7583 C   0  0  1  0  0  0  0  0  0  0  0  0
   -3.1558   -0.8498    4.5018 H   0  0  0  0  0  0  0  0  0  0  0  0
   -1.5704   -0.9306    3.7295 H   0  0  0  0  0  0  0  0  0  0  0  0
   -1.8793    0.2254    5.0417 H   0  0  0  0  0  0  0  0  0  0  0  0
    0.2247   -0.1475    4.5304 H   0  0  0  0  0  0  0  0  0  0  0  0
    0.3394   -2.7164    3.7380 H   0  0  0  0  0  0  0  0  0  0  0  0
    2.5104   -2.8195    2.6792 H   0  0  0  0  0  0  0  0  0  0  0  0
    4.4135    0.7046    6.4699 H   0  0  0  0  0  0  0  0  0  0  0  0
    5.2813    0.4893    4.9637 H   0  0  0  0  0  0  0  0  0  0  0  0
    4.7284   -0.8869    5.8933 H   0  0  0  0  0  0  0  0  0  0  0  0
    3.8608    1.7447    3.5419 H   0  0  0  0  0  0  0  0  0  0  0  0
    2.5221    1.0554    1.7562 H   0  0  0  0  0  0  0  0  0  0  0  0
    1.2277    0.4955    2.7880 H   0  0  0  0  0  0  0  0  0  0  0  0
    1.8678    3.3146    2.0420 H   0  0  0  0  0  0  0  0  0  0  0  0
    0.3082    2.5208    2.0197 H   0  0  0  0  0  0  0  0  0  0  0  0
    0.7058    5.0538    5.0230 H   0  0  0  0  0  0  0  0  0  0  0  0
    1.6596    5.1522    3.5471 H   0  0  0  0  0  0  0  0  0  0  0  0
   -0.2173    4.8469    2.3870 H   0  0  0  0  0  0  0  0  0  0  0  0
   -1.9048    3.2184    7.5955 H   0  0  0  0  0  0  0  0  0  0  0  0
   -2.4199    1.9310    6.5299 H   0  0  0  0  0  0  0  0  0  0  0  0
   -2.1848    3.5772    5.9156 H   0  0  0  0  0  0  0  0  0  0  0  0
    0.2807    3.5487    8.1047 H   0  0  0  0  0  0  0  0  0  0  0  0
    1.9326    4.7558    6.7360 H   0  0  0  0  0  0  0  0  0  0  0  0
    2.6649    3.6234    7.8263 H   0  0  0  0  0  0  0  0  0  0  0  0
    3.8002    2.6338    6.1648 H   0  0  0  0  0  0  0  0  0  0  0  0
    0.3361    0.7164    9.3088 H   0  0  0  0  0  0  0  0  0  0  0  0
   -0.9516    0.1440    8.2407 H   0  0  0  0  0  0  0  0  0  0  0  0
   -0.9902    1.7543    8.9207 H   0  0  0  0  0  0  0  0  0  0  0  0
    2.5510    1.0596    7.3848 H   0  0  0  0  0  0  0  0  0  0  0  0
    1.5905   -0.2039    7.8368 H   0  0  0  0  0  0  0  0  0  0  0  0
    2.3967   -1.2193    6.2277 H   0  0  0  0  0  0  0  0  0  0  0  0
  1  2  1  0
  1 30  1  0
  1 31  1  0
  1 32  1  0
  2  3  1  0
  3  4  2  0
  3  5  1  0
  5 29  1  0
  5  6  1  0
  5 33  1  6
  6  7  2  0
  6 34  1  0
  7  8  1  0
  7 35  1  0
  8  9  2  0
  8 10  1  0
 10 29  1  0
 10 11  1  1
 10 12  1  0
 11 36  1  0
 11 37  1  0
 11 38  1  0
 12 25  1  0
 12 13  1  0
 12 39  1  6
 13 14  1  0
 13 40  1  0
 13 41  1  0
 14 15  1  0
 14 42  1  0
 14 43  1  0
 15 25  1  0
 15 16  1  6
 15 18  1  0
 16 17  1  0
 16 44  1  0
 16 45  1  0
 17 46  1  0
 18 19  2  0
 18 20  1  0
 20 26  1  0
 20 21  1  6
 20 22  1  0
 21 47  1  0
 21 48  1  0
 21 49  1  0
 22 23  1  0
 22 26  1  0
 22 50  1  1
 23 24  1  0
 23 51  1  0
 23 52  1  0
 24 25  2  0
 24 53  1  0
 26 27  1  1
 26 28  1  0
 27 54  1  0
 27 55  1  0
 27 56  1  0
 28 29  1  0
 28 57  1  0
 28 58  1  0
 29 59  1  1
M  END
>  <i_m_ct_stereo_status>  (96) 
1

>  <s_m_source_file>  (96) 
/var/tmp/pbs.5076255.sched01/tmpj20d55gn/0_c3see42.sdf

>  <i_m_source_file_index>  (96) 
37

>  <i_lp_mmshare_version>  (96) 
48012

>  <i_f3d_flags>  (96) 
0

>  <s_epik_input>  (96) 
Tz1DMVtDSF09W0NIXVtDQEBIXShDKD1PKU9bQ0gzXSlbQ0BASF0yW0NIMl1bQ0BAXTMoW0NIM10pW0NAQEhdKFtDSDJdW0NIXT00KVtDQEBdMyhbQ0gzXSlDKD1PKVtDQEBdKFtDSDJdW0NIMl01KShbQ0gyXVtPSF0pQzRbQ0BIXTVbQ0BdMTJbQ0gzXQ==

>  <s_epik_cmdline>  (96) 
J2VwaWtfcHl0aG9uJywgJy1waHQnLCAnMi4wJywgJy1waCcsICc3LjAnLCAnLXRuJywgJzgnLCAnLW1hJywgJzIwMCcsICctaW1hZScsICc8aW5maWxlLm1hZT4nLCAnLW9tYWUnLCAnPG91dGZpbGUubWFlPic=

>  <r_lp_tautomer_probability>  (96) 
1

>  <r_epik_Ionization_Penalty>  (96) 
5.05636e-08

>  <r_epik_Ionization_Penalty_Charging>  (96) 
0

>  <r_epik_Ionization_Penalty_Neutral>  (96) 
5.05636e-08

>  <r_epik_State_Penalty>  (96) 
-0

>  <r_epik_Charging_Adjusted_Penalty>  (96) 
0

>  <i_epik_Tot_Q>  (96) 
0

>  <i_epik_Tot_abs_Q>  (96) 
0

>  <s_epik_Chemistry_Notes>  (96) 
This compound has an ester and may undergo hydrolysis at high or low pH.

>  <s_lp_Force_Field>  (96) 
OPLS3e

>  <r_lp_Energy>  (96) 
81.3094

>  <b_lp_Chiralities_Consistent>  (96) 
1

>  <s_lp_Variant>  (96) 
26:0-1

>  <s_i_glide_gridfile>  (96) 
pfpi4k_grid

>  <i_i_glide_lignum>  (96) 
37

>  <i_i_glide_rotatable_bonds>  (96) 
4

>  <r_i_docking_score>  (96) 
-2.70985

>  <r_i_glide_ligand_efficiency>  (96) 
-0.0934429

>  <r_i_glide_ligand_efficiency_sa>  (96) 
-0.287086

>  <r_i_glide_ligand_efficiency_ln>  (96) 
-0.620486

>  <r_i_glide_gscore>  (96) 
-2.70985

>  <r_i_glide_lipo>  (96) 
-0.0872324

>  <r_i_glide_hbond>  (96) 
0

>  <r_i_glide_metal>  (96) 
-0

>  <r_i_glide_rewards>  (96) 
-0.693956

>  <r_i_glide_evdw>  (96) 
-19.512

>  <r_i_glide_ecoul>  (96) 
-7.66969

>  <r_i_glide_erotb>  (96) 
0.246671

>  <r_i_glide_esite>  (96) 
-0.0492724

>  <r_i_glide_emodel>  (96) 
-27.6301

>  <r_i_glide_energy>  (96) 
-27.1817

>  <r_i_glide_einternal>  (96) 
6.45436

>  <r_i_glide_intrahb_reward>  (96) 
-0

>  <i_i_glide_confnum>  (96) 
2

>  <i_i_glide_posenum>  (96) 
1

>  <r_i_glide_eff_state_penalty>  (96) 
0

>  <ligand_id>  (96) 
26

>  <original_smiles>  (96) 
COC(=O)C1C=CC(=O)C2(C)C3CCC4(CO)C(=O)C5(C)C(CC=C34)C5(C)CC12

>  <smiles>  (96) 
[H]OC([H])([H])C12C(=O)C3(C([H])([H])[H])C4([H])C([H])([H])C([H])=C1C([H])(C([H])([H])C2([H])[H])C1(C([H])([H])[H])C(=O)C([H])=C([H])C([H])(C(=O)OC([H])([H])[H])C1([H])C([H])([H])C43C([H])([H])[H]

$$$$
26:0:2
     RDKit          3D

 59 63  0  0  1  0  0  0  0  0999 V2000
    1.4380   -3.7327    8.0623 C   0  0  0  0  0  0  0  0  0  0  0  0
    1.6343   -2.9340    6.9100 O   0  0  0  0  0  0  0  0  0  0  0  0
    0.5975   -2.2650    6.3811 C   0  0  0  0  0  0  0  0  0  0  0  0
   -0.5547   -2.2734    6.8159 O   0  0  0  0  0  0  0  0  0  0  0  0
    0.9633   -1.4532    5.1325 C   0  0  2  0  0  0  0  0  0  0  0  0
    1.4051   -2.4325    4.0608 C   0  0  0  0  0  0  0  0  0  0  0  0
    2.3821   -2.1920    3.1638 C   0  0  0  0  0  0  0  0  0  0  0  0
    3.0893   -0.9000    3.1059 C   0  0  0  0  0  0  0  0  0  0  0  0
    3.9637   -0.7053    2.2585 O   0  0  0  0  0  0  0  0  0  0  0  0
    2.7167    0.2536    4.0905 C   0  0  1  0  0  0  0  0  0  0  0  0
    4.1131    0.8233    4.5027 C   0  0  0  0  0  0  0  0  0  0  0  0
    1.8764    1.3209    3.2744 C   0  0  1  0  0  0  0  0  0  0  0  0
    0.7763    0.7238    2.3609 C   0  0  0  0  0  0  0  0  0  0  0  0
   -0.3864    1.7076    2.4381 C   0  0  0  0  0  0  0  0  0  0  0  0
   -0.3385    2.3114    3.8579 C   0  0  1  0  0  0  0  0  0  0  0  0
   -1.0940    3.6712    3.8528 C   0  0  0  0  0  0  0  0  0  0  0  0
   -0.3720    4.7431    3.2884 O   0  0  0  0  0  0  0  0  0  0  0  0
   -0.9625    1.3935    4.9332 C   0  0  0  0  0  0  0  0  0  0  0  0
   -1.7159    0.4753    4.5874 O   0  0  0  0  0  0  0  0  0  0  0  0
   -0.7919    1.6763    6.4217 C   0  0  2  0  0  0  0  0  0  0  0  0
   -2.1708    1.6025    7.0710 C   0  0  0  0  0  0  0  0  0  0  0  0
    0.2065    2.6499    7.0203 C   0  0  2  0  0  0  0  0  0  0  0  0
    1.0830    3.6489    6.2596 C   0  0  0  0  0  0  0  0  0  0  0  0
    1.7724    3.0931    5.0481 C   0  0  0  0  0  0  0  0  0  0  0  0
    1.1577    2.3533    4.1249 C   0  0  0  0  0  0  0  0  0  0  0  0
    0.4514    1.1338    7.1828 C   0  0  1  0  0  0  0  0  0  0  0  0
    0.2417    0.5969    8.5999 C   0  0  0  0  0  0  0  0  0  0  0  0
    1.8208    0.5674    6.6741 C   0  0  0  0  0  0  0  0  0  0  0  0
    2.0294   -0.3502    5.3946 C   0  0  1  0  0  0  0  0  0  0  0  0
    2.3693   -4.2383    8.3158 H   0  0  0  0  0  0  0  0  0  0  0  0
    0.6750   -4.4927    7.8906 H   0  0  0  0  0  0  0  0  0  0  0  0
    1.1379   -3.1231    8.9147 H   0  0  0  0  0  0  0  0  0  0  0  0
    0.0422   -1.0149    4.7719 H   0  0  0  0  0  0  0  0  0  0  0  0
    0.8827   -3.3810    4.0478 H   0  0  0  0  0  0  0  0  0  0  0  0
    2.6589   -2.9403    2.4373 H   0  0  0  0  0  0  0  0  0  0  0  0
    4.1171    1.5035    5.3483 H   0  0  0  0  0  0  0  0  0  0  0  0
    4.5877    1.3520    3.6824 H   0  0  0  0  0  0  0  0  0  0  0  0
    4.8030    0.0196    4.7782 H   0  0  0  0  0  0  0  0  0  0  0  0
    2.5550    1.8887    2.6392 H   0  0  0  0  0  0  0  0  0  0  0  0
    1.1146    0.5655    1.3327 H   0  0  0  0  0  0  0  0  0  0  0  0
    0.4168   -0.2340    2.7254 H   0  0  0  0  0  0  0  0  0  0  0  0
   -0.1793    2.4938    1.7172 H   0  0  0  0  0  0  0  0  0  0  0  0
   -1.3431    1.2697    2.1542 H   0  0  0  0  0  0  0  0  0  0  0  0
   -1.9980    3.5528    3.2575 H   0  0  0  0  0  0  0  0  0  0  0  0
   -1.4663    3.9593    4.8346 H   0  0  0  0  0  0  0  0  0  0  0  0
   -0.1832    4.5412    2.3554 H   0  0  0  0  0  0  0  0  0  0  0  0
   -2.1763    2.0729    8.0548 H   0  0  0  0  0  0  0  0  0  0  0  0
   -2.4489    0.5628    7.1946 H   0  0  0  0  0  0  0  0  0  0  0  0
   -2.9399    2.1003    6.4808 H   0  0  0  0  0  0  0  0  0  0  0  0
   -0.1610    3.1487    7.9245 H   0  0  0  0  0  0  0  0  0  0  0  0
    0.5272    4.5553    6.0218 H   0  0  0  0  0  0  0  0  0  0  0  0
    1.8753    3.9341    6.9456 H   0  0  0  0  0  0  0  0  0  0  0  0
    2.8479    3.0886    5.1110 H   0  0  0  0  0  0  0  0  0  0  0  0
    1.1551    0.6746    9.1895 H   0  0  0  0  0  0  0  0  0  0  0  0
   -0.0728   -0.4424    8.5785 H   0  0  0  0  0  0  0  0  0  0  0  0
   -0.5089    1.1727    9.1385 H   0  0  0  0  0  0  0  0  0  0  0  0
    2.5452    1.3702    6.7228 H   0  0  0  0  0  0  0  0  0  0  0  0
    2.2085   -0.0522    7.4838 H   0  0  0  0  0  0  0  0  0  0  0  0
    2.8623   -0.9531    5.7650 H   0  0  0  0  0  0  0  0  0  0  0  0
  1  2  1  0
  1 30  1  0
  1 31  1  0
  1 32  1  0
  2  3  1  0
  3  4  2  0
  3  5  1  0
  5 29  1  0
  5  6  1  0
  5 33  1  6
  6  7  2  0
  6 34  1  0
  7  8  1  0
  7 35  1  0
  8  9  2  0
  8 10  1  0
 10 29  1  0
 10 11  1  1
 10 12  1  0
 11 36  1  0
 11 37  1  0
 11 38  1  0
 12 25  1  0
 12 13  1  0
 12 39  1  6
 13 14  1  0
 13 40  1  0
 13 41  1  0
 14 15  1  0
 14 42  1  0
 14 43  1  0
 15 25  1  0
 15 16  1  6
 15 18  1  0
 16 17  1  0
 16 44  1  0
 16 45  1  0
 17 46  1  0
 18 19  2  0
 18 20  1  0
 20 26  1  0
 20 21  1  1
 20 22  1  0
 21 47  1  0
 21 48  1  0
 21 49  1  0
 22 23  1  0
 22 26  1  0
 22 50  1  1
 23 24  1  0
 23 51  1  0
 23 52  1  0
 24 25  2  0
 24 53  1  0
 26 27  1  1
 26 28  1  0
 27 54  1  0
 27 55  1  0
 27 56  1  0
 28 29  1  0
 28 57  1  0
 28 58  1  0
 29 59  1  1
M  END
>  <i_m_ct_stereo_status>  (97) 
1

>  <s_m_source_file>  (97) 
/var/tmp/pbs.5076255.sched01/tmpj20d55gn/0_c3see42.sdf

>  <i_m_source_file_index>  (97) 
37

>  <i_lp_mmshare_version>  (97) 
48012

>  <i_f3d_flags>  (97) 
0

>  <s_epik_input>  (97) 
Tz1DMVtDSF09W0NIXVtDQEBIXShDKD1PKU9bQ0gzXSlbQ0BASF0yW0NIMl1bQ0BAXTMoW0NIM10pW0NAQEhdKFtDSDJdW0NIXT00KVtDQEBdMyhbQ0gzXSlDKD1PKVtDQEBdKFtDSDJdW0NIMl01KShbQ0gyXVtPSF0pQzRbQ0BIXTVbQ0BdMTJbQ0gzXQ==

>  <s_epik_cmdline>  (97) 
J2VwaWtfcHl0aG9uJywgJy1waHQnLCAnMi4wJywgJy1waCcsICc3LjAnLCAnLXRuJywgJzgnLCAnLW1hJywgJzIwMCcsICctaW1hZScsICc8aW5maWxlLm1hZT4nLCAnLW9tYWUnLCAnPG91dGZpbGUubWFlPic=

>  <r_lp_tautomer_probability>  (97) 
1

>  <r_epik_Ionization_Penalty>  (97) 
5.05636e-08

>  <r_epik_Ionization_Penalty_Charging>  (97) 
0

>  <r_epik_Ionization_Penalty_Neutral>  (97) 
5.05636e-08

>  <r_epik_State_Penalty>  (97) 
-0

>  <r_epik_Charging_Adjusted_Penalty>  (97) 
0

>  <i_epik_Tot_Q>  (97) 
0

>  <i_epik_Tot_abs_Q>  (97) 
0

>  <s_epik_Chemistry_Notes>  (97) 
This compound has an ester and may undergo hydrolysis at high or low pH.

>  <s_lp_Force_Field>  (97) 
OPLS3e

>  <r_lp_Energy>  (97) 
81.3094

>  <b_lp_Chiralities_Consistent>  (97) 
1

>  <s_lp_Variant>  (97) 
26:0-1

>  <s_i_glide_gridfile>  (97) 
pfpi4k_grid

>  <i_i_glide_lignum>  (97) 
37

>  <i_i_glide_rotatable_bonds>  (97) 
4

>  <r_i_docking_score>  (97) 
-2.59316

>  <r_i_glide_ligand_efficiency>  (97) 
-0.0894193

>  <r_i_glide_ligand_efficiency_sa>  (97) 
-0.274725

>  <r_i_glide_ligand_efficiency_ln>  (97) 
-0.593768

>  <r_i_glide_gscore>  (97) 
-2.59316

>  <r_i_glide_lipo>  (97) 
-0.017513

>  <r_i_glide_hbond>  (97) 
-0.16

>  <r_i_glide_metal>  (97) 
-0

>  <r_i_glide_rewards>  (97) 
-0.6921

>  <r_i_glide_evdw>  (97) 
-18.4891

>  <r_i_glide_ecoul>  (97) 
-6.77149

>  <r_i_glide_erotb>  (97) 
0.246671

>  <r_i_glide_esite>  (97) 
-0.0300376

>  <r_i_glide_emodel>  (97) 
-27.7431

>  <r_i_glide_energy>  (97) 
-25.2606

>  <r_i_glide_einternal>  (97) 
4.55924

>  <r_i_glide_intrahb_reward>  (97) 
-0

>  <i_i_glide_confnum>  (97) 
3

>  <i_i_glide_posenum>  (97) 
36

>  <r_i_glide_eff_state_penalty>  (97) 
0

>  <ligand_id>  (97) 
26

>  <original_smiles>  (97) 
COC(=O)C1C=CC(=O)C2(C)C3CCC4(CO)C(=O)C5(C)C(CC=C34)C5(C)CC12

>  <smiles>  (97) 
[H]OC([H])([H])C12C(=O)C3(C([H])([H])[H])C4([H])C([H])([H])C([H])=C1C([H])(C([H])([H])C2([H])[H])C1(C([H])([H])[H])C(=O)C([H])=C([H])C([H])(C(=O)OC([H])([H])[H])C1([H])C([H])([H])C43C([H])([H])[H]

$$$$
27:0:0
     RDKit          3D

 59 66  0  0  1  0  0  0  0  0999 V2000
    6.1755   -6.1858    5.8020 C   0  0  0  0  0  0  0  0  0  0  0  0
    5.4355   -7.2256    5.3705 C   0  0  0  0  0  0  0  0  0  0  0  0
    5.9230   -8.1940    4.3478 C   0  0  1  0  0  0  0  0  0  0  0  0
    6.0471   -9.6442    4.9294 C   0  0  0  0  0  0  0  0  0  0  0  0
    4.8777  -10.6693    4.7891 C   0  0  2  0  0  0  0  0  0  0  0  0
    4.5420  -10.7886    3.3171 C   0  0  0  0  0  0  0  0  0  0  0  0
    3.3930   -9.8740    2.9005 C   0  0  1  0  0  0  0  0  0  0  0  0
    3.5385   -9.8237    1.4935 O   0  0  0  0  0  0  0  0  0  0  0  0
    2.0984  -10.7106    3.0118 C   0  0  0  0  0  0  0  0  0  0  0  0
    1.5738  -10.9722    4.4235 C   0  0  1  0  0  0  0  0  0  0  0  0
    2.5686  -11.6878    5.2518 N   0  0  0  0  0  0  0  0  0  0  0  0
    3.6599  -10.8670    5.7940 C   0  0  2  0  0  0  0  0  0  0  0  0
    3.0697   -9.7484    6.7017 C   0  0  1  0  0  0  0  0  0  0  0  0
    3.9888   -8.5506    6.9414 C   0  0  0  0  0  0  0  0  0  0  0  0
    4.0206   -7.5043    5.8046 C   0  0  2  0  0  0  0  0  0  0  0  0
    3.0527   -7.7124    4.6696 N   0  0  1  0  0  0  0  0  0  0  0  0
    3.5450   -8.3347    3.3514 C   0  0  1  0  0  0  0  0  0  0  0  0
    5.0315   -7.9486    3.1164 C   0  0  0  0  0  0  0  0  0  0  0  0
    1.5932   -7.5016    5.0418 C   0  0  2  0  0  0  0  0  0  0  0  0
    1.3300   -7.8430    6.5191 C   0  0  0  0  0  0  0  0  0  0  0  0
    1.5603   -9.3656    6.5136 C   0  0  1  0  0  0  0  0  0  0  0  0
    0.8699   -9.8221    5.1934 C   0  0  1  0  0  0  0  0  0  0  0  0
    0.5944   -8.4642    4.4176 C   0  0  0  0  0  0  0  0  0  0  0  0
   -0.6944   -8.0031    4.7229 O   0  0  0  0  0  0  0  0  0  0  0  0
   -1.5042   -8.2514    3.5980 C   0  0  0  0  0  0  0  0  0  0  0  0
   -0.5042   -7.9724    2.4974 C   0  0  0  0  0  0  0  0  0  0  0  0
    0.7128   -8.4155    3.0415 O   0  0  0  0  0  0  0  0  0  0  0  0
    5.8060   -5.4795    6.5313 H   0  0  0  0  0  0  0  0  0  0  0  0
    7.1790   -6.0284    5.4365 H   0  0  0  0  0  0  0  0  0  0  0  0
    6.9356   -7.8795    4.0789 H   0  0  0  0  0  0  0  0  0  0  0  0
    6.8810  -10.0793    4.3714 H   0  0  0  0  0  0  0  0  0  0  0  0
    6.4504   -9.6252    5.9398 H   0  0  0  0  0  0  0  0  0  0  0  0
    5.4215  -11.5991    4.9577 H   0  0  0  0  0  0  0  0  0  0  0  0
    5.4360  -10.6042    2.7132 H   0  0  0  0  0  0  0  0  0  0  0  0
    4.3200  -11.8319    3.0849 H   0  0  0  0  0  0  0  0  0  0  0  0
    3.7452  -10.7063    1.1367 H   0  0  0  0  0  0  0  0  0  0  0  0
    1.3194  -10.4228    2.3073 H   0  0  0  0  0  0  0  0  0  0  0  0
    2.3042  -11.7000    2.5947 H   0  0  0  0  0  0  0  0  0  0  0  0
    0.7853  -11.7026    4.2617 H   0  0  0  0  0  0  0  0  0  0  0  0
    2.0756  -12.0945    6.0492 H   0  0  0  0  0  0  0  0  0  0  0  0
    4.0991  -11.5341    6.5309 H   0  0  0  0  0  0  0  0  0  0  0  0
    3.0542  -10.2199    7.6872 H   0  0  0  0  0  0  0  0  0  0  0  0
    3.7070   -8.0461    7.8670 H   0  0  0  0  0  0  0  0  0  0  0  0
    4.9838   -8.8889    7.2013 H   0  0  0  0  0  0  0  0  0  0  0  0
    3.7270   -6.5602    6.2579 H   0  0  0  0  0  0  0  0  0  0  0  0
    2.9995   -7.7736    2.6042 H   0  0  0  0  0  0  0  0  0  0  0  0
    5.0867   -6.8871    2.8705 H   0  0  0  0  0  0  0  0  0  0  0  0
    5.4601   -8.4272    2.2386 H   0  0  0  0  0  0  0  0  0  0  0  0
    1.2819   -6.4841    4.8158 H   0  0  0  0  0  0  0  0  0  0  0  0
    1.8639   -7.2671    7.2695 H   0  0  0  0  0  0  0  0  0  0  0  0
    0.2985   -7.6513    6.7968 H   0  0  0  0  0  0  0  0  0  0  0  0
    1.0121   -9.8071    7.3523 H   0  0  0  0  0  0  0  0  0  0  0  0
   -0.1109  -10.2132    5.4736 H   0  0  0  0  0  0  0  0  0  0  0  0
   -1.8503   -9.2826    3.5838 H   0  0  0  0  0  0  0  0  0  0  0  0
   -2.3733   -7.5963    3.5582 H   0  0  0  0  0  0  0  0  0  0  0  0
   -0.7426   -8.4773    1.5646 H   0  0  0  0  0  0  0  0  0  0  0  0
   -0.4006   -6.9013    2.3208 H   0  0  0  0  0  0  0  0  0  0  0  0
    2.9532  -12.4502    4.7033 H   0  0  0  0  0  0  0  0  0  0  0  0
    3.1624   -6.7797    4.3048 H   0  0  0  0  0  0  0  0  0  0  0  0
  1  2  2  0
  1 28  1  0
  1 29  1  0
  2 15  1  0
  2  3  1  0
  3 18  1  0
  3  4  1  0
  3 30  1  6
  4  5  1  0
  4 31  1  0
  4 32  1  0
  5 12  1  0
  5  6  1  0
  5 33  1  1
  6  7  1  0
  6 34  1  0
  6 35  1  0
  7 17  1  0
  7  8  1  6
  7  9  1  0
  8 36  1  0
  9 10  1  0
  9 37  1  0
  9 38  1  0
 10 22  1  0
 10 11  1  0
 10 39  1  6
 11 12  1  0
 11 40  1  0
 11 58  1  0
 12 13  1  0
 12 41  1  1
 13 21  1  0
 13 14  1  0
 13 42  1  1
 14 15  1  0
 14 43  1  0
 14 44  1  0
 15 16  1  0
 15 45  1  1
 16 17  1  0
 16 19  1  0
 16 59  1  6
 17 18  1  0
 17 46  1  6
 18 47  1  0
 18 48  1  0
 19 23  1  0
 19 20  1  0
 19 49  1  1
 20 21  1  0
 20 50  1  0
 20 51  1  0
 21 22  1  0
 21 52  1  1
 22 23  1  0
 22 53  1  1
 23 27  1  0
 23 24  1  0
 24 25  1  0
 25 26  1  0
 25 54  1  0
 25 55  1  0
 26 27  1  0
 26 56  1  0
 26 57  1  0
M  CHG  2  11   1  16   1
M  END
>  <i_m_ct_stereo_status>  (98) 
1

>  <s_m_source_file>  (98) 
/var/tmp/pbs.5076255.sched01/tmpj20d55gn/0_c3see42.sdf

>  <i_m_source_file_index>  (98) 
38

>  <i_lp_mmshare_version>  (98) 
48012

>  <i_f3d_flags>  (98) 
0

>  <s_epik_input>  (98) 
TzFbQ0gyXVtDSDJdT0MxMltDQEBIXTNONFtDQEBIXTVDKD1bQ0gyXSlbQ0BIXTZbQ0gyXVtDQEhdN1tDQEhdOFtDQEBIXShbQ0gyXTUpW0NAQEhdKFtDSDJdMylbQ0BASF0yW0NASF0oW05IXTgpW0NIMl1bQ0BAXShbQ0gyXTcpKFtPSF0pW0NAQEhdNFtDSDJdNg==

>  <s_epik_cmdline>  (98) 
J2VwaWtfcHl0aG9uJywgJy1waHQnLCAnMi4wJywgJy1waCcsICc3LjAnLCAnLXRuJywgJzgnLCAnLW1hJywgJzIwMCcsICctaW1hZScsICc8aW5maWxlLm1hZT4nLCAnLW9tYWUnLCAnPG91dGZpbGUubWFlPic=

>  <r_epik_Ionization_Penalty>  (98) 
0.147572

>  <r_epik_Ionization_Penalty_Charging>  (98) 
0.147572

>  <r_epik_Ionization_Penalty_Neutral>  (98) 
6.32412e-07

>  <r_epik_State_Penalty>  (98) 
0.130481

>  <r_epik_Charging_Adjusted_Penalty>  (98) 
0.278052

>  <i_epik_Tot_Q>  (98) 
2

>  <i_epik_Tot_abs_Q>  (98) 
2

>  <s_lp_Force_Field>  (98) 
OPLS3e

>  <r_lp_Energy>  (98) 
133.402

>  <b_lp_Chiralities_Consistent>  (98) 
1

>  <s_lp_Variant>  (98) 
27:0-1

>  <s_i_glide_gridfile>  (98) 
pfpi4k_grid

>  <i_i_glide_lignum>  (98) 
38

>  <i_i_glide_rotatable_bonds>  (98) 
1

>  <r_i_docking_score>  (98) 
-4.59504

>  <r_i_glide_ligand_efficiency>  (98) 
-0.170187

>  <r_i_glide_ligand_efficiency_sa>  (98) 
-0.51056

>  <r_i_glide_ligand_efficiency_ln>  (98) 
-1.06965

>  <r_i_glide_gscore>  (98) 
-4.59504

>  <r_i_glide_lipo>  (98) 
-0.0672046

>  <r_i_glide_hbond>  (98) 
-0.38335

>  <r_i_glide_metal>  (98) 
-0

>  <r_i_glide_rewards>  (98) 
-1.39931

>  <r_i_glide_evdw>  (98) 
-20.5412

>  <r_i_glide_ecoul>  (98) 
-10.6506

>  <r_i_glide_erotb>  (98) 
0

>  <r_i_glide_esite>  (98) 
-0.120531

>  <r_i_glide_emodel>  (98) 
-45.7254

>  <r_i_glide_energy>  (98) 
-31.1917

>  <r_i_glide_einternal>  (98) 
0.185635

>  <r_i_glide_intrahb_reward>  (98) 
-0

>  <i_i_glide_confnum>  (98) 
3

>  <i_i_glide_posenum>  (98) 
31

>  <r_i_glide_eff_state_penalty>  (98) 
0

>  <ligand_id>  (98) 
27

>  <original_smiles>  (98) 
C=C1C2CC3CC4(O)CC5NC3C3CC1N(C4C2)C1CC3C5C12OCCO2

>  <smiles>  (98) 
[H]OC12C([H])([H])C3([H])C([H])([H])C4([H])C(=C([H])[H])C5([H])C([H])([H])C6([H])C7([H])C([H])([H])C([H])(C8(OC([H])([H])C([H])([H])O8)C7([H])C([H])(C1([H])[H])[N+]([H])([H])C36[H])[N+]5([H])C2([H])C4([H])[H]

$$$$
27:0:1
     RDKit          3D

 59 66  0  0  1  0  0  0  0  0999 V2000
    5.6896   -7.8434    2.3497 C   0  0  0  0  0  0  0  0  0  0  0  0
    4.4923   -8.1711    2.8554 C   0  0  0  0  0  0  0  0  0  0  0  0
    3.3087   -8.4849    1.9982 C   0  0  1  0  0  0  0  0  0  0  0  0
    2.8296   -9.9588    2.2018 C   0  0  0  0  0  0  0  0  0  0  0  0
    1.6985  -10.3188    3.2215 C   0  0  2  0  0  0  0  0  0  0  0  0
    0.4833   -9.4845    2.8794 C   0  0  0  0  0  0  0  0  0  0  0  0
    0.4184   -8.1819    3.6831 C   0  0  1  0  0  0  0  0  0  0  0  0
   -0.4957   -7.3909    2.9203 O   0  0  0  0  0  0  0  0  0  0  0  0
   -0.4535   -8.4968    4.9163 C   0  0  0  0  0  0  0  0  0  0  0  0
    0.1978   -9.3392    6.0203 C   0  0  1  0  0  0  0  0  0  0  0  0
    0.6265  -10.6640    5.5317 N   0  0  0  0  0  0  0  0  0  0  0  0
    1.8845  -10.6820    4.7580 C   0  0  2  0  0  0  0  0  0  0  0  0
    3.0504  -10.1480    5.6501 C   0  0  1  0  0  0  0  0  0  0  0  0
    4.2739   -9.6393    4.8850 C   0  0  0  0  0  0  0  0  0  0  0  0
    4.1662   -8.2028    4.3272 C   0  0  2  0  0  0  0  0  0  0  0  0
    2.9249   -7.4316    4.7003 N   0  0  1  0  0  0  0  0  0  0  0  0
    1.7619   -7.3085    3.6947 C   0  0  1  0  0  0  0  0  0  0  0  0
    2.3243   -7.3337    2.2477 C   0  0  0  0  0  0  0  0  0  0  0  0
    2.8477   -7.0413    6.1724 C   0  0  2  0  0  0  0  0  0  0  0  0
    3.5789   -8.0518    7.0669 C   0  0  0  0  0  0  0  0  0  0  0  0
    2.6795   -9.2937    6.9084 C   0  0  1  0  0  0  0  0  0  0  0  0
    1.2429   -8.6849    6.9620 C   0  0  1  0  0  0  0  0  0  0  0  0
    1.4812   -7.1295    6.8304 C   0  0  0  0  0  0  0  0  0  0  0  0
    1.5631   -6.5698    8.1105 O   0  0  0  0  0  0  0  0  0  0  0  0
    0.3668   -5.8620    8.3393 C   0  0  0  0  0  0  0  0  0  0  0  0
    0.0989   -5.3297    6.9496 C   0  0  0  0  0  0  0  0  0  0  0  0
    0.5704   -6.3662    6.1161 O   0  0  0  0  0  0  0  0  0  0  0  0
    6.5359   -7.5976    2.9779 H   0  0  0  0  0  0  0  0  0  0  0  0
    5.8609   -7.8168    1.2805 H   0  0  0  0  0  0  0  0  0  0  0  0
    3.6461   -8.4075    0.9646 H   0  0  0  0  0  0  0  0  0  0  0  0
    2.4356  -10.2367    1.2216 H   0  0  0  0  0  0  0  0  0  0  0  0
    3.6727  -10.6419    2.2751 H   0  0  0  0  0  0  0  0  0  0  0  0
    1.4022  -11.2946    2.8354 H   0  0  0  0  0  0  0  0  0  0  0  0
    0.4806   -9.2840    1.8058 H   0  0  0  0  0  0  0  0  0  0  0  0
   -0.4152  -10.0924    3.0102 H   0  0  0  0  0  0  0  0  0  0  0  0
   -0.6186   -7.8200    2.0845 H   0  0  0  0  0  0  0  0  0  0  0  0
   -1.0064   -7.6418    5.2908 H   0  0  0  0  0  0  0  0  0  0  0  0
   -1.3274   -9.0634    4.5800 H   0  0  0  0  0  0  0  0  0  0  0  0
   -0.6337   -9.5758    6.6743 H   0  0  0  0  0  0  0  0  0  0  0  0
    0.7751  -11.2758    6.3333 H   0  0  0  0  0  0  0  0  0  0  0  0
    2.1140  -11.7427    4.7062 H   0  0  0  0  0  0  0  0  0  0  0  0
    3.4371  -11.0621    6.1085 H   0  0  0  0  0  0  0  0  0  0  0  0
    5.1576   -9.6879    5.5313 H   0  0  0  0  0  0  0  0  0  0  0  0
    4.5616  -10.3519    4.1203 H   0  0  0  0  0  0  0  0  0  0  0  0
    4.9859   -7.6427    4.7627 H   0  0  0  0  0  0  0  0  0  0  0  0
    1.4277   -6.2912    3.8462 H   0  0  0  0  0  0  0  0  0  0  0  0
    2.8442   -6.3959    2.0569 H   0  0  0  0  0  0  0  0  0  0  0  0
    1.5392   -7.3418    1.4828 H   0  0  0  0  0  0  0  0  0  0  0  0
    3.2427   -6.0361    6.3180 H   0  0  0  0  0  0  0  0  0  0  0  0
    4.6459   -8.1959    6.8998 H   0  0  0  0  0  0  0  0  0  0  0  0
    3.5692   -7.7490    8.1118 H   0  0  0  0  0  0  0  0  0  0  0  0
    2.8101   -9.9375    7.7839 H   0  0  0  0  0  0  0  0  0  0  0  0
    0.8720   -8.8531    7.9774 H   0  0  0  0  0  0  0  0  0  0  0  0
   -0.4148   -6.5383    8.6767 H   0  0  0  0  0  0  0  0  0  0  0  0
    0.4862   -5.0725    9.0807 H   0  0  0  0  0  0  0  0  0  0  0  0
   -0.9550   -5.1208    6.7616 H   0  0  0  0  0  0  0  0  0  0  0  0
    0.6976   -4.4481    6.7400 H   0  0  0  0  0  0  0  0  0  0  0  0
   -0.1351  -11.0490    4.9826 H   0  0  0  0  0  0  0  0  0  0  0  0
    3.3033   -6.5436    4.4185 H   0  0  0  0  0  0  0  0  0  0  0  0
  1  2  2  0
  1 28  1  0
  1 29  1  0
  2 15  1  0
  2  3  1  0
  3 18  1  0
  3  4  1  0
  3 30  1  6
  4  5  1  0
  4 31  1  0
  4 32  1  0
  5 12  1  0
  5  6  1  0
  5 33  1  6
  6  7  1  0
  6 34  1  0
  6 35  1  0
  7 17  1  0
  7  8  1  6
  7  9  1  0
  8 36  1  0
  9 10  1  0
  9 37  1  0
  9 38  1  0
 10 22  1  0
 10 11  1  0
 10 39  1  1
 11 12  1  0
 11 40  1  0
 11 58  1  0
 12 13  1  0
 12 41  1  6
 13 21  1  0
 13 14  1  0
 13 42  1  1
 14 15  1  0
 14 43  1  0
 14 44  1  0
 15 16  1  0
 15 45  1  1
 16 17  1  0
 16 19  1  0
 16 59  1  6
 17 18  1  0
 17 46  1  1
 18 47  1  0
 18 48  1  0
 19 23  1  0
 19 20  1  0
 19 49  1  6
 20 21  1  0
 20 50  1  0
 20 51  1  0
 21 22  1  0
 21 52  1  1
 22 23  1  0
 22 53  1  1
 23 27  1  0
 23 24  1  0
 24 25  1  0
 25 26  1  0
 25 54  1  0
 25 55  1  0
 26 27  1  0
 26 56  1  0
 26 57  1  0
M  CHG  2  11   1  16   1
M  END
>  <i_m_ct_stereo_status>  (99) 
1

>  <s_m_source_file>  (99) 
/var/tmp/pbs.5076255.sched01/tmpj20d55gn/0_c3see42.sdf

>  <i_m_source_file_index>  (99) 
38

>  <i_lp_mmshare_version>  (99) 
48012

>  <i_f3d_flags>  (99) 
0

>  <s_epik_input>  (99) 
TzFbQ0gyXVtDSDJdT0MxMltDQEBIXTNONFtDQEBIXTVDKD1bQ0gyXSlbQ0BIXTZbQ0gyXVtDQEhdN1tDQEhdOFtDQEBIXShbQ0gyXTUpW0NAQEhdKFtDSDJdMylbQ0BASF0yW0NASF0oW05IXTgpW0NIMl1bQ0BAXShbQ0gyXTcpKFtPSF0pW0NAQEhdNFtDSDJdNg==

>  <s_epik_cmdline>  (99) 
J2VwaWtfcHl0aG9uJywgJy1waHQnLCAnMi4wJywgJy1waCcsICc3LjAnLCAnLXRuJywgJzgnLCAnLW1hJywgJzIwMCcsICctaW1hZScsICc8aW5maWxlLm1hZT4nLCAnLW9tYWUnLCAnPG91dGZpbGUubWFlPic=

>  <r_epik_Ionization_Penalty>  (99) 
0.147572

>  <r_epik_Ionization_Penalty_Charging>  (99) 
0.147572

>  <r_epik_Ionization_Penalty_Neutral>  (99) 
6.32412e-07

>  <r_epik_State_Penalty>  (99) 
0.130481

>  <r_epik_Charging_Adjusted_Penalty>  (99) 
0.278052

>  <i_epik_Tot_Q>  (99) 
2

>  <i_epik_Tot_abs_Q>  (99) 
2

>  <s_lp_Force_Field>  (99) 
OPLS3e

>  <r_lp_Energy>  (99) 
133.402

>  <b_lp_Chiralities_Consistent>  (99) 
1

>  <s_lp_Variant>  (99) 
27:0-1

>  <s_i_glide_gridfile>  (99) 
pfpi4k_grid

>  <i_i_glide_lignum>  (99) 
38

>  <i_i_glide_rotatable_bonds>  (99) 
1

>  <r_i_docking_score>  (99) 
-3.82145

>  <r_i_glide_ligand_efficiency>  (99) 
-0.141535

>  <r_i_glide_ligand_efficiency_sa>  (99) 
-0.424605

>  <r_i_glide_ligand_efficiency_ln>  (99) 
-0.88957

>  <r_i_glide_gscore>  (99) 
-3.82145

>  <r_i_glide_lipo>  (99) 
-0.106927

>  <r_i_glide_hbond>  (99) 
-0.339226

>  <r_i_glide_metal>  (99) 
-0

>  <r_i_glide_rewards>  (99) 
-0.869311

>  <r_i_glide_evdw>  (99) 
-22.491

>  <r_i_glide_ecoul>  (99) 
-8.56205

>  <r_i_glide_erotb>  (99) 
0

>  <r_i_glide_esite>  (99) 
-0.0971222

>  <r_i_glide_emodel>  (99) 
-42.8886

>  <r_i_glide_energy>  (99) 
-31.0531

>  <r_i_glide_einternal>  (99) 
0.676966

>  <r_i_glide_intrahb_reward>  (99) 
-0

>  <i_i_glide_confnum>  (99) 
2

>  <i_i_glide_posenum>  (99) 
20

>  <r_i_glide_eff_state_penalty>  (99) 
0

>  <ligand_id>  (99) 
27

>  <original_smiles>  (99) 
C=C1C2CC3CC4(O)CC5NC3C3CC1N(C4C2)C1CC3C5C12OCCO2

>  <smiles>  (99) 
[H]OC12C([H])([H])C3([H])C([H])([H])C4([H])C(=C([H])[H])C5([H])C([H])([H])C6([H])C7([H])C([H])([H])C([H])(C8(OC([H])([H])C([H])([H])O8)C7([H])C([H])(C1([H])[H])[N+]([H])([H])C36[H])[N+]5([H])C2([H])C4([H])[H]

$$$$
27:0:2
     RDKit          3D

 59 66  0  0  1  0  0  0  0  0999 V2000
    6.3528   -7.0920    3.0494 C   0  0  0  0  0  0  0  0  0  0  0  0
    5.3570   -7.8416    3.5636 C   0  0  0  0  0  0  0  0  0  0  0  0
    5.4332   -9.3252    3.6750 C   0  0  1  0  0  0  0  0  0  0  0  0
    5.3881   -9.8009    5.1664 C   0  0  0  0  0  0  0  0  0  0  0  0
    4.0374  -10.2097    5.8432 C   0  0  2  0  0  0  0  0  0  0  0  0
    3.4038  -11.2907    4.9933 C   0  0  0  0  0  0  0  0  0  0  0  0
    2.3988  -10.7259    3.9863 C   0  0  1  0  0  0  0  0  0  0  0  0
    2.2458  -11.7832    3.0622 O   0  0  0  0  0  0  0  0  0  0  0  0
    1.0125  -10.8020    4.6659 C   0  0  0  0  0  0  0  0  0  0  0  0
    0.7266   -9.7560    5.7421 C   0  0  1  0  0  0  0  0  0  0  0  0
    1.6970   -9.8529    6.8607 N   0  0  0  0  0  0  0  0  0  0  0  0
    3.0247   -9.2416    6.6034 C   0  0  2  0  0  0  0  0  0  0  0  0
    2.8459   -7.7236    6.2976 C   0  0  1  0  0  0  0  0  0  0  0  0
    4.0151   -7.0720    5.5437 C   0  0  0  0  0  0  0  0  0  0  0  0
    4.0271   -7.2936    4.0144 C   0  0  2  0  0  0  0  0  0  0  0  0
    2.8354   -8.0114    3.4297 N   0  0  1  0  0  0  0  0  0  0  0  0
    2.9264   -9.5072    3.0829 C   0  0  1  0  0  0  0  0  0  0  0  0
    4.3879   -9.8549    2.6767 C   0  0  0  0  0  0  0  0  0  0  0  0
    1.5424   -7.2028    3.4771 C   0  0  2  0  0  0  0  0  0  0  0  0
    1.5038   -6.2303    4.6755 C   0  0  0  0  0  0  0  0  0  0  0  0
    1.4260   -7.2186    5.8475 C   0  0  1  0  0  0  0  0  0  0  0  0
    0.4165   -8.2960    5.3322 C   0  0  1  0  0  0  0  0  0  0  0  0
    0.2663   -7.9681    3.7973 C   0  0  0  0  0  0  0  0  0  0  0  0
   -0.8315   -7.1107    3.6198 O   0  0  0  0  0  0  0  0  0  0  0  0
   -1.8646   -7.8923    3.0722 C   0  0  0  0  0  0  0  0  0  0  0  0
   -1.0598   -8.8204    2.1955 C   0  0  0  0  0  0  0  0  0  0  0  0
    0.1173   -9.0180    2.9214 O   0  0  0  0  0  0  0  0  0  0  0  0
    6.2767   -6.0203    2.9570 H   0  0  0  0  0  0  0  0  0  0  0  0
    7.2761   -7.5436    2.7211 H   0  0  0  0  0  0  0  0  0  0  0  0
    6.4123   -9.6173    3.2887 H   0  0  0  0  0  0  0  0  0  0  0  0
    5.9939  -10.7080    5.1762 H   0  0  0  0  0  0  0  0  0  0  0  0
    5.9742   -9.1468    5.8063 H   0  0  0  0  0  0  0  0  0  0  0  0
    4.4134  -10.7975    6.6818 H   0  0  0  0  0  0  0  0  0  0  0  0
    4.1795  -11.8793    4.5009 H   0  0  0  0  0  0  0  0  0  0  0  0
    2.9349  -12.0270    5.6484 H   0  0  0  0  0  0  0  0  0  0  0  0
    3.0812  -12.0258    2.6854 H   0  0  0  0  0  0  0  0  0  0  0  0
    0.1844  -10.9335    3.9737 H   0  0  0  0  0  0  0  0  0  0  0  0
    0.9268  -11.7656    5.1659 H   0  0  0  0  0  0  0  0  0  0  0  0
   -0.1962  -10.1186    6.1957 H   0  0  0  0  0  0  0  0  0  0  0  0
    1.2922   -9.4000    7.6613 H   0  0  0  0  0  0  0  0  0  0  0  0
    3.4603   -9.2217    7.6040 H   0  0  0  0  0  0  0  0  0  0  0  0
    2.9443   -7.2602    7.2832 H   0  0  0  0  0  0  0  0  0  0  0  0
    4.0226   -5.9990    5.7356 H   0  0  0  0  0  0  0  0  0  0  0  0
    4.9544   -7.3559    6.0031 H   0  0  0  0  0  0  0  0  0  0  0  0
    4.0039   -6.3015    3.5625 H   0  0  0  0  0  0  0  0  0  0  0  0
    2.3555   -9.5724    2.1573 H   0  0  0  0  0  0  0  0  0  0  0  0
    4.5921   -9.4140    1.7000 H   0  0  0  0  0  0  0  0  0  0  0  0
    4.5401  -10.9165    2.5022 H   0  0  0  0  0  0  0  0  0  0  0  0
    1.3967   -6.6727    2.5369 H   0  0  0  0  0  0  0  0  0  0  0  0
    2.2784   -5.4686    4.7143 H   0  0  0  0  0  0  0  0  0  0  0  0
    0.6039   -5.6194    4.6700 H   0  0  0  0  0  0  0  0  0  0  0  0
    0.9823   -6.7037    6.7044 H   0  0  0  0  0  0  0  0  0  0  0  0
   -0.5474   -8.0607    5.7890 H   0  0  0  0  0  0  0  0  0  0  0  0
   -2.4061   -8.4354    3.8467 H   0  0  0  0  0  0  0  0  0  0  0  0
   -2.5732   -7.2948    2.5007 H   0  0  0  0  0  0  0  0  0  0  0  0
   -1.5712   -9.7555    1.9709 H   0  0  0  0  0  0  0  0  0  0  0  0
   -0.7960   -8.3073    1.2717 H   0  0  0  0  0  0  0  0  0  0  0  0
    1.7873  -10.8499    7.1057 H   0  0  0  0  0  0  0  0  0  0  0  0
    3.0394   -7.7470    2.4804 H   0  0  0  0  0  0  0  0  0  0  0  0
  1  2  2  0
  1 28  1  0
  1 29  1  0
  2 15  1  0
  2  3  1  0
  3 18  1  0
  3  4  1  0
  3 30  1  6
  4  5  1  0
  4 31  1  0
  4 32  1  0
  5 12  1  0
  5  6  1  0
  5 33  1  1
  6  7  1  0
  6 34  1  0
  6 35  1  0
  7 17  1  0
  7  8  1  6
  7  9  1  0
  8 36  1  0
  9 10  1  0
  9 37  1  0
  9 38  1  0
 10 22  1  0
 10 11  1  0
 10 39  1  1
 11 12  1  0
 11 40  1  0
 11 58  1  0
 12 13  1  0
 12 41  1  1
 13 21  1  0
 13 14  1  0
 13 42  1  1
 14 15  1  0
 14 43  1  0
 14 44  1  0
 15 16  1  0
 15 45  1  6
 16 17  1  0
 16 19  1  0
 16 59  1  6
 17 18  1  0
 17 46  1  6
 18 47  1  0
 18 48  1  0
 19 23  1  0
 19 20  1  0
 19 49  1  6
 20 21  1  0
 20 50  1  0
 20 51  1  0
 21 22  1  0
 21 52  1  1
 22 23  1  0
 22 53  1  1
 23 27  1  0
 23 24  1  0
 24 25  1  0
 25 26  1  0
 25 54  1  0
 25 55  1  0
 26 27  1  0
 26 56  1  0
 26 57  1  0
M  CHG  2  11   1  16   1
M  END
>  <i_m_ct_stereo_status>  (100) 
1

>  <s_m_source_file>  (100) 
/var/tmp/pbs.5076255.sched01/tmpj20d55gn/0_c3see42.sdf

>  <i_m_source_file_index>  (100) 
38

>  <i_lp_mmshare_version>  (100) 
48012

>  <i_f3d_flags>  (100) 
0

>  <s_epik_input>  (100) 
TzFbQ0gyXVtDSDJdT0MxMltDQEBIXTNONFtDQEBIXTVDKD1bQ0gyXSlbQ0BIXTZbQ0gyXVtDQEhdN1tDQEhdOFtDQEBIXShbQ0gyXTUpW0NAQEhdKFtDSDJdMylbQ0BASF0yW0NASF0oW05IXTgpW0NIMl1bQ0BAXShbQ0gyXTcpKFtPSF0pW0NAQEhdNFtDSDJdNg==

>  <s_epik_cmdline>  (100) 
J2VwaWtfcHl0aG9uJywgJy1waHQnLCAnMi4wJywgJy1waCcsICc3LjAnLCAnLXRuJywgJzgnLCAnLW1hJywgJzIwMCcsICctaW1hZScsICc8aW5maWxlLm1hZT4nLCAnLW9tYWUnLCAnPG91dGZpbGUubWFlPic=

>  <r_epik_Ionization_Penalty>  (100) 
0.147572

>  <r_epik_Ionization_Penalty_Charging>  (100) 
0.147572

>  <r_epik_Ionization_Penalty_Neutral>  (100) 
6.32412e-07

>  <r_epik_State_Penalty>  (100) 
0.130481

>  <r_epik_Charging_Adjusted_Penalty>  (100) 
0.278052

>  <i_epik_Tot_Q>  (100) 
2

>  <i_epik_Tot_abs_Q>  (100) 
2

>  <s_lp_Force_Field>  (100) 
OPLS3e

>  <r_lp_Energy>  (100) 
133.402

>  <b_lp_Chiralities_Consistent>  (100) 
1

>  <s_lp_Variant>  (100) 
27:0-1

>  <s_i_glide_gridfile>  (100) 
pfpi4k_grid

>  <i_i_glide_lignum>  (100) 
38

>  <i_i_glide_rotatable_bonds>  (100) 
1

>  <r_i_docking_score>  (100) 
-3.62299

>  <r_i_glide_ligand_efficiency>  (100) 
-0.134185

>  <r_i_glide_ligand_efficiency_sa>  (100) 
-0.402554

>  <r_i_glide_ligand_efficiency_ln>  (100) 
-0.843371

>  <r_i_glide_gscore>  (100) 
-3.62299

>  <r_i_glide_lipo>  (100) 
-0.0460207

>  <r_i_glide_hbond>  (100) 
-0.227417

>  <r_i_glide_metal>  (100) 
-0

>  <r_i_glide_rewards>  (100) 
-0.869311

>  <r_i_glide_evdw>  (100) 
-22.4933

>  <r_i_glide_ecoul>  (100) 
-8.15385

>  <r_i_glide_erotb>  (100) 
0

>  <r_i_glide_esite>  (100) 
-0.132493

>  <r_i_glide_emodel>  (100) 
-42.162

>  <r_i_glide_energy>  (100) 
-30.6472

>  <r_i_glide_einternal>  (100) 
0.108608

>  <r_i_glide_intrahb_reward>  (100) 
-0

>  <i_i_glide_confnum>  (100) 
2

>  <i_i_glide_posenum>  (100) 
40

>  <r_i_glide_eff_state_penalty>  (100) 
0

>  <ligand_id>  (100) 
27

>  <original_smiles>  (100) 
C=C1C2CC3CC4(O)CC5NC3C3CC1N(C4C2)C1CC3C5C12OCCO2

>  <smiles>  (100) 
[H]OC12C([H])([H])C3([H])C([H])([H])C4([H])C(=C([H])[H])C5([H])C([H])([H])C6([H])C7([H])C([H])([H])C([H])(C8(OC([H])([H])C([H])([H])O8)C7([H])C([H])(C1([H])[H])[N+]([H])([H])C36[H])[N+]5([H])C2([H])C4([H])[H]

$$$$
27:1:0
     RDKit          3D

 58 65  0  0  1  0  0  0  0  0999 V2000
    6.0702   -6.1080    5.3732 C   0  0  0  0  0  0  0  0  0  0  0  0
    5.2745   -7.1186    4.9842 C   0  0  0  0  0  0  0  0  0  0  0  0
    5.6711   -8.1414    3.9755 C   0  0  1  0  0  0  0  0  0  0  0  0
    5.7980   -9.5590    4.6266 C   0  0  0  0  0  0  0  0  0  0  0  0
    4.5872  -10.5496    4.6252 C   0  0  2  0  0  0  0  0  0  0  0  0
    4.1599  -10.7414    3.1782 C   0  0  0  0  0  0  0  0  0  0  0  0
    3.0157   -9.8147    2.7519 C   0  0  1  0  0  0  0  0  0  0  0  0
    3.0818   -9.8288    1.3361 O   0  0  0  0  0  0  0  0  0  0  0  0
    1.7078  -10.6186    3.0196 C   0  0  0  0  0  0  0  0  0  0  0  0
    1.2555  -10.7501    4.4787 C   0  0  1  0  0  0  0  0  0  0  0  0
    2.2758  -11.4544    5.2788 N   0  0  0  0  0  0  0  0  0  0  0  0
    3.4287  -10.6356    5.7218 C   0  0  2  0  0  0  0  0  0  0  0  0
    2.9215   -9.4544    6.6193 C   0  0  1  0  0  0  0  0  0  0  0  0
    3.9080   -8.2686    6.7312 C   0  0  0  0  0  0  0  0  0  0  0  0
    3.8766   -7.3168    5.5100 C   0  0  2  0  0  0  0  0  0  0  0  0
    2.8526   -7.7293    4.5048 N   0  0  0  0  0  0  0  0  0  0  0  0
    3.2374   -8.2682    3.1413 C   0  0  1  0  0  0  0  0  0  0  0  0
    4.7111   -7.9311    2.7913 C   0  0  0  0  0  0  0  0  0  0  0  0
    1.4614   -7.3172    4.8720 C   0  0  2  0  0  0  0  0  0  0  0  0
    1.2205   -7.4987    6.3837 C   0  0  0  0  0  0  0  0  0  0  0  0
    1.4035   -9.0253    6.4825 C   0  0  1  0  0  0  0  0  0  0  0  0
    0.6280   -9.5351    5.2171 C   0  0  1  0  0  0  0  0  0  0  0  0
    0.3533   -8.2277    4.3722 C   0  0  0  0  0  0  0  0  0  0  0  0
   -0.8966   -7.6884    4.7031 O   0  0  0  0  0  0  0  0  0  0  0  0
   -1.7522   -7.9893    3.6258 C   0  0  0  0  0  0  0  0  0  0  0  0
   -0.7951   -7.8428    2.4613 C   0  0  0  0  0  0  0  0  0  0  0  0
    0.4104   -8.3107    2.9935 O   0  0  0  0  0  0  0  0  0  0  0  0
    5.7417   -5.3857    6.1050 H   0  0  0  0  0  0  0  0  0  0  0  0
    7.0684   -5.9845    4.9799 H   0  0  0  0  0  0  0  0  0  0  0  0
    6.6665   -7.8660    3.6320 H   0  0  0  0  0  0  0  0  0  0  0  0
    6.5808  -10.0560    4.0483 H   0  0  0  0  0  0  0  0  0  0  0  0
    6.2644   -9.5047    5.6086 H   0  0  0  0  0  0  0  0  0  0  0  0
    5.1120  -11.4868    4.8182 H   0  0  0  0  0  0  0  0  0  0  0  0
    5.0216  -10.6234    2.5191 H   0  0  0  0  0  0  0  0  0  0  0  0
    3.9007  -11.7898    3.0242 H   0  0  0  0  0  0  0  0  0  0  0  0
    3.3859  -10.6954    1.0458 H   0  0  0  0  0  0  0  0  0  0  0  0
    0.8937  -10.3653    2.3404 H   0  0  0  0  0  0  0  0  0  0  0  0
    1.8642  -11.6430    2.6783 H   0  0  0  0  0  0  0  0  0  0  0  0
    0.4427  -11.4677    4.4236 H   0  0  0  0  0  0  0  0  0  0  0  0
    1.8393  -11.8014    6.1474 H   0  0  0  0  0  0  0  0  0  0  0  0
    3.8868  -11.2873    6.4626 H   0  0  0  0  0  0  0  0  0  0  0  0
    2.9507   -9.8726    7.6269 H   0  0  0  0  0  0  0  0  0  0  0  0
    3.6996   -7.6947    7.6353 H   0  0  0  0  0  0  0  0  0  0  0  0
    4.9062   -8.6439    6.9367 H   0  0  0  0  0  0  0  0  0  0  0  0
    3.6084   -6.3265    5.8856 H   0  0  0  0  0  0  0  0  0  0  0  0
    2.6472   -7.7060    2.4180 H   0  0  0  0  0  0  0  0  0  0  0  0
    4.7488   -6.8776    2.5129 H   0  0  0  0  0  0  0  0  0  0  0  0
    5.0708   -8.4434    1.8994 H   0  0  0  0  0  0  0  0  0  0  0  0
    1.2570   -6.2983    4.5516 H   0  0  0  0  0  0  0  0  0  0  0  0
    1.8360   -6.8863    7.0404 H   0  0  0  0  0  0  0  0  0  0  0  0
    0.2137   -7.2178    6.6886 H   0  0  0  0  0  0  0  0  0  0  0  0
    0.8856   -9.3800    7.3760 H   0  0  0  0  0  0  0  0  0  0  0  0
   -0.3461   -9.8575    5.5854 H   0  0  0  0  0  0  0  0  0  0  0  0
   -2.1387   -9.0066    3.7048 H   0  0  0  0  0  0  0  0  0  0  0  0
   -2.5906   -7.2996    3.5740 H   0  0  0  0  0  0  0  0  0  0  0  0
   -1.0919   -8.4084    1.5784 H   0  0  0  0  0  0  0  0  0  0  0  0
   -0.6394   -6.7972    2.1957 H   0  0  0  0  0  0  0  0  0  0  0  0
    2.6084  -12.2541    4.7666 H   0  0  0  0  0  0  0  0  0  0  0  0
  1  2  2  0
  1 28  1  0
  1 29  1  0
  2 15  1  0
  2  3  1  0
  3 18  1  0
  3  4  1  0
  3 30  1  6
  4  5  1  0
  4 31  1  0
  4 32  1  0
  5 12  1  0
  5  6  1  0
  5 33  1  1
  6  7  1  0
  6 34  1  0
  6 35  1  0
  7 17  1  0
  7  8  1  6
  7  9  1  0
  8 36  1  0
  9 10  1  0
  9 37  1  0
  9 38  1  0
 10 22  1  0
 10 11  1  0
 10 39  1  6
 11 12  1  0
 11 40  1  0
 11 58  1  0
 12 13  1  0
 12 41  1  1
 13 21  1  0
 13 14  1  0
 13 42  1  1
 14 15  1  0
 14 43  1  0
 14 44  1  0
 15 16  1  0
 15 45  1  1
 16 17  1  0
 16 19  1  0
 17 18  1  0
 17 46  1  6
 18 47  1  0
 18 48  1  0
 19 23  1  0
 19 20  1  0
 19 49  1  6
 20 21  1  0
 20 50  1  0
 20 51  1  0
 21 22  1  0
 21 52  1  1
 22 23  1  0
 22 53  1  1
 23 27  1  0
 23 24  1  0
 24 25  1  0
 25 26  1  0
 25 54  1  0
 25 55  1  0
 26 27  1  0
 26 56  1  0
 26 57  1  0
M  CHG  1  11   1
M  END
>  <i_m_ct_stereo_status>  (101) 
1

>  <s_m_source_file>  (101) 
/var/tmp/pbs.5076255.sched01/tmpj20d55gn/0_c3see42.sdf

>  <i_m_source_file_index>  (101) 
39

>  <i_lp_mmshare_version>  (101) 
48012

>  <i_f3d_flags>  (101) 
0

>  <s_epik_input>  (101) 
TzFbQ0gyXVtDSDJdT0MxMltDQEBIXTNONFtDQEBIXTVDKD1bQ0gyXSlbQ0BIXTZbQ0gyXVtDQEhdN1tDQEhdOFtDQEBIXShbQ0gyXTUpW0NAQEhdKFtDSDJdMylbQ0BASF0yW0NASF0oW05IXTgpW0NIMl1bQ0BAXShbQ0gyXTcpKFtPSF0pW0NAQEhdNFtDSDJdNg==

>  <s_epik_cmdline>  (101) 
J2VwaWtfcHl0aG9uJywgJy1waHQnLCAnMi4wJywgJy1waCcsICc3LjAnLCAnLXRuJywgJzgnLCAnLW1hJywgJzIwMCcsICctaW1hZScsICc8aW5maWxlLm1hZT4nLCAnLW9tYWUnLCAnPG91dGZpbGUubWFlPic=

>  <r_epik_Ionization_Penalty>  (101) 
0.96833

>  <r_epik_Ionization_Penalty_Charging>  (101) 
0.000638542

>  <r_epik_Ionization_Penalty_Neutral>  (101) 
0.967691

>  <r_epik_State_Penalty>  (101) 
1.02572

>  <r_epik_Charging_Adjusted_Penalty>  (101) 
1.02636

>  <i_epik_Tot_Q>  (101) 
1

>  <i_epik_Tot_abs_Q>  (101) 
1

>  <s_lp_Force_Field>  (101) 
OPLS3e

>  <r_lp_Energy>  (101) 
117.086

>  <b_lp_Chiralities_Consistent>  (101) 
1

>  <s_lp_Variant>  (101) 
27:0-2

>  <s_i_glide_gridfile>  (101) 
pfpi4k_grid

>  <i_i_glide_lignum>  (101) 
39

>  <i_i_glide_rotatable_bonds>  (101) 
1

>  <r_i_docking_score>  (101) 
-3.76142

>  <r_i_glide_ligand_efficiency>  (101) 
-0.139312

>  <r_i_glide_ligand_efficiency_sa>  (101) 
-0.417936

>  <r_i_glide_ligand_efficiency_ln>  (101) 
-0.875597

>  <r_i_glide_gscore>  (101) 
-3.76142

>  <r_i_glide_lipo>  (101) 
-0.106226

>  <r_i_glide_hbond>  (101) 
-0.2

>  <r_i_glide_metal>  (101) 
-0

>  <r_i_glide_rewards>  (101) 
-0.876183

>  <r_i_glide_evdw>  (101) 
-22.3116

>  <r_i_glide_ecoul>  (101) 
-8.89348

>  <r_i_glide_erotb>  (101) 
0

>  <r_i_glide_esite>  (101) 
-0.129411

>  <r_i_glide_emodel>  (101) 
-42.2601

>  <r_i_glide_energy>  (101) 
-31.2051

>  <r_i_glide_einternal>  (101) 
0.532273

>  <r_i_glide_intrahb_reward>  (101) 
-0

>  <i_i_glide_confnum>  (101) 
3

>  <i_i_glide_posenum>  (101) 
25

>  <r_i_glide_eff_state_penalty>  (101) 
0

>  <ligand_id>  (101) 
27

>  <original_smiles>  (101) 
C=C1C2CC3CC4(O)CC5NC3C3CC1N(C4C2)C1CC3C5C12OCCO2

>  <smiles>  (101) 
[H]OC12C([H])([H])C3([H])C([H])([H])C4([H])C(=C([H])[H])C5([H])N(C6([H])C([H])([H])C7([H])C([H])(C68OC([H])([H])C([H])([H])O8)C([H])(C1([H])[H])[N+]([H])([H])C3([H])C7([H])C5([H])[H])C2([H])C4([H])[H]

$$$$
27:1:1
     RDKit          3D

 58 65  0  0  1  0  0  0  0  0999 V2000
    5.5303   -7.7157    2.2446 C   0  0  0  0  0  0  0  0  0  0  0  0
    4.3182   -8.0143    2.7576 C   0  0  0  0  0  0  0  0  0  0  0  0
    3.1433   -8.3871    1.9243 C   0  0  1  0  0  0  0  0  0  0  0  0
    2.7222   -9.8699    2.1780 C   0  0  0  0  0  0  0  0  0  0  0  0
    1.6291  -10.2316    3.2375 C   0  0  2  0  0  0  0  0  0  0  0  0
    0.3735   -9.4521    2.8792 C   0  0  0  0  0  0  0  0  0  0  0  0
    0.2493   -8.1153    3.6182 C   0  0  1  0  0  0  0  0  0  0  0  0
   -0.7093   -7.3799    2.8637 O   0  0  0  0  0  0  0  0  0  0  0  0
   -0.5665   -8.4405    4.8947 C   0  0  0  0  0  0  0  0  0  0  0  0
    0.1554   -9.2061    6.0227 C   0  0  1  0  0  0  0  0  0  0  0  0
    0.6279  -10.5393    5.5845 N   0  0  0  0  0  0  0  0  0  0  0  0
    1.8748  -10.5240    4.7899 C   0  0  2  0  0  0  0  0  0  0  0  0
    3.0364   -9.9201    5.6543 C   0  0  1  0  0  0  0  0  0  0  0  0
    4.2402   -9.3948    4.8393 C   0  0  0  0  0  0  0  0  0  0  0  0
    4.0154   -7.9861    4.2292 C   0  0  2  0  0  0  0  0  0  0  0  0
    2.6874   -7.4187    4.6078 N   0  0  0  0  0  0  0  0  0  0  0  0
    1.5816   -7.2143    3.5955 C   0  0  1  0  0  0  0  0  0  0  0  0
    2.1178   -7.2620    2.1417 C   0  0  0  0  0  0  0  0  0  0  0  0
    2.6683   -6.8325    5.9852 C   0  0  2  0  0  0  0  0  0  0  0  0
    3.4765   -7.7093    6.9623 C   0  0  0  0  0  0  0  0  0  0  0  0
    2.6433   -9.0054    6.8857 C   0  0  1  0  0  0  0  0  0  0  0  0
    1.1727   -8.4581    6.9290 C   0  0  1  0  0  0  0  0  0  0  0  0
    1.3305   -6.8967    6.7088 C   0  0  0  0  0  0  0  0  0  0  0  0
    1.4210   -6.2464    7.9432 O   0  0  0  0  0  0  0  0  0  0  0  0
    0.1930   -5.5859    8.1422 C   0  0  0  0  0  0  0  0  0  0  0  0
   -0.1297   -5.1601    6.7245 C   0  0  0  0  0  0  0  0  0  0  0  0
    0.3726   -6.2273    5.9684 O   0  0  0  0  0  0  0  0  0  0  0  0
    6.3542   -7.4479    2.8855 H   0  0  0  0  0  0  0  0  0  0  0  0
    5.7166   -7.7434    1.1849 H   0  0  0  0  0  0  0  0  0  0  0  0
    3.4719   -8.3291    0.8896 H   0  0  0  0  0  0  0  0  0  0  0  0
    2.3210  -10.1958    1.2177 H   0  0  0  0  0  0  0  0  0  0  0  0
    3.5919  -10.5197    2.2631 H   0  0  0  0  0  0  0  0  0  0  0  0
    1.3668  -11.2347    2.8920 H   0  0  0  0  0  0  0  0  0  0  0  0
    0.3482   -9.2858    1.8006 H   0  0  0  0  0  0  0  0  0  0  0  0
   -0.4931  -10.0950    3.0406 H   0  0  0  0  0  0  0  0  0  0  0  0
   -1.4237   -7.9669    2.6708 H   0  0  0  0  0  0  0  0  0  0  0  0
   -1.1622   -7.6099    5.2583 H   0  0  0  0  0  0  0  0  0  0  0  0
   -1.4157   -9.0617    4.5961 H   0  0  0  0  0  0  0  0  0  0  0  0
   -0.6574   -9.4546    6.7012 H   0  0  0  0  0  0  0  0  0  0  0  0
    0.8092  -11.1273    6.3985 H   0  0  0  0  0  0  0  0  0  0  0  0
    2.1421  -11.5801    4.7691 H   0  0  0  0  0  0  0  0  0  0  0  0
    3.4570  -10.7977    6.1469 H   0  0  0  0  0  0  0  0  0  0  0  0
    5.1348   -9.3712    5.4662 H   0  0  0  0  0  0  0  0  0  0  0  0
    4.5213  -10.1267    4.0878 H   0  0  0  0  0  0  0  0  0  0  0  0
    4.7936   -7.3346    4.6323 H   0  0  0  0  0  0  0  0  0  0  0  0
    1.2336   -6.1919    3.7297 H   0  0  0  0  0  0  0  0  0  0  0  0
    2.6162   -6.3143    1.9467 H   0  0  0  0  0  0  0  0  0  0  0  0
    1.3280   -7.3020    1.3915 H   0  0  0  0  0  0  0  0  0  0  0  0
    3.0250   -5.8049    5.9763 H   0  0  0  0  0  0  0  0  0  0  0  0
    4.5405   -7.7989    6.7535 H   0  0  0  0  0  0  0  0  0  0  0  0
    3.4803   -7.3208    7.9802 H   0  0  0  0  0  0  0  0  0  0  0  0
    2.8245   -9.5873    7.7910 H   0  0  0  0  0  0  0  0  0  0  0  0
    0.8227   -8.5845    7.9537 H   0  0  0  0  0  0  0  0  0  0  0  0
   -0.5482   -6.2821    8.5292 H   0  0  0  0  0  0  0  0  0  0  0  0
    0.2794   -4.7473    8.8320 H   0  0  0  0  0  0  0  0  0  0  0  0
   -1.1955   -5.0177    6.5445 H   0  0  0  0  0  0  0  0  0  0  0  0
    0.4168   -4.2610    6.4400 H   0  0  0  0  0  0  0  0  0  0  0  0
   -0.1221  -10.9695    5.0587 H   0  0  0  0  0  0  0  0  0  0  0  0
  1  2  2  0
  1 28  1  0
  1 29  1  0
  2 15  1  0
  2  3  1  0
  3 18  1  0
  3  4  1  0
  3 30  1  6
  4  5  1  0
  4 31  1  0
  4 32  1  0
  5 12  1  0
  5  6  1  0
  5 33  1  6
  6  7  1  0
  6 34  1  0
  6 35  1  0
  7 17  1  0
  7  8  1  6
  7  9  1  0
  8 36  1  0
  9 10  1  0
  9 37  1  0
  9 38  1  0
 10 22  1  0
 10 11  1  0
 10 39  1  1
 11 12  1  0
 11 40  1  0
 11 58  1  0
 12 13  1  0
 12 41  1  6
 13 21  1  0
 13 14  1  0
 13 42  1  1
 14 15  1  0
 14 43  1  0
 14 44  1  0
 15 16  1  0
 15 45  1  1
 16 17  1  0
 16 19  1  0
 17 18  1  0
 17 46  1  1
 18 47  1  0
 18 48  1  0
 19 23  1  0
 19 20  1  0
 19 49  1  6
 20 21  1  0
 20 50  1  0
 20 51  1  0
 21 22  1  0
 21 52  1  1
 22 23  1  0
 22 53  1  1
 23 27  1  0
 23 24  1  0
 24 25  1  0
 25 26  1  0
 25 54  1  0
 25 55  1  0
 26 27  1  0
 26 56  1  0
 26 57  1  0
M  CHG  1  11   1
M  END
>  <i_m_ct_stereo_status>  (102) 
1

>  <s_m_source_file>  (102) 
/var/tmp/pbs.5076255.sched01/tmpj20d55gn/0_c3see42.sdf

>  <i_m_source_file_index>  (102) 
39

>  <i_lp_mmshare_version>  (102) 
48012

>  <i_f3d_flags>  (102) 
0

>  <s_epik_input>  (102) 
TzFbQ0gyXVtDSDJdT0MxMltDQEBIXTNONFtDQEBIXTVDKD1bQ0gyXSlbQ0BIXTZbQ0gyXVtDQEhdN1tDQEhdOFtDQEBIXShbQ0gyXTUpW0NAQEhdKFtDSDJdMylbQ0BASF0yW0NASF0oW05IXTgpW0NIMl1bQ0BAXShbQ0gyXTcpKFtPSF0pW0NAQEhdNFtDSDJdNg==

>  <s_epik_cmdline>  (102) 
J2VwaWtfcHl0aG9uJywgJy1waHQnLCAnMi4wJywgJy1waCcsICc3LjAnLCAnLXRuJywgJzgnLCAnLW1hJywgJzIwMCcsICctaW1hZScsICc8aW5maWxlLm1hZT4nLCAnLW9tYWUnLCAnPG91dGZpbGUubWFlPic=

>  <r_epik_Ionization_Penalty>  (102) 
0.96833

>  <r_epik_Ionization_Penalty_Charging>  (102) 
0.000638542

>  <r_epik_Ionization_Penalty_Neutral>  (102) 
0.967691

>  <r_epik_State_Penalty>  (102) 
1.02572

>  <r_epik_Charging_Adjusted_Penalty>  (102) 
1.02636

>  <i_epik_Tot_Q>  (102) 
1

>  <i_epik_Tot_abs_Q>  (102) 
1

>  <s_lp_Force_Field>  (102) 
OPLS3e

>  <r_lp_Energy>  (102) 
117.086

>  <b_lp_Chiralities_Consistent>  (102) 
1

>  <s_lp_Variant>  (102) 
27:0-2

>  <s_i_glide_gridfile>  (102) 
pfpi4k_grid

>  <i_i_glide_lignum>  (102) 
39

>  <i_i_glide_rotatable_bonds>  (102) 
1

>  <r_i_docking_score>  (102) 
-3.65188

>  <r_i_glide_ligand_efficiency>  (102) 
-0.135255

>  <r_i_glide_ligand_efficiency_sa>  (102) 
-0.405764

>  <r_i_glide_ligand_efficiency_ln>  (102) 
-0.850097

>  <r_i_glide_gscore>  (102) 
-3.65188

>  <r_i_glide_lipo>  (102) 
-0.120807

>  <r_i_glide_hbond>  (102) 
-0.343948

>  <r_i_glide_metal>  (102) 
-0

>  <r_i_glide_rewards>  (102) 
-0.876183

>  <r_i_glide_evdw>  (102) 
-23.427

>  <r_i_glide_ecoul>  (102) 
-6.95201

>  <r_i_glide_erotb>  (102) 
0

>  <r_i_glide_esite>  (102) 
-0.0967904

>  <r_i_glide_emodel>  (102) 
-41.4398

>  <r_i_glide_energy>  (102) 
-30.379

>  <r_i_glide_einternal>  (102) 
0.118148

>  <r_i_glide_intrahb_reward>  (102) 
-0

>  <i_i_glide_confnum>  (102) 
3

>  <i_i_glide_posenum>  (102) 
2

>  <r_i_glide_eff_state_penalty>  (102) 
0

>  <ligand_id>  (102) 
27

>  <original_smiles>  (102) 
C=C1C2CC3CC4(O)CC5NC3C3CC1N(C4C2)C1CC3C5C12OCCO2

>  <smiles>  (102) 
[H]OC12C([H])([H])C3([H])C([H])([H])C4([H])C(=C([H])[H])C5([H])N(C6([H])C([H])([H])C7([H])C([H])(C68OC([H])([H])C([H])([H])O8)C([H])(C1([H])[H])[N+]([H])([H])C3([H])C7([H])C5([H])[H])C2([H])C4([H])[H]

$$$$
27:1:2
     RDKit          3D

 58 65  0  0  1  0  0  0  0  0999 V2000
    4.5563   -8.1590    0.9819 C   0  0  0  0  0  0  0  0  0  0  0  0
    3.7602   -8.4255    2.0361 C   0  0  0  0  0  0  0  0  0  0  0  0
    2.6746   -9.4451    2.0105 C   0  0  1  0  0  0  0  0  0  0  0  0
    2.9960  -10.6390    2.9704 C   0  0  0  0  0  0  0  0  0  0  0  0
    2.4720  -10.6399    4.4441 C   0  0  2  0  0  0  0  0  0  0  0  0
    0.9583  -10.4875    4.3876 C   0  0  0  0  0  0  0  0  0  0  0  0
    0.4950   -9.0326    4.5435 C   0  0  1  0  0  0  0  0  0  0  0  0
   -0.8416   -9.0133    4.0676 O   0  0  0  0  0  0  0  0  0  0  0  0
    0.2504   -8.8462    6.0666 C   0  0  0  0  0  0  0  0  0  0  0  0
    1.4861   -8.6976    6.9573 C   0  0  1  0  0  0  0  0  0  0  0  0
    2.3430   -9.8953    6.8999 N   0  0  0  0  0  0  0  0  0  0  0  0
    3.2076  -10.0021    5.7115 C   0  0  2  0  0  0  0  0  0  0  0  0
    4.2028   -8.7897    5.6833 C   0  0  1  0  0  0  0  0  0  0  0  0
    4.8170   -8.4952    4.2969 C   0  0  0  0  0  0  0  0  0  0  0  0
    3.8736   -7.7076    3.3525 C   0  0  2  0  0  0  0  0  0  0  0  0
    2.5828   -7.3606    4.0179 N   0  0  0  0  0  0  0  0  0  0  0  0
    1.2700   -7.9826    3.5984 C   0  0  1  0  0  0  0  0  0  0  0  0
    1.3750   -8.6464    2.2023 C   0  0  0  0  0  0  0  0  0  0  0  0
    2.6830   -6.1678    4.9176 C   0  0  2  0  0  0  0  0  0  0  0  0
    4.0095   -6.1921    5.7010 C   0  0  0  0  0  0  0  0  0  0  0  0
    3.8038   -7.4964    6.5017 C   0  0  1  0  0  0  0  0  0  0  0  0
    2.3047   -7.3731    6.9611 C   0  0  1  0  0  0  0  0  0  0  0  0
    1.7383   -6.1638    6.1093 C   0  0  0  0  0  0  0  0  0  0  0  0
    1.8704   -4.9685    6.8190 O   0  0  0  0  0  0  0  0  0  0  0  0
    0.5809   -4.6162    7.2633 C   0  0  0  0  0  0  0  0  0  0  0  0
   -0.2483   -5.0701    6.0848 C   0  0  0  0  0  0  0  0  0  0  0  0
    0.4320   -6.2219    5.6550 O   0  0  0  0  0  0  0  0  0  0  0  0
    5.3288   -7.4088    1.0416 H   0  0  0  0  0  0  0  0  0  0  0  0
    4.4511   -8.6885    0.0504 H   0  0  0  0  0  0  0  0  0  0  0  0
    2.6547   -9.8502    1.0010 H   0  0  0  0  0  0  0  0  0  0  0  0
    2.5326  -11.5060    2.4921 H   0  0  0  0  0  0  0  0  0  0  0  0
    4.0482  -10.9155    2.9158 H   0  0  0  0  0  0  0  0  0  0  0  0
    2.5678  -11.7032    4.6743 H   0  0  0  0  0  0  0  0  0  0  0  0
    0.5722  -10.9208    3.4626 H   0  0  0  0  0  0  0  0  0  0  0  0
    0.5189  -11.1353    5.1475 H   0  0  0  0  0  0  0  0  0  0  0  0
   -1.3236   -9.7449    4.4740 H   0  0  0  0  0  0  0  0  0  0  0  0
   -0.5236   -8.1197    6.2843 H   0  0  0  0  0  0  0  0  0  0  0  0
   -0.2797   -9.7300    6.4431 H   0  0  0  0  0  0  0  0  0  0  0  0
    1.0652   -8.7350    7.9575 H   0  0  0  0  0  0  0  0  0  0  0  0
    2.9319   -9.8967    7.7127 H   0  0  0  0  0  0  0  0  0  0  0  0
    3.8699  -10.8177    5.9916 H   0  0  0  0  0  0  0  0  0  0  0  0
    5.0646   -9.1592    6.2398 H   0  0  0  0  0  0  0  0  0  0  0  0
    5.7524   -7.9410    4.4115 H   0  0  0  0  0  0  0  0  0  0  0  0
    5.1660   -9.4189    3.8482 H   0  0  0  0  0  0  0  0  0  0  0  0
    4.3856   -6.7801    3.0899 H   0  0  0  0  0  0  0  0  0  0  0  0
    0.5720   -7.1580    3.4590 H   0  0  0  0  0  0  0  0  0  0  0  0
    1.3560   -7.8544    1.4566 H   0  0  0  0  0  0  0  0  0  0  0  0
    0.5026   -9.2518    1.9595 H   0  0  0  0  0  0  0  0  0  0  0  0
    2.5632   -5.2429    4.3584 H   0  0  0  0  0  0  0  0  0  0  0  0
    4.9194   -6.1230    5.1068 H   0  0  0  0  0  0  0  0  0  0  0  0
    4.1191   -5.3466    6.3785 H   0  0  0  0  0  0  0  0  0  0  0  0
    4.4425   -7.4587    7.3861 H   0  0  0  0  0  0  0  0  0  0  0  0
    2.3231   -7.0226    7.9942 H   0  0  0  0  0  0  0  0  0  0  0  0
    0.3329   -5.1638    8.1707 H   0  0  0  0  0  0  0  0  0  0  0  0
    0.4888   -3.5493    7.4592 H   0  0  0  0  0  0  0  0  0  0  0  0
   -1.2812   -5.3051    6.3405 H   0  0  0  0  0  0  0  0  0  0  0  0
   -0.2171   -4.3543    5.2688 H   0  0  0  0  0  0  0  0  0  0  0  0
    1.7849  -10.7504    6.9659 H   0  0  0  0  0  0  0  0  0  0  0  0
  1  2  2  0
  1 28  1  0
  1 29  1  0
  2 15  1  0
  2  3  1  0
  3 18  1  0
  3  4  1  0
  3 30  1  6
  4  5  1  0
  4 31  1  0
  4 32  1  0
  5 12  1  0
  5  6  1  0
  5 33  1  1
  6  7  1  0
  6 34  1  0
  6 35  1  0
  7 17  1  0
  7  8  1  6
  7  9  1  0
  8 36  1  0
  9 10  1  0
  9 37  1  0
  9 38  1  0
 10 22  1  0
 10 11  1  0
 10 39  1  1
 11 12  1  0
 11 40  1  0
 11 58  1  0
 12 13  1  0
 12 41  1  1
 13 21  1  0
 13 14  1  0
 13 42  1  1
 14 15  1  0
 14 43  1  0
 14 44  1  0
 15 16  1  0
 15 45  1  6
 16 17  1  0
 16 19  1  0
 17 18  1  0
 17 46  1  6
 18 47  1  0
 18 48  1  0
 19 23  1  0
 19 20  1  0
 19 49  1  6
 20 21  1  0
 20 50  1  0
 20 51  1  0
 21 22  1  0
 21 52  1  1
 22 23  1  0
 22 53  1  1
 23 27  1  0
 23 24  1  0
 24 25  1  0
 25 26  1  0
 25 54  1  0
 25 55  1  0
 26 27  1  0
 26 56  1  0
 26 57  1  0
M  CHG  1  11   1
M  END
>  <i_m_ct_stereo_status>  (103) 
1

>  <s_m_source_file>  (103) 
/var/tmp/pbs.5076255.sched01/tmpj20d55gn/0_c3see42.sdf

>  <i_m_source_file_index>  (103) 
39

>  <i_lp_mmshare_version>  (103) 
48012

>  <i_f3d_flags>  (103) 
0

>  <s_epik_input>  (103) 
TzFbQ0gyXVtDSDJdT0MxMltDQEBIXTNONFtDQEBIXTVDKD1bQ0gyXSlbQ0BIXTZbQ0gyXVtDQEhdN1tDQEhdOFtDQEBIXShbQ0gyXTUpW0NAQEhdKFtDSDJdMylbQ0BASF0yW0NASF0oW05IXTgpW0NIMl1bQ0BAXShbQ0gyXTcpKFtPSF0pW0NAQEhdNFtDSDJdNg==

>  <s_epik_cmdline>  (103) 
J2VwaWtfcHl0aG9uJywgJy1waHQnLCAnMi4wJywgJy1waCcsICc3LjAnLCAnLXRuJywgJzgnLCAnLW1hJywgJzIwMCcsICctaW1hZScsICc8aW5maWxlLm1hZT4nLCAnLW9tYWUnLCAnPG91dGZpbGUubWFlPic=

>  <r_epik_Ionization_Penalty>  (103) 
0.96833

>  <r_epik_Ionization_Penalty_Charging>  (103) 
0.000638542

>  <r_epik_Ionization_Penalty_Neutral>  (103) 
0.967691

>  <r_epik_State_Penalty>  (103) 
1.02572

>  <r_epik_Charging_Adjusted_Penalty>  (103) 
1.02636

>  <i_epik_Tot_Q>  (103) 
1

>  <i_epik_Tot_abs_Q>  (103) 
1

>  <s_lp_Force_Field>  (103) 
OPLS3e

>  <r_lp_Energy>  (103) 
117.086

>  <b_lp_Chiralities_Consistent>  (103) 
1

>  <s_lp_Variant>  (103) 
27:0-2

>  <s_i_glide_gridfile>  (103) 
pfpi4k_grid

>  <i_i_glide_lignum>  (103) 
39

>  <i_i_glide_rotatable_bonds>  (103) 
1

>  <r_i_docking_score>  (103) 
-3.5422

>  <r_i_glide_ligand_efficiency>  (103) 
-0.131192

>  <r_i_glide_ligand_efficiency_sa>  (103) 
-0.393577

>  <r_i_glide_ligand_efficiency_ln>  (103) 
-0.824565

>  <r_i_glide_gscore>  (103) 
-3.5422

>  <r_i_glide_lipo>  (103) 
-0.00918073

>  <r_i_glide_hbond>  (103) 
-0.2

>  <r_i_glide_metal>  (103) 
-0

>  <r_i_glide_rewards>  (103) 
-0.876183

>  <r_i_glide_evdw>  (103) 
-20.9844

>  <r_i_glide_ecoul>  (103) 
-8.71704

>  <r_i_glide_erotb>  (103) 
0

>  <r_i_glide_esite>  (103) 
-0.100057

>  <r_i_glide_emodel>  (103) 
-40.4818

>  <r_i_glide_energy>  (103) 
-29.7014

>  <r_i_glide_einternal>  (103) 
0.0629812

>  <r_i_glide_intrahb_reward>  (103) 
-0

>  <i_i_glide_confnum>  (103) 
2

>  <i_i_glide_posenum>  (103) 
10

>  <r_i_glide_eff_state_penalty>  (103) 
0

>  <ligand_id>  (103) 
27

>  <original_smiles>  (103) 
C=C1C2CC3CC4(O)CC5NC3C3CC1N(C4C2)C1CC3C5C12OCCO2

>  <smiles>  (103) 
[H]OC12C([H])([H])C3([H])C([H])([H])C4([H])C(=C([H])[H])C5([H])N(C6([H])C([H])([H])C7([H])C([H])(C68OC([H])([H])C([H])([H])O8)C([H])(C1([H])[H])[N+]([H])([H])C3([H])C7([H])C5([H])[H])C2([H])C4([H])[H]

$$$$
27:2:0
     RDKit          3D

 58 65  0  0  1  0  0  0  0  0999 V2000
    5.8205   -5.7115    5.7164 C   0  0  0  0  0  0  0  0  0  0  0  0
    5.1613   -6.8059    5.2749 C   0  0  0  0  0  0  0  0  0  0  0  0
    5.7320   -7.7249    4.2438 C   0  0  1  0  0  0  0  0  0  0  0  0
    5.9566   -9.1646    4.8170 C   0  0  0  0  0  0  0  0  0  0  0  0
    4.8595  -10.2652    4.6616 C   0  0  2  0  0  0  0  0  0  0  0  0
    4.5557  -10.4061    3.1817 C   0  0  0  0  0  0  0  0  0  0  0  0
    3.3394   -9.5766    2.7728 C   0  0  1  0  0  0  0  0  0  0  0  0
    3.4798   -9.5005    1.3552 O   0  0  0  0  0  0  0  0  0  0  0  0
    2.1232  -10.5298    2.8843 C   0  0  0  0  0  0  0  0  0  0  0  0
    1.6112  -10.8099    4.3084 C   0  0  1  0  0  0  0  0  0  0  0  0
    2.6315  -11.4519    5.1387 N   0  0  0  0  0  0  0  0  0  0  0  0
    3.6622  -10.5562    5.6665 C   0  0  2  0  0  0  0  0  0  0  0  0
    2.9801   -9.4954    6.5877 C   0  0  1  0  0  0  0  0  0  0  0  0
    3.8103   -8.2381    6.8315 C   0  0  0  0  0  0  0  0  0  0  0  0
    3.7744   -7.1873    5.7060 C   0  0  2  0  0  0  0  0  0  0  0  0
    2.8236   -7.4681    4.5516 N   0  0  1  0  0  0  0  0  0  0  0  0
    3.3707   -8.0389    3.2371 C   0  0  1  0  0  0  0  0  0  0  0  0
    4.8254   -7.5372    3.0124 C   0  0  0  0  0  0  0  0  0  0  0  0
    1.3604   -7.3766    4.9158 C   0  0  2  0  0  0  0  0  0  0  0  0
    1.1037   -7.7242    6.3927 C   0  0  0  0  0  0  0  0  0  0  0  0
    1.4484   -9.2224    6.4013 C   0  0  1  0  0  0  0  0  0  0  0  0
    0.8071   -9.7324    5.0668 C   0  0  1  0  0  0  0  0  0  0  0  0
    0.4205   -8.4007    4.3088 C   0  0  0  0  0  0  0  0  0  0  0  0
    0.5554   -8.3712    2.9225 O   0  0  0  0  0  0  0  0  0  0  0  0
   -0.6918   -8.0111    2.3679 C   0  0  0  0  0  0  0  0  0  0  0  0
   -1.6649   -8.3715    3.4599 C   0  0  0  0  0  0  0  0  0  0  0  0
   -0.8863   -8.0454    4.5878 O   0  0  0  0  0  0  0  0  0  0  0  0
    5.3892   -5.0402    6.4444 H   0  0  0  0  0  0  0  0  0  0  0  0
    6.8106   -5.4722    5.3526 H   0  0  0  0  0  0  0  0  0  0  0  0
    6.7161   -7.3355    3.9853 H   0  0  0  0  0  0  0  0  0  0  0  0
    6.8245   -9.5391    4.2688 H   0  0  0  0  0  0  0  0  0  0  0  0
    6.3426   -9.1279    5.8324 H   0  0  0  0  0  0  0  0  0  0  0  0
    5.4618  -11.1576    4.8316 H   0  0  0  0  0  0  0  0  0  0  0  0
    5.4359  -10.1471    2.5908 H   0  0  0  0  0  0  0  0  0  0  0  0
    4.4223  -11.4656    2.9516 H   0  0  0  0  0  0  0  0  0  0  0  0
    3.6637  -10.3805    1.0248 H   0  0  0  0  0  0  0  0  0  0  0  0
    1.3292  -10.3092    2.1839 H   0  0  0  0  0  0  0  0  0  0  0  0
    2.4078  -11.5152    2.4815 H   0  0  0  0  0  0  0  0  0  0  0  0
    0.8874  -11.6102    4.1488 H   0  0  0  0  0  0  0  0  0  0  0  0
    2.1652  -11.8643    5.9388 H   0  0  0  0  0  0  0  0  0  0  0  0
    4.1504  -11.2001    6.4012 H   0  0  0  0  0  0  0  0  0  0  0  0
    3.0046   -9.9854    7.5625 H   0  0  0  0  0  0  0  0  0  0  0  0
    3.4896   -7.7617    7.7645 H   0  0  0  0  0  0  0  0  0  0  0  0
    4.8267   -8.5156    7.0981 H   0  0  0  0  0  0  0  0  0  0  0  0
    3.4007   -6.2731    6.1520 H   0  0  0  0  0  0  0  0  0  0  0  0
    2.7843   -7.5150    2.4866 H   0  0  0  0  0  0  0  0  0  0  0  0
    4.7985   -6.4745    2.7726 H   0  0  0  0  0  0  0  0  0  0  0  0
    5.2996   -7.9781    2.1262 H   0  0  0  0  0  0  0  0  0  0  0  0
    0.9738   -6.3796    4.6863 H   0  0  0  0  0  0  0  0  0  0  0  0
    1.6000   -7.1076    7.1458 H   0  0  0  0  0  0  0  0  0  0  0  0
    0.0600   -7.6030    6.6725 H   0  0  0  0  0  0  0  0  0  0  0  0
    0.9320   -9.7044    7.2345 H   0  0  0  0  0  0  0  0  0  0  0  0
   -0.1418  -10.2020    5.3451 H   0  0  0  0  0  0  0  0  0  0  0  0
   -0.6741   -6.9449    2.1886 H   0  0  0  0  0  0  0  0  0  0  0  0
   -0.8847   -8.5414    1.4366 H   0  0  0  0  0  0  0  0  0  0  0  0
   -2.5848   -7.7923    3.4156 H   0  0  0  0  0  0  0  0  0  0  0  0
   -1.9213   -9.4289    3.4497 H   0  0  0  0  0  0  0  0  0  0  0  0
    2.8723   -6.5325    4.1965 H   0  0  0  0  0  0  0  0  0  0  0  0
  1  2  2  0
  1 28  1  0
  1 29  1  0
  2 15  1  0
  2  3  1  0
  3 18  1  0
  3  4  1  0
  3 30  1  6
  4  5  1  0
  4 31  1  0
  4 32  1  0
  5 12  1  0
  5  6  1  0
  5 33  1  1
  6  7  1  0
  6 34  1  0
  6 35  1  0
  7 17  1  0
  7  8  1  6
  7  9  1  0
  8 36  1  0
  9 10  1  0
  9 37  1  0
  9 38  1  0
 10 22  1  0
 10 11  1  0
 10 39  1  6
 11 12  1  0
 11 40  1  0
 12 13  1  0
 12 41  1  1
 13 21  1  0
 13 14  1  0
 13 42  1  1
 14 15  1  0
 14 43  1  0
 14 44  1  0
 15 16  1  0
 15 45  1  1
 16 17  1  0
 16 19  1  0
 16 58  1  6
 17 18  1  0
 17 46  1  6
 18 47  1  0
 18 48  1  0
 19 23  1  0
 19 20  1  0
 19 49  1  1
 20 21  1  0
 20 50  1  0
 20 51  1  0
 21 22  1  0
 21 52  1  1
 22 23  1  0
 22 53  1  1
 23 27  1  0
 23 24  1  0
 24 25  1  0
 25 26  1  0
 25 54  1  0
 25 55  1  0
 26 27  1  0
 26 56  1  0
 26 57  1  0
M  CHG  1  16   1
M  END
>  <i_m_ct_stereo_status>  (104) 
1

>  <s_m_source_file>  (104) 
/var/tmp/pbs.5076255.sched01/tmpj20d55gn/0_c3see42.sdf

>  <i_m_source_file_index>  (104) 
40

>  <i_lp_mmshare_version>  (104) 
48012

>  <i_f3d_flags>  (104) 
0

>  <s_epik_input>  (104) 
TzFbQ0gyXVtDSDJdT0MxMltDQEBIXTNONFtDQEBIXTVDKD1bQ0gyXSlbQ0BIXTZbQ0gyXVtDQEhdN1tDQEhdOFtDQEBIXShbQ0gyXTUpW0NAQEhdKFtDSDJdMylbQ0BASF0yW0NASF0oW05IXTgpW0NIMl1bQ0BAXShbQ0gyXTcpKFtPSF0pW0NAQEhdNFtDSDJdNg==

>  <s_epik_cmdline>  (104) 
J2VwaWtfcHl0aG9uJywgJy1waHQnLCAnMi4wJywgJy1waCcsICc3LjAnLCAnLXRuJywgJzgnLCAnLW1hJywgJzIwMCcsICctaW1hZScsICc8aW5maWxlLm1hZT4nLCAnLW9tYWUnLCAnPG91dGZpbGUubWFlPic=

>  <r_epik_Ionization_Penalty>  (104) 
2.05834

>  <r_epik_Ionization_Penalty_Charging>  (104) 
0.00587436

>  <r_epik_Ionization_Penalty_Neutral>  (104) 
2.05246

>  <r_epik_State_Penalty>  (104) 
2.30052

>  <r_epik_Charging_Adjusted_Penalty>  (104) 
2.30639

>  <i_epik_Tot_Q>  (104) 
1

>  <i_epik_Tot_abs_Q>  (104) 
1

>  <s_lp_Force_Field>  (104) 
OPLS3e

>  <r_lp_Energy>  (104) 
127.275

>  <b_lp_Chiralities_Consistent>  (104) 
1

>  <s_lp_Variant>  (104) 
27:0-3

>  <s_i_glide_gridfile>  (104) 
pfpi4k_grid

>  <i_i_glide_lignum>  (104) 
40

>  <i_i_glide_rotatable_bonds>  (104) 
1

>  <r_i_docking_score>  (104) 
-3.24306

>  <r_i_glide_ligand_efficiency>  (104) 
-0.120113

>  <r_i_glide_ligand_efficiency_sa>  (104) 
-0.36034

>  <r_i_glide_ligand_efficiency_ln>  (104) 
-0.75493

>  <r_i_glide_gscore>  (104) 
-3.24306

>  <r_i_glide_lipo>  (104) 
-0.0617798

>  <r_i_glide_hbond>  (104) 
-0.304

>  <r_i_glide_metal>  (104) 
-0

>  <r_i_glide_rewards>  (104) 
-0.876183

>  <r_i_glide_evdw>  (104) 
-23.1002

>  <r_i_glide_ecoul>  (104) 
-5.4408

>  <r_i_glide_erotb>  (104) 
0

>  <r_i_glide_esite>  (104) 
-0.0299631

>  <r_i_glide_emodel>  (104) 
-35.3204

>  <r_i_glide_energy>  (104) 
-28.541

>  <r_i_glide_einternal>  (104) 
0.106294

>  <r_i_glide_intrahb_reward>  (104) 
-0

>  <i_i_glide_confnum>  (104) 
2

>  <i_i_glide_posenum>  (104) 
9

>  <r_i_glide_eff_state_penalty>  (104) 
0

>  <ligand_id>  (104) 
27

>  <original_smiles>  (104) 
C=C1C2CC3CC4(O)CC5NC3C3CC1N(C4C2)C1CC3C5C12OCCO2

>  <smiles>  (104) 
[H]OC12C([H])([H])C3([H])N([H])C4([H])C([H])(C([H])([H])C5([H])C(=C([H])[H])C6([H])C([H])([H])C4([H])C4([H])C([H])([H])C([H])(C7(OC([H])([H])C([H])([H])O7)C34[H])[N+]6([H])C1([H])C5([H])[H])C2([H])[H]

$$$$
27:2:1
     RDKit          3D

 58 65  0  0  1  0  0  0  0  0999 V2000
    1.8152   -5.4296    4.2367 C   0  0  0  0  0  0  0  0  0  0  0  0
    2.4604   -4.4468    3.5791 C   0  0  0  0  0  0  0  0  0  0  0  0
    2.3410   -3.0061    3.9631 C   0  0  1  0  0  0  0  0  0  0  0  0
    3.7114   -2.4015    4.4033 C   0  0  0  0  0  0  0  0  0  0  0  0
    4.6214   -1.6623    3.3724 C   0  0  2  0  0  0  0  0  0  0  0  0
    3.8255   -0.5390    2.7578 C   0  0  0  0  0  0  0  0  0  0  0  0
    3.2125   -0.9640    1.4290 C   0  0  1  0  0  0  0  0  0  0  0  0
    2.2032    0.0213    1.2761 O   0  0  0  0  0  0  0  0  0  0  0  0
    4.2278   -0.5547    0.3313 C   0  0  0  0  0  0  0  0  0  0  0  0
    5.4610   -1.4329    0.1562 C   0  0  1  0  0  0  0  0  0  0  0  0
    6.2433   -1.4562    1.3784 N   0  0  0  0  0  0  0  0  0  0  0  0
    5.6835   -2.3309    2.4006 C   0  0  2  0  0  0  0  0  0  0  0  0
    5.7113   -3.8108    1.9215 C   0  0  1  0  0  0  0  0  0  0  0  0
    4.8029   -4.7511    2.7160 C   0  0  0  0  0  0  0  0  0  0  0  0
    3.3070   -4.6643    2.3474 C   0  0  2  0  0  0  0  0  0  0  0  0
    2.9646   -3.7536    1.1950 N   0  0  1  0  0  0  0  0  0  0  0  0
    2.4028   -2.3451    1.4717 C   0  0  1  0  0  0  0  0  0  0  0  0
    1.5881   -2.3458    2.8025 C   0  0  0  0  0  0  0  0  0  0  0  0
    3.4337   -4.2564   -0.1706 C   0  0  2  0  0  0  0  0  0  0  0  0
    4.7041   -5.1173   -0.0559 C   0  0  0  0  0  0  0  0  0  0  0  0
    5.7219   -4.0527    0.3759 C   0  0  1  0  0  0  0  0  0  0  0  0
    5.3559   -2.8239   -0.5137 C   0  0  1  0  0  0  0  0  0  0  0  0
    3.9807   -3.2220   -1.1476 C   0  0  0  0  0  0  0  0  0  0  0  0
    3.0478   -2.2408   -1.3463 O   0  0  0  0  0  0  0  0  0  0  0  0
    2.6518   -2.2501   -2.6916 C   0  0  0  0  0  0  0  0  0  0  0  0
    3.8288   -2.8973   -3.3801 C   0  0  0  0  0  0  0  0  0  0  0  0
    4.2285   -3.8138   -2.3908 O   0  0  0  0  0  0  0  0  0  0  0  0
    1.8958   -6.4650    3.9397 H   0  0  0  0  0  0  0  0  0  0  0  0
    1.2015   -5.2124    5.0988 H   0  0  0  0  0  0  0  0  0  0  0  0
    1.6826   -2.9620    4.8332 H   0  0  0  0  0  0  0  0  0  0  0  0
    3.4453   -1.6459    5.1443 H   0  0  0  0  0  0  0  0  0  0  0  0
    4.2765   -3.1084    5.0037 H   0  0  0  0  0  0  0  0  0  0  0  0
    5.2738   -1.1112    4.0506 H   0  0  0  0  0  0  0  0  0  0  0  0
    3.0678   -0.1850    3.4590 H   0  0  0  0  0  0  0  0  0  0  0  0
    4.4693    0.3329    2.6380 H   0  0  0  0  0  0  0  0  0  0  0  0
    1.6649   -0.2031    0.5303 H   0  0  0  0  0  0  0  0  0  0  0  0
    3.7928   -0.3153   -0.6301 H   0  0  0  0  0  0  0  0  0  0  0  0
    4.6132    0.4377    0.5737 H   0  0  0  0  0  0  0  0  0  0  0  0
    6.0813   -0.8520   -0.5255 H   0  0  0  0  0  0  0  0  0  0  0  0
    7.1601   -1.8112    1.1510 H   0  0  0  0  0  0  0  0  0  0  0  0
    6.5287   -2.3234    3.0545 H   0  0  0  0  0  0  0  0  0  0  0  0
    6.6997   -4.1696    2.2111 H   0  0  0  0  0  0  0  0  0  0  0  0
    5.1350   -5.7822    2.5852 H   0  0  0  0  0  0  0  0  0  0  0  0
    4.9723   -4.6187    3.7791 H   0  0  0  0  0  0  0  0  0  0  0  0
    3.0136   -5.6622    2.0183 H   0  0  0  0  0  0  0  0  0  0  0  0
    1.6630   -2.2571    0.6909 H   0  0  0  0  0  0  0  0  0  0  0  0
    0.6638   -2.8998    2.6658 H   0  0  0  0  0  0  0  0  0  0  0  0
    1.2259   -1.3549    3.0816 H   0  0  0  0  0  0  0  0  0  0  0  0
    2.6323   -4.8085   -0.6572 H   0  0  0  0  0  0  0  0  0  0  0  0
    4.6426   -6.0141    0.5563 H   0  0  0  0  0  0  0  0  0  0  0  0
    5.0030   -5.5282   -1.0206 H   0  0  0  0  0  0  0  0  0  0  0  0
    6.7238   -4.3937    0.1036 H   0  0  0  0  0  0  0  0  0  0  0  0
    6.0746   -2.8069   -1.3341 H   0  0  0  0  0  0  0  0  0  0  0  0
    1.7436   -2.8461   -2.7844 H   0  0  0  0  0  0  0  0  0  0  0  0
    2.4661   -1.2381   -3.0460 H   0  0  0  0  0  0  0  0  0  0  0  0
    3.5577   -3.3838   -4.3162 H   0  0  0  0  0  0  0  0  0  0  0  0
    4.6276   -2.1835   -3.5735 H   0  0  0  0  0  0  0  0  0  0  0  0
    2.0405   -4.1289    1.0804 H   0  0  0  0  0  0  0  0  0  0  0  0
  1  2  2  0
  1 28  1  0
  1 29  1  0
  2 15  1  0
  2  3  1  0
  3 18  1  0
  3  4  1  0
  3 30  1  1
  4  5  1  0
  4 31  1  0
  4 32  1  0
  5 12  1  0
  5  6  1  0
  5 33  1  1
  6  7  1  0
  6 34  1  0
  6 35  1  0
  7 17  1  0
  7  8  1  6
  7  9  1  0
  8 36  1  0
  9 10  1  0
  9 37  1  0
  9 38  1  0
 10 22  1  0
 10 11  1  0
 10 39  1  6
 11 12  1  0
 11 40  1  0
 12 13  1  0
 12 41  1  1
 13 21  1  0
 13 14  1  0
 13 42  1  1
 14 15  1  0
 14 43  1  0
 14 44  1  0
 15 16  1  0
 15 45  1  6
 16 17  1  0
 16 19  1  0
 16 58  1  6
 17 18  1  0
 17 46  1  6
 18 47  1  0
 18 48  1  0
 19 23  1  0
 19 20  1  0
 19 49  1  6
 20 21  1  0
 20 50  1  0
 20 51  1  0
 21 22  1  0
 21 52  1  6
 22 23  1  0
 22 53  1  6
 23 27  1  0
 23 24  1  0
 24 25  1  0
 25 26  1  0
 25 54  1  0
 25 55  1  0
 26 27  1  0
 26 56  1  0
 26 57  1  0
M  CHG  1  16   1
M  END
>  <i_m_ct_stereo_status>  (105) 
1

>  <s_m_source_file>  (105) 
/var/tmp/pbs.5076255.sched01/tmpj20d55gn/0_c3see42.sdf

>  <i_m_source_file_index>  (105) 
40

>  <i_lp_mmshare_version>  (105) 
48012

>  <i_f3d_flags>  (105) 
0

>  <s_epik_input>  (105) 
TzFbQ0gyXVtDSDJdT0MxMltDQEBIXTNONFtDQEBIXTVDKD1bQ0gyXSlbQ0BIXTZbQ0gyXVtDQEhdN1tDQEhdOFtDQEBIXShbQ0gyXTUpW0NAQEhdKFtDSDJdMylbQ0BASF0yW0NASF0oW05IXTgpW0NIMl1bQ0BAXShbQ0gyXTcpKFtPSF0pW0NAQEhdNFtDSDJdNg==

>  <s_epik_cmdline>  (105) 
J2VwaWtfcHl0aG9uJywgJy1waHQnLCAnMi4wJywgJy1waCcsICc3LjAnLCAnLXRuJywgJzgnLCAnLW1hJywgJzIwMCcsICctaW1hZScsICc8aW5maWxlLm1hZT4nLCAnLW9tYWUnLCAnPG91dGZpbGUubWFlPic=

>  <r_epik_Ionization_Penalty>  (105) 
2.05834

>  <r_epik_Ionization_Penalty_Charging>  (105) 
0.00587436

>  <r_epik_Ionization_Penalty_Neutral>  (105) 
2.05246

>  <r_epik_State_Penalty>  (105) 
2.30052

>  <r_epik_Charging_Adjusted_Penalty>  (105) 
2.30639

>  <i_epik_Tot_Q>  (105) 
1

>  <i_epik_Tot_abs_Q>  (105) 
1

>  <s_lp_Force_Field>  (105) 
OPLS3e

>  <r_lp_Energy>  (105) 
127.275

>  <b_lp_Chiralities_Consistent>  (105) 
1

>  <s_lp_Variant>  (105) 
27:0-3

>  <s_i_glide_gridfile>  (105) 
pfpi4k_grid

>  <i_i_glide_lignum>  (105) 
40

>  <i_i_glide_rotatable_bonds>  (105) 
1

>  <r_i_docking_score>  (105) 
-3.14566

>  <r_i_glide_ligand_efficiency>  (105) 
-0.116506

>  <r_i_glide_ligand_efficiency_sa>  (105) 
-0.349518

>  <r_i_glide_ligand_efficiency_ln>  (105) 
-0.732258

>  <r_i_glide_gscore>  (105) 
-3.14566

>  <r_i_glide_lipo>  (105) 
-0.510809

>  <r_i_glide_hbond>  (105) 
-0.16

>  <r_i_glide_metal>  (105) 
-0

>  <r_i_glide_rewards>  (105) 
-0.876183

>  <r_i_glide_evdw>  (105) 
-20.1432

>  <r_i_glide_ecoul>  (105) 
-3.88051

>  <r_i_glide_erotb>  (105) 
0

>  <r_i_glide_esite>  (105) 
-0.00942795

>  <r_i_glide_emodel>  (105) 
-30.0479

>  <r_i_glide_energy>  (105) 
-24.0238

>  <r_i_glide_einternal>  (105) 
0.226552

>  <r_i_glide_intrahb_reward>  (105) 
-0

>  <i_i_glide_confnum>  (105) 
4

>  <i_i_glide_posenum>  (105) 
40

>  <r_i_glide_eff_state_penalty>  (105) 
0

>  <ligand_id>  (105) 
27

>  <original_smiles>  (105) 
C=C1C2CC3CC4(O)CC5NC3C3CC1N(C4C2)C1CC3C5C12OCCO2

>  <smiles>  (105) 
[H]OC12C([H])([H])C3([H])N([H])C4([H])C([H])(C([H])([H])C5([H])C(=C([H])[H])C6([H])C([H])([H])C4([H])C4([H])C([H])([H])C([H])(C7(OC([H])([H])C([H])([H])O7)C34[H])[N+]6([H])C1([H])C5([H])[H])C2([H])[H]

$$$$
27:2:2
     RDKit          3D

 58 65  0  0  1  0  0  0  0  0999 V2000
    5.7556   -7.5341    2.3403 C   0  0  0  0  0  0  0  0  0  0  0  0
    4.5623   -7.9245    2.8208 C   0  0  0  0  0  0  0  0  0  0  0  0
    3.3915   -8.2297    1.9432 C   0  0  1  0  0  0  0  0  0  0  0  0
    2.9473   -9.7232    2.0796 C   0  0  0  0  0  0  0  0  0  0  0  0
    1.8278  -10.1349    3.0852 C   0  0  2  0  0  0  0  0  0  0  0  0
    0.5891   -9.3231    2.7603 C   0  0  0  0  0  0  0  0  0  0  0  0
    0.4799   -8.0731    3.6297 C   0  0  1  0  0  0  0  0  0  0  0  0
   -0.4686   -7.2774    2.9231 O   0  0  0  0  0  0  0  0  0  0  0  0
   -0.3769   -8.4785    4.8486 C   0  0  0  0  0  0  0  0  0  0  0  0
    0.3170   -9.3380    5.9109 C   0  0  1  0  0  0  0  0  0  0  0  0
    0.7969  -10.6180    5.3819 N   0  0  0  0  0  0  0  0  0  0  0  0
    2.0327  -10.5538    4.6063 C   0  0  2  0  0  0  0  0  0  0  0  0
    3.1719  -10.0387    5.5355 C   0  0  1  0  0  0  0  0  0  0  0  0
    4.3852   -9.4744    4.7955 C   0  0  0  0  0  0  0  0  0  0  0  0
    4.2335   -8.0241    4.2863 C   0  0  2  0  0  0  0  0  0  0  0  0
    2.9622   -7.3042    4.6792 N   0  0  1  0  0  0  0  0  0  0  0  0
    1.8011   -7.1616    3.6800 C   0  0  1  0  0  0  0  0  0  0  0  0
    2.3703   -7.1110    2.2333 C   0  0  0  0  0  0  0  0  0  0  0  0
    2.8761   -6.9749    6.1568 C   0  0  2  0  0  0  0  0  0  0  0  0
    3.6360   -7.9848    7.0334 C   0  0  0  0  0  0  0  0  0  0  0  0
    2.7752   -9.2404    6.8292 C   0  0  1  0  0  0  0  0  0  0  0  0
    1.3184   -8.6814    6.8921 C   0  0  1  0  0  0  0  0  0  0  0  0
    1.5067   -7.1192    6.8237 C   0  0  0  0  0  0  0  0  0  0  0  0
    0.5647   -6.3756    6.1510 O   0  0  0  0  0  0  0  0  0  0  0  0
    0.3214   -5.1840    6.8649 C   0  0  0  0  0  0  0  0  0  0  0  0
    1.3092   -5.2243    8.0204 C   0  0  0  0  0  0  0  0  0  0  0  0
    1.5517   -6.6071    8.1243 O   0  0  0  0  0  0  0  0  0  0  0  0
    6.5822   -7.2898    2.9928 H   0  0  0  0  0  0  0  0  0  0  0  0
    5.9235   -7.4549    1.2757 H   0  0  0  0  0  0  0  0  0  0  0  0
    3.7335   -8.0970    0.9153 H   0  0  0  0  0  0  0  0  0  0  0  0
    2.5592   -9.9730    1.0896 H   0  0  0  0  0  0  0  0  0  0  0  0
    3.8062  -10.3864    2.1460 H   0  0  0  0  0  0  0  0  0  0  0  0
    1.5490  -11.1023    2.6703 H   0  0  0  0  0  0  0  0  0  0  0  0
    0.5842   -9.0632    1.6998 H   0  0  0  0  0  0  0  0  0  0  0  0
   -0.2885   -9.9667    2.8568 H   0  0  0  0  0  0  0  0  0  0  0  0
   -1.1993   -7.8418    2.7179 H   0  0  0  0  0  0  0  0  0  0  0  0
   -0.9532   -7.6611    5.2732 H   0  0  0  0  0  0  0  0  0  0  0  0
   -1.2233   -9.0663    4.4898 H   0  0  0  0  0  0  0  0  0  0  0  0
   -0.5133   -9.6418    6.5498 H   0  0  0  0  0  0  0  0  0  0  0  0
    0.9758  -11.2334    6.1802 H   0  0  0  0  0  0  0  0  0  0  0  0
    2.2833  -11.6118    4.5062 H   0  0  0  0  0  0  0  0  0  0  0  0
    3.5671  -10.9679    5.9534 H   0  0  0  0  0  0  0  0  0  0  0  0
    5.2619   -9.5234    5.4451 H   0  0  0  0  0  0  0  0  0  0  0  0
    4.6821  -10.1527    4.0032 H   0  0  0  0  0  0  0  0  0  0  0  0
    5.0319   -7.4493    4.7565 H   0  0  0  0  0  0  0  0  0  0  0  0
    1.4386   -6.1542    3.8789 H   0  0  0  0  0  0  0  0  0  0  0  0
    2.8697   -6.1521    2.0934 H   0  0  0  0  0  0  0  0  0  0  0  0
    1.5856   -7.1078    1.4740 H   0  0  0  0  0  0  0  0  0  0  0  0
    3.2726   -5.9739    6.3077 H   0  0  0  0  0  0  0  0  0  0  0  0
    4.7047   -8.0848    6.8555 H   0  0  0  0  0  0  0  0  0  0  0  0
    3.6150   -7.7074    8.0866 H   0  0  0  0  0  0  0  0  0  0  0  0
    2.9287   -9.9147    7.6763 H   0  0  0  0  0  0  0  0  0  0  0  0
    0.9436   -8.8987    7.8926 H   0  0  0  0  0  0  0  0  0  0  0  0
    0.4747   -4.3209    6.2175 H   0  0  0  0  0  0  0  0  0  0  0  0
   -0.7074   -5.1853    7.2256 H   0  0  0  0  0  0  0  0  0  0  0  0
    2.2316   -4.7027    7.7761 H   0  0  0  0  0  0  0  0  0  0  0  0
    0.9312   -4.8037    8.9504 H   0  0  0  0  0  0  0  0  0  0  0  0
    3.3198   -6.3950    4.4334 H   0  0  0  0  0  0  0  0  0  0  0  0
  1  2  2  0
  1 28  1  0
  1 29  1  0
  2 15  1  0
  2  3  1  0
  3 18  1  0
  3  4  1  0
  3 30  1  6
  4  5  1  0
  4 31  1  0
  4 32  1  0
  5 12  1  0
  5  6  1  0
  5 33  1  6
  6  7  1  0
  6 34  1  0
  6 35  1  0
  7 17  1  0
  7  8  1  6
  7  9  1  0
  8 36  1  0
  9 10  1  0
  9 37  1  0
  9 38  1  0
 10 22  1  0
 10 11  1  0
 10 39  1  1
 11 12  1  0
 11 40  1  0
 12 13  1  0
 12 41  1  6
 13 21  1  0
 13 14  1  0
 13 42  1  1
 14 15  1  0
 14 43  1  0
 14 44  1  0
 15 16  1  0
 15 45  1  1
 16 17  1  0
 16 19  1  0
 16 58  1  6
 17 18  1  0
 17 46  1  1
 18 47  1  0
 18 48  1  0
 19 23  1  0
 19 20  1  0
 19 49  1  6
 20 21  1  0
 20 50  1  0
 20 51  1  0
 21 22  1  0
 21 52  1  1
 22 23  1  0
 22 53  1  1
 23 27  1  0
 23 24  1  0
 24 25  1  0
 25 26  1  0
 25 54  1  0
 25 55  1  0
 26 27  1  0
 26 56  1  0
 26 57  1  0
M  CHG  1  16   1
M  END
>  <i_m_ct_stereo_status>  (106) 
1

>  <s_m_source_file>  (106) 
/var/tmp/pbs.5076255.sched01/tmpj20d55gn/0_c3see42.sdf

>  <i_m_source_file_index>  (106) 
40

>  <i_lp_mmshare_version>  (106) 
48012

>  <i_f3d_flags>  (106) 
0

>  <s_epik_input>  (106) 
TzFbQ0gyXVtDSDJdT0MxMltDQEBIXTNONFtDQEBIXTVDKD1bQ0gyXSlbQ0BIXTZbQ0gyXVtDQEhdN1tDQEhdOFtDQEBIXShbQ0gyXTUpW0NAQEhdKFtDSDJdMylbQ0BASF0yW0NASF0oW05IXTgpW0NIMl1bQ0BAXShbQ0gyXTcpKFtPSF0pW0NAQEhdNFtDSDJdNg==

>  <s_epik_cmdline>  (106) 
J2VwaWtfcHl0aG9uJywgJy1waHQnLCAnMi4wJywgJy1waCcsICc3LjAnLCAnLXRuJywgJzgnLCAnLW1hJywgJzIwMCcsICctaW1hZScsICc8aW5maWxlLm1hZT4nLCAnLW9tYWUnLCAnPG91dGZpbGUubWFlPic=

>  <r_epik_Ionization_Penalty>  (106) 
2.05834

>  <r_epik_Ionization_Penalty_Charging>  (106) 
0.00587436

>  <r_epik_Ionization_Penalty_Neutral>  (106) 
2.05246

>  <r_epik_State_Penalty>  (106) 
2.30052

>  <r_epik_Charging_Adjusted_Penalty>  (106) 
2.30639

>  <i_epik_Tot_Q>  (106) 
1

>  <i_epik_Tot_abs_Q>  (106) 
1

>  <s_lp_Force_Field>  (106) 
OPLS3e

>  <r_lp_Energy>  (106) 
127.275

>  <b_lp_Chiralities_Consistent>  (106) 
1

>  <s_lp_Variant>  (106) 
27:0-3

>  <s_i_glide_gridfile>  (106) 
pfpi4k_grid

>  <i_i_glide_lignum>  (106) 
40

>  <i_i_glide_rotatable_bonds>  (106) 
1

>  <r_i_docking_score>  (106) 
-3.00738

>  <r_i_glide_ligand_efficiency>  (106) 
-0.111384

>  <r_i_glide_ligand_efficiency_sa>  (106) 
-0.334153

>  <r_i_glide_ligand_efficiency_ln>  (106) 
-0.700068

>  <r_i_glide_gscore>  (106) 
-3.00738

>  <r_i_glide_lipo>  (106) 
-0.0870693

>  <r_i_glide_hbond>  (106) 
-0.183448

>  <r_i_glide_metal>  (106) 
-0

>  <r_i_glide_rewards>  (106) 
-0.876183

>  <r_i_glide_evdw>  (106) 
-22.184

>  <r_i_glide_ecoul>  (106) 
-4.9895

>  <r_i_glide_erotb>  (106) 
0

>  <r_i_glide_esite>  (106) 
-0.00304922

>  <r_i_glide_emodel>  (106) 
-33.4948

>  <r_i_glide_energy>  (106) 
-27.1735

>  <r_i_glide_einternal>  (106) 
0.0647988

>  <r_i_glide_intrahb_reward>  (106) 
-0

>  <i_i_glide_confnum>  (106) 
3

>  <i_i_glide_posenum>  (106) 
23

>  <r_i_glide_eff_state_penalty>  (106) 
0

>  <ligand_id>  (106) 
27

>  <original_smiles>  (106) 
C=C1C2CC3CC4(O)CC5NC3C3CC1N(C4C2)C1CC3C5C12OCCO2

>  <smiles>  (106) 
[H]OC12C([H])([H])C3([H])N([H])C4([H])C([H])(C([H])([H])C5([H])C(=C([H])[H])C6([H])C([H])([H])C4([H])C4([H])C([H])([H])C([H])(C7(OC([H])([H])C([H])([H])O7)C34[H])[N+]6([H])C1([H])C5([H])[H])C2([H])[H]

$$$$
29:0:0
     RDKit          3D

 64 67  0  0  1  0  0  0  0  0999 V2000
    5.5835    0.4893    4.6200 C   0  0  0  0  0  0  0  0  0  0  0  0
    5.0569    0.9088    5.9848 C   0  0  0  0  0  0  0  0  0  0  0  0
    5.8406    1.1082    6.8991 O   0  0  0  0  0  0  0  0  0  0  0  0
    3.7309    1.0288    6.1193 O   0  0  0  0  0  0  0  0  0  0  0  0
    2.7752    0.8755    5.0831 C   0  0  2  0  0  0  0  0  0  0  0  0
    2.6742    2.0189    3.9549 C   0  0  2  0  0  0  0  0  0  0  0  0
    2.0051    3.4896    4.1459 C   0  0  0  0  0  0  0  0  0  0  0  0
    0.5632    3.7938    4.7975 C   0  0  1  0  0  0  0  0  0  0  0  0
   -0.2486    4.4369    3.8336 O   0  0  0  0  0  0  0  0  0  0  0  0
   -0.1041    2.5286    5.4066 C   0  0  2  0  0  0  0  0  0  0  0  0
   -1.5661    2.1428    5.7317 C   0  0  1  0  0  0  0  0  0  0  0  0
   -2.4426    2.7396    4.7942 O   0  0  0  0  0  0  0  0  0  0  0  0
   -1.8423    0.5519    5.5964 C   0  0  0  0  0  0  0  0  0  0  0  0
   -0.8269   -0.6136    5.9117 C   0  0  0  0  0  0  0  0  0  0  0  0
    0.5614   -0.6246    5.9178 C   0  0  0  0  0  0  0  0  0  0  0  0
    1.3483   -1.8618    6.3198 C   0  0  0  0  0  0  0  0  0  0  0  0
    2.1491   -1.6260    7.4572 O   0  0  0  0  0  0  0  0  0  0  0  0
    1.2824    0.6112    5.4156 C   0  0  2  0  0  0  0  0  0  0  0  0
    1.0701    0.3340    3.7945 C   0  0  1  0  0  0  0  0  0  0  0  0
   -0.2005    0.1718    3.2054 O   0  0  0  0  0  0  0  0  0  0  0  0
    1.9665    1.2001    2.8691 C   0  0  0  0  0  0  0  0  0  0  0  0
    1.2015    2.0090    1.7843 C   0  0  0  0  0  0  0  0  0  0  0  0
    2.9769    0.3446    2.0598 C   0  0  0  0  0  0  0  0  0  0  0  0
    0.8323    1.8172    6.4051 C   0  0  1  0  0  0  0  0  0  0  0  0
    1.8967    2.8130    7.0434 C   0  0  0  0  0  0  0  0  0  0  0  0
    0.1250    1.4401    7.8404 C   0  0  1  0  0  0  0  0  0  0  0  0
    1.0008    1.0775    9.0717 C   0  0  0  0  0  0  0  0  0  0  0  0
   -0.9317    2.4612    8.2584 C   0  0  0  0  0  0  0  0  0  0  0  0
   -1.9366    2.6951    7.1313 C   0  0  0  0  0  0  0  0  0  0  0  0
   -2.9896    3.2666    7.3506 O   0  0  0  0  0  0  0  0  0  0  0  0
    5.2698    1.1985    3.8425 H   0  0  0  0  0  0  0  0  0  0  0  0
    5.2315   -0.5047    4.3418 H   0  0  0  0  0  0  0  0  0  0  0  0
    6.6827    0.4126    4.6043 H   0  0  0  0  0  0  0  0  0  0  0  0
    3.1104   -0.0541    4.6578 H   0  0  0  0  0  0  0  0  0  0  0  0
    3.6980    2.2236    3.6038 H   0  0  0  0  0  0  0  0  0  0  0  0
    2.7411    4.1098    4.6480 H   0  0  0  0  0  0  0  0  0  0  0  0
    2.0257    3.9877    3.1764 H   0  0  0  0  0  0  0  0  0  0  0  0
    0.6742    4.5399    5.5856 H   0  0  0  0  0  0  0  0  0  0  0  0
   -0.0010    4.1373    2.9550 H   0  0  0  0  0  0  0  0  0  0  0  0
   -0.1744    2.1146    4.4288 H   0  0  0  0  0  0  0  0  0  0  0  0
   -2.2145    2.3993    3.9296 H   0  0  0  0  0  0  0  0  0  0  0  0
   -2.6674    0.3452    6.2783 H   0  0  0  0  0  0  0  0  0  0  0  0
   -2.2771    0.3331    4.6141 H   0  0  0  0  0  0  0  0  0  0  0  0
   -1.3188   -1.5265    6.1858 H   0  0  0  0  0  0  0  0  0  0  0  0
    0.6712   -2.6716    6.5920 H   0  0  0  0  0  0  0  0  0  0  0  0
    1.9665   -2.2126    5.4882 H   0  0  0  0  0  0  0  0  0  0  0  0
    2.7783   -0.9376    7.2569 H   0  0  0  0  0  0  0  0  0  0  0  0
    1.4266   -0.6869    3.6381 H   0  0  0  0  0  0  0  0  0  0  0  0
   -0.0810    0.2472    2.2620 H   0  0  0  0  0  0  0  0  0  0  0  0
    0.8217    1.3554    1.0032 H   0  0  0  0  0  0  0  0  0  0  0  0
    1.8329    2.7369    1.2787 H   0  0  0  0  0  0  0  0  0  0  0  0
    0.3428    2.5282    2.1919 H   0  0  0  0  0  0  0  0  0  0  0  0
    2.4569   -0.2928    1.3508 H   0  0  0  0  0  0  0  0  0  0  0  0
    3.5992   -0.3050    2.6708 H   0  0  0  0  0  0  0  0  0  0  0  0
    3.6500    0.9731    1.4763 H   0  0  0  0  0  0  0  0  0  0  0  0
    2.5347    2.3601    7.7943 H   0  0  0  0  0  0  0  0  0  0  0  0
    1.4153    3.6641    7.5263 H   0  0  0  0  0  0  0  0  0  0  0  0
    2.6656    3.2277    6.4214 H   0  0  0  0  0  0  0  0  0  0  0  0
   -0.4758    0.5504    7.8511 H   0  0  0  0  0  0  0  0  0  0  0  0
    1.3721    1.9620    9.5968 H   0  0  0  0  0  0  0  0  0  0  0  0
    1.8603    0.4611    8.8044 H   0  0  0  0  0  0  0  0  0  0  0  0
    0.4137    0.5137    9.8001 H   0  0  0  0  0  0  0  0  0  0  0  0
   -1.4822    2.0855    9.1204 H   0  0  0  0  0  0  0  0  0  0  0  0
   -0.4896    3.4093    8.5632 H   0  0  0  0  0  0  0  0  0  0  0  0
  1  2  1  0
  1 31  1  0
  1 32  1  0
  1 33  1  0
  2  3  2  0
  2  4  1  0
  4  5  1  0
  5 18  1  0
  5  6  1  0
  5 34  1  6
  6 21  1  0
  6  7  1  0
  6 35  1  6
  7  8  1  0
  7 36  1  0
  7 37  1  0
  8  9  1  0
  8 10  1  0
  8 38  1  1
  9 39  1  0
 10 24  1  0
 10 11  1  0
 10 40  1  6
 11 29  1  0
 11 12  1  6
 11 13  1  0
 12 41  1  0
 13 14  1  0
 13 42  1  0
 13 43  1  0
 14 15  2  0
 14 44  1  0
 15 16  1  0
 18 15  1  1
 16 17  1  0
 16 45  1  0
 16 46  1  0
 17 47  1  0
 18 19  1  0
 18 24  1  0
 19 20  1  0
 19 21  1  0
 19 48  1  1
 20 49  1  0
 21 22  1  0
 21 23  1  0
 22 50  1  0
 22 51  1  0
 22 52  1  0
 23 53  1  0
 23 54  1  0
 23 55  1  0
 24 25  1  1
 24 26  1  0
 25 56  1  0
 25 57  1  0
 25 58  1  0
 26 27  1  0
 26 28  1  0
 26 59  1  6
 27 60  1  0
 27 61  1  0
 27 62  1  0
 28 29  1  0
 28 63  1  0
 28 64  1  0
 29 30  2  0
M  END
>  <i_m_ct_stereo_status>  (107) 
1

>  <s_m_source_file>  (107) 
/var/tmp/pbs.5076255.sched01/tmpar858yha/42b8svm9_t.sdf

>  <i_m_source_file_index>  (107) 
1

>  <i_lp_mmshare_version>  (107) 
48012

>  <i_f3d_flags>  (107) 
0

>  <s_epik_input>  (107) 
W0NIM11DKD1PKU9bQ0BASF0xW0NAQEhdKEMoW0NIM10pKFtDSDNdKVtDQEBIXTJbT0hdKVtDSDJdW0NAQEhdKFtPSF0pW0NAQEhdKFtDQEBdMyhbQ0BdMTI0KVtDSDNdKVtDQF0oW09IXSkoQyg9TylbQ0gyXVtDQEBIXTNbQ0gzXSlbQ0gyXVtDSF09QzRbQ0gyXVtPSF0=

>  <s_epik_cmdline>  (107) 
J2VwaWtfcHl0aG9uJywgJy1waHQnLCAnMi4wJywgJy1waCcsICc3LjAnLCAnLXRuJywgJzgnLCAnLW1hJywgJzIwMCcsICctaW1hZScsICc8aW5maWxlLm1hZT4nLCAnLW9tYWUnLCAnPG91dGZpbGUubWFlPic=

>  <r_lp_tautomer_probability>  (107) 
1

>  <r_epik_Ionization_Penalty>  (107) 
8.32354e-07

>  <r_epik_Ionization_Penalty_Charging>  (107) 
0

>  <r_epik_Ionization_Penalty_Neutral>  (107) 
8.32354e-07

>  <r_epik_State_Penalty>  (107) 
-0

>  <r_epik_Charging_Adjusted_Penalty>  (107) 
0

>  <i_epik_Tot_Q>  (107) 
0

>  <i_epik_Tot_abs_Q>  (107) 
0

>  <s_epik_Chemistry_Notes>  (107) 
This compound has an ester and may undergo hydrolysis at high or low pH.

>  <s_lp_Force_Field>  (107) 
OPLS3e

>  <r_lp_Energy>  (107) 
194.119

>  <b_lp_Chiralities_Consistent>  (107) 
1

>  <s_lp_Variant>  (107) 
29:0-1

>  <s_i_glide_gridfile>  (107) 
pfpi4k_grid

>  <i_i_glide_lignum>  (107) 
1

>  <i_i_glide_rotatable_bonds>  (107) 
7

>  <r_i_docking_score>  (107) 
-2.3109

>  <r_i_glide_ligand_efficiency>  (107) 
-0.0770302

>  <r_i_glide_ligand_efficiency_sa>  (107) 
-0.239351

>  <r_i_glide_ligand_efficiency_ln>  (107) 
-0.525063

>  <r_i_glide_gscore>  (107) 
-2.3109

>  <r_i_glide_lipo>  (107) 
-0.177061

>  <r_i_glide_hbond>  (107) 
0

>  <r_i_glide_metal>  (107) 
-0

>  <r_i_glide_rewards>  (107) 
-0.619581

>  <r_i_glide_evdw>  (107) 
-20.8147

>  <r_i_glide_ecoul>  (107) 
-4.63654

>  <r_i_glide_erotb>  (107) 
0.221953

>  <r_i_glide_esite>  (107) 
0

>  <r_i_glide_emodel>  (107) 
-25.64

>  <r_i_glide_energy>  (107) 
-25.4512

>  <r_i_glide_einternal>  (107) 
6.87502

>  <r_i_glide_intrahb_reward>  (107) 
-0

>  <i_i_glide_confnum>  (107) 
2

>  <i_i_glide_posenum>  (107) 
31

>  <r_i_glide_eff_state_penalty>  (107) 
0

>  <ligand_id>  (107) 
29

>  <original_smiles>  (107) 
CC(=O)OC1C2CC(O)C3C4(O)CC=C(CO)C1(C(O)C2(C)C)C3(C)C(C)CC4=O

>  <smiles>  (107) 
[H]OC([H])([H])C1=C([H])C([H])([H])C2(O[H])C(=O)C([H])([H])C([H])(C([H])([H])[H])C3(C([H])([H])[H])C2([H])C([H])(O[H])C([H])([H])C2([H])C([H])(OC(=O)C([H])([H])[H])C13C([H])(O[H])C2(C([H])([H])[H])C([H])([H])[H]

$$$$
29:0:1
     RDKit          3D

 64 67  0  0  1  0  0  0  0  0999 V2000
   -2.2974    2.9177    9.2691 C   0  0  0  0  0  0  0  0  0  0  0  0
   -1.8355    3.3593    7.8831 C   0  0  0  0  0  0  0  0  0  0  0  0
   -1.6984    4.5268    7.6215 O   0  0  0  0  0  0  0  0  0  0  0  0
   -1.6166    2.3411    7.0567 O   0  0  0  0  0  0  0  0  0  0  0  0
   -1.0697    2.5230    5.7460 C   0  0  2  0  0  0  0  0  0  0  0  0
   -1.3714    1.3815    4.6407 C   0  0  2  0  0  0  0  0  0  0  0  0
   -0.6935   -0.0947    4.5886 C   0  0  0  0  0  0  0  0  0  0  0  0
    0.8798   -0.4124    4.7087 C   0  0  1  0  0  0  0  0  0  0  0  0
    1.3081   -1.0722    3.5284 O   0  0  0  0  0  0  0  0  0  0  0  0
    1.7416    0.8373    5.0704 C   0  0  2  0  0  0  0  0  0  0  0  0
    3.2457    1.1932    4.8902 C   0  0  1  0  0  0  0  0  0  0  0  0
    3.7569    0.6064    3.7010 O   0  0  0  0  0  0  0  0  0  0  0  0
    3.5032    2.7833    4.6761 C   0  0  0  0  0  0  0  0  0  0  0  0
    2.6412    3.9549    5.2897 C   0  0  0  0  0  0  0  0  0  0  0  0
    1.3474    3.9934    5.7467 C   0  0  0  0  0  0  0  0  0  0  0  0
    0.8077    5.2213    6.4639 C   0  0  0  0  0  0  0  0  0  0  0  0
   -0.1432    5.8830    5.6466 O   0  0  0  0  0  0  0  0  0  0  0  0
    0.4434    2.7726    5.5252 C   0  0  2  0  0  0  0  0  0  0  0  0
    0.1175    3.0254    3.9137 C   0  0  1  0  0  0  0  0  0  0  0  0
    1.1296    3.1813    2.9197 O   0  0  0  0  0  0  0  0  0  0  0  0
   -1.0533    2.1663    3.3617 C   0  0  0  0  0  0  0  0  0  0  0  0
   -0.7086    1.3248    2.0978 C   0  0  0  0  0  0  0  0  0  0  0  0
   -2.2618    3.0455    2.9236 C   0  0  0  0  0  0  0  0  0  0  0  0
    1.1859    1.5546    6.3174 C   0  0  1  0  0  0  0  0  0  0  0  0
    0.3992    0.5361    7.2669 C   0  0  0  0  0  0  0  0  0  0  0  0
    2.3327    1.9144    7.4331 C   0  0  1  0  0  0  0  0  0  0  0  0
    1.9071    2.3062    8.8734 C   0  0  0  0  0  0  0  0  0  0  0  0
    3.4743    0.8827    7.4807 C   0  0  0  0  0  0  0  0  0  0  0  0
    4.0418    0.6333    6.0861 C   0  0  0  0  0  0  0  0  0  0  0  0
    5.1019    0.0168    5.9491 O   0  0  0  0  0  0  0  0  0  0  0  0
   -1.6197    2.1771    9.7228 H   0  0  0  0  0  0  0  0  0  0  0  0
   -3.3065    2.4944    9.2045 H   0  0  0  0  0  0  0  0  0  0  0  0
   -2.3313    3.7800    9.9393 H   0  0  0  0  0  0  0  0  0  0  0  0
   -1.5911    3.4200    5.4356 H   0  0  0  0  0  0  0  0  0  0  0  0
   -2.4479    1.2032    4.6412 H   0  0  0  0  0  0  0  0  0  0  0  0
   -1.2299   -0.7311    5.2845 H   0  0  0  0  0  0  0  0  0  0  0  0
   -1.0458   -0.5808    3.6835 H   0  0  0  0  0  0  0  0  0  0  0  0
    1.0203   -1.1841    5.4661 H   0  0  0  0  0  0  0  0  0  0  0  0
    1.3053   -0.4548    2.8100 H   0  0  0  0  0  0  0  0  0  0  0  0
    1.5056    1.2630    4.1263 H   0  0  0  0  0  0  0  0  0  0  0  0
    3.3248    1.0221    2.9696 H   0  0  0  0  0  0  0  0  0  0  0  0
    4.5102    2.9836    5.0566 H   0  0  0  0  0  0  0  0  0  0  0  0
    3.5759    3.0149    3.6087 H   0  0  0  0  0  0  0  0  0  0  0  0
    3.2321    4.8512    5.4406 H   0  0  0  0  0  0  0  0  0  0  0  0
    0.3870    4.9305    7.4009 H   0  0  0  0  0  0  0  0  0  0  0  0
    1.6252    5.9441    6.5991 H   0  0  0  0  0  0  0  0  0  0  0  0
    0.2476    6.1813    4.8313 H   0  0  0  0  0  0  0  0  0  0  0  0
   -0.2758    4.0450    3.8755 H   0  0  0  0  0  0  0  0  0  0  0  0
    0.7427    3.6232    2.1616 H   0  0  0  0  0  0  0  0  0  0  0  0
   -0.5671    1.9697    1.2355 H   0  0  0  0  0  0  0  0  0  0  0  0
   -1.5095    0.6351    1.8334 H   0  0  0  0  0  0  0  0  0  0  0  0
    0.2182    0.7661    2.1800 H   0  0  0  0  0  0  0  0  0  0  0  0
   -1.9903    3.6968    2.0911 H   0  0  0  0  0  0  0  0  0  0  0  0
   -2.6565    3.6869    3.7112 H   0  0  0  0  0  0  0  0  0  0  0  0
   -3.0932    2.4317    2.5782 H   0  0  0  0  0  0  0  0  0  0  0  0
    0.0560    0.9658    8.2003 H   0  0  0  0  0  0  0  0  0  0  0  0
    1.0086   -0.3215    7.5506 H   0  0  0  0  0  0  0  0  0  0  0  0
   -0.5342    0.1238    6.9374 H   0  0  0  0  0  0  0  0  0  0  0  0
    2.9120    2.7990    7.2457 H   0  0  0  0  0  0  0  0  0  0  0  0
    1.6839    1.4407    9.4990 H   0  0  0  0  0  0  0  0  0  0  0  0
    1.0439    2.9725    8.8728 H   0  0  0  0  0  0  0  0  0  0  0  0
    2.7129    2.8332    9.3830 H   0  0  0  0  0  0  0  0  0  0  0  0
    4.2848    1.2584    8.1067 H   0  0  0  0  0  0  0  0  0  0  0  0
    3.1556   -0.0672    7.9121 H   0  0  0  0  0  0  0  0  0  0  0  0
  1  2  1  0
  1 31  1  0
  1 32  1  0
  1 33  1  0
  2  3  2  0
  2  4  1  0
  4  5  1  0
  5 18  1  0
  5  6  1  0
  5 34  1  6
  6 21  1  0
  6  7  1  0
  6 35  1  6
  7  8  1  0
  7 36  1  0
  7 37  1  0
  8  9  1  0
  8 10  1  0
  8 38  1  1
  9 39  1  0
 10 24  1  0
 10 11  1  0
 10 40  1  6
 11 29  1  0
 11 12  1  6
 11 13  1  0
 12 41  1  0
 13 14  1  0
 13 42  1  0
 13 43  1  0
 14 15  2  0
 14 44  1  0
 15 16  1  0
 18 15  1  1
 16 17  1  0
 16 45  1  0
 16 46  1  0
 17 47  1  0
 18 19  1  0
 18 24  1  0
 19 20  1  0
 19 21  1  0
 19 48  1  1
 20 49  1  0
 21 22  1  0
 21 23  1  0
 22 50  1  0
 22 51  1  0
 22 52  1  0
 23 53  1  0
 23 54  1  0
 23 55  1  0
 24 25  1  1
 24 26  1  0
 25 56  1  0
 25 57  1  0
 25 58  1  0
 26 27  1  0
 26 28  1  0
 26 59  1  6
 27 60  1  0
 27 61  1  0
 27 62  1  0
 28 29  1  0
 28 63  1  0
 28 64  1  0
 29 30  2  0
M  END
>  <i_m_ct_stereo_status>  (108) 
1

>  <s_m_source_file>  (108) 
/var/tmp/pbs.5076255.sched01/tmpar858yha/42b8svm9_t.sdf

>  <i_m_source_file_index>  (108) 
1

>  <i_lp_mmshare_version>  (108) 
48012

>  <i_f3d_flags>  (108) 
0

>  <s_epik_input>  (108) 
W0NIM11DKD1PKU9bQ0BASF0xW0NAQEhdKEMoW0NIM10pKFtDSDNdKVtDQEBIXTJbT0hdKVtDSDJdW0NAQEhdKFtPSF0pW0NAQEhdKFtDQEBdMyhbQ0BdMTI0KVtDSDNdKVtDQF0oW09IXSkoQyg9TylbQ0gyXVtDQEBIXTNbQ0gzXSlbQ0gyXVtDSF09QzRbQ0gyXVtPSF0=

>  <s_epik_cmdline>  (108) 
J2VwaWtfcHl0aG9uJywgJy1waHQnLCAnMi4wJywgJy1waCcsICc3LjAnLCAnLXRuJywgJzgnLCAnLW1hJywgJzIwMCcsICctaW1hZScsICc8aW5maWxlLm1hZT4nLCAnLW9tYWUnLCAnPG91dGZpbGUubWFlPic=

>  <r_lp_tautomer_probability>  (108) 
1

>  <r_epik_Ionization_Penalty>  (108) 
8.32354e-07

>  <r_epik_Ionization_Penalty_Charging>  (108) 
0

>  <r_epik_Ionization_Penalty_Neutral>  (108) 
8.32354e-07

>  <r_epik_State_Penalty>  (108) 
-0

>  <r_epik_Charging_Adjusted_Penalty>  (108) 
0

>  <i_epik_Tot_Q>  (108) 
0

>  <i_epik_Tot_abs_Q>  (108) 
0

>  <s_epik_Chemistry_Notes>  (108) 
This compound has an ester and may undergo hydrolysis at high or low pH.

>  <s_lp_Force_Field>  (108) 
OPLS3e

>  <r_lp_Energy>  (108) 
194.119

>  <b_lp_Chiralities_Consistent>  (108) 
1

>  <s_lp_Variant>  (108) 
29:0-1

>  <s_i_glide_gridfile>  (108) 
pfpi4k_grid

>  <i_i_glide_lignum>  (108) 
1

>  <i_i_glide_rotatable_bonds>  (108) 
7

>  <r_i_docking_score>  (108) 
-2.30091

>  <r_i_glide_ligand_efficiency>  (108) 
-0.0766968

>  <r_i_glide_ligand_efficiency_sa>  (108) 
-0.238315

>  <r_i_glide_ligand_efficiency_ln>  (108) 
-0.522791

>  <r_i_glide_gscore>  (108) 
-2.30091

>  <r_i_glide_lipo>  (108) 
0

>  <r_i_glide_hbond>  (108) 
-0.16

>  <r_i_glide_metal>  (108) 
-0

>  <r_i_glide_rewards>  (108) 
-0.54302

>  <r_i_glide_evdw>  (108) 
-18.4208

>  <r_i_glide_ecoul>  (108) 
-5.992

>  <r_i_glide_erotb>  (108) 
0.221953

>  <r_i_glide_esite>  (108) 
0

>  <r_i_glide_emodel>  (108) 
-25.9456

>  <r_i_glide_energy>  (108) 
-24.4128

>  <r_i_glide_einternal>  (108) 
1.40743

>  <r_i_glide_intrahb_reward>  (108) 
-0

>  <i_i_glide_confnum>  (108) 
5

>  <i_i_glide_posenum>  (108) 
13

>  <r_i_glide_eff_state_penalty>  (108) 
0

>  <ligand_id>  (108) 
29

>  <original_smiles>  (108) 
CC(=O)OC1C2CC(O)C3C4(O)CC=C(CO)C1(C(O)C2(C)C)C3(C)C(C)CC4=O

>  <smiles>  (108) 
[H]OC([H])([H])C1=C([H])C([H])([H])C2(O[H])C(=O)C([H])([H])C([H])(C([H])([H])[H])C3(C([H])([H])[H])C2([H])C([H])(O[H])C([H])([H])C2([H])C([H])(OC(=O)C([H])([H])[H])C13C([H])(O[H])C2(C([H])([H])[H])C([H])([H])[H]

$$$$
29:0:2
     RDKit          3D

 64 67  0  0  1  0  0  0  0  0999 V2000
    0.5634   -2.7358    5.1017 C   0  0  0  0  0  0  0  0  0  0  0  0
   -0.1903   -1.4219    5.2650 C   0  0  0  0  0  0  0  0  0  0  0  0
   -1.4218   -1.3734    5.2549 O   0  0  0  0  0  0  0  0  0  0  0  0
    0.6475   -0.3853    5.4258 O   0  0  0  0  0  0  0  0  0  0  0  0
    0.1801    0.9545    5.5596 C   0  0  2  0  0  0  0  0  0  0  0  0
   -0.1470    1.7817    4.2230 C   0  0  2  0  0  0  0  0  0  0  0  0
    0.9572    2.3611    3.1932 C   0  0  0  0  0  0  0  0  0  0  0  0
    2.2632    3.2282    3.5817 C   0  0  1  0  0  0  0  0  0  0  0  0
    2.1297    4.5209    3.0104 O   0  0  0  0  0  0  0  0  0  0  0  0
    2.5208    3.3093    5.1180 C   0  0  2  0  0  0  0  0  0  0  0  0
    3.3026    4.2854    6.0411 C   0  0  1  0  0  0  0  0  0  0  0  0
    3.2676    5.6096    5.5318 O   0  0  0  0  0  0  0  0  0  0  0  0
    2.6364    4.4249    7.5114 C   0  0  0  0  0  0  0  0  0  0  0  0
    1.8766    3.2873    8.3060 C   0  0  0  0  0  0  0  0  0  0  0  0
    1.2012    2.1744    7.8688 C   0  0  0  0  0  0  0  0  0  0  0  0
    0.6610    1.1210    8.8234 C   0  0  0  0  0  0  0  0  0  0  0  0
   -0.7387    0.9790    8.7139 O   0  0  0  0  0  0  0  0  0  0  0  0
    1.0135    1.9782    6.3673 C   0  0  2  0  0  0  0  0  0  0  0  0
   -0.2338    3.0461    6.1788 C   0  0  1  0  0  0  0  0  0  0  0  0
   -0.1709    4.4032    6.5881 O   0  0  0  0  0  0  0  0  0  0  0  0
   -0.9798    2.9180    4.8260 C   0  0  0  0  0  0  0  0  0  0  0  0
   -1.0890    4.2322    4.0002 C   0  0  0  0  0  0  0  0  0  0  0  0
   -2.4546    2.4751    5.0241 C   0  0  0  0  0  0  0  0  0  0  0  0
    2.5223    1.9076    5.7492 C   0  0  1  0  0  0  0  0  0  0  0  0
    2.9505    0.7823    4.6994 C   0  0  0  0  0  0  0  0  0  0  0  0
    3.7829    1.6362    6.7609 C   0  0  1  0  0  0  0  0  0  0  0  0
    4.1208    0.1845    7.1968 C   0  0  0  0  0  0  0  0  0  0  0  0
    5.0581    2.3657    6.3228 C   0  0  0  0  0  0  0  0  0  0  0  0
    4.7792    3.8466    6.0995 C   0  0  0  0  0  0  0  0  0  0  0  0
    5.7139    4.6396    5.9880 O   0  0  0  0  0  0  0  0  0  0  0  0
    1.1785   -2.9285    5.9807 H   0  0  0  0  0  0  0  0  0  0  0  0
    1.2202   -2.6876    4.2331 H   0  0  0  0  0  0  0  0  0  0  0  0
   -0.1248   -3.5689    4.9704 H   0  0  0  0  0  0  0  0  0  0  0  0
   -0.7379    0.8059    6.1217 H   0  0  0  0  0  0  0  0  0  0  0  0
   -0.8080    1.1652    3.6162 H   0  0  0  0  0  0  0  0  0  0  0  0
    1.2571    1.5575    2.5175 H   0  0  0  0  0  0  0  0  0  0  0  0
    0.4018    2.9429    2.4688 H   0  0  0  0  0  0  0  0  0  0  0  0
    3.1316    2.8001    3.0796 H   0  0  0  0  0  0  0  0  0  0  0  0
    1.6460    4.4518    2.1912 H   0  0  0  0  0  0  0  0  0  0  0  0
    1.6317    3.8774    5.2191 H   0  0  0  0  0  0  0  0  0  0  0  0
    2.3742    5.8641    5.3634 H   0  0  0  0  0  0  0  0  0  0  0  0
    3.4580    4.6902    8.1798 H   0  0  0  0  0  0  0  0  0  0  0  0
    2.0015    5.3094    7.5621 H   0  0  0  0  0  0  0  0  0  0  0  0
    1.9658    3.4106    9.3745 H   0  0  0  0  0  0  0  0  0  0  0  0
    1.1454    0.1616    8.6217 H   0  0  0  0  0  0  0  0  0  0  0  0
    0.9013    1.3966    9.8534 H   0  0  0  0  0  0  0  0  0  0  0  0
   -1.1411    1.7357    9.1256 H   0  0  0  0  0  0  0  0  0  0  0  0
   -0.9766    2.7335    6.9112 H   0  0  0  0  0  0  0  0  0  0  0  0
    0.4840    4.8345    6.0588 H   0  0  0  0  0  0  0  0  0  0  0  0
   -1.7728    4.9295    4.4756 H   0  0  0  0  0  0  0  0  0  0  0  0
   -1.4779    4.0407    2.9990 H   0  0  0  0  0  0  0  0  0  0  0  0
   -0.1500    4.7628    3.8950 H   0  0  0  0  0  0  0  0  0  0  0  0
   -3.0218    3.2326    5.5640 H   0  0  0  0  0  0  0  0  0  0  0  0
   -2.5693    1.5484    5.5829 H   0  0  0  0  0  0  0  0  0  0  0  0
   -2.9438    2.3211    4.0612 H   0  0  0  0  0  0  0  0  0  0  0  0
    3.0312   -0.2156    5.1181 H   0  0  0  0  0  0  0  0  0  0  0  0
    3.9169    1.0031    4.2433 H   0  0  0  0  0  0  0  0  0  0  0  0
    2.2966    0.5466    3.8830 H   0  0  0  0  0  0  0  0  0  0  0  0
    3.6920    2.0355    7.7537 H   0  0  0  0  0  0  0  0  0  0  0  0
    4.7024   -0.3542    6.4438 H   0  0  0  0  0  0  0  0  0  0  0  0
    3.2185   -0.3865    7.4229 H   0  0  0  0  0  0  0  0  0  0  0  0
    4.7373    0.1896    8.0983 H   0  0  0  0  0  0  0  0  0  0  0  0
    5.8145    2.2874    7.1025 H   0  0  0  0  0  0  0  0  0  0  0  0
    5.4917    1.9315    5.4254 H   0  0  0  0  0  0  0  0  0  0  0  0
  1  2  1  0
  1 31  1  0
  1 32  1  0
  1 33  1  0
  2  3  2  0
  2  4  1  0
  4  5  1  0
  5 18  1  0
  5  6  1  0
  5 34  1  1
  6 21  1  0
  6  7  1  0
  6 35  1  6
  7  8  1  0
  7 36  1  0
  7 37  1  0
  8  9  1  0
  8 10  1  0
  8 38  1  6
  9 39  1  0
 10 24  1  0
 10 11  1  0
 10 40  1  1
 11 29  1  0
 11 12  1  6
 11 13  1  0
 12 41  1  0
 13 14  1  0
 13 42  1  0
 13 43  1  0
 14 15  2  0
 14 44  1  0
 15 16  1  0
 18 15  1  1
 16 17  1  0
 16 45  1  0
 16 46  1  0
 17 47  1  0
 18 19  1  0
 18 24  1  0
 19 20  1  0
 19 21  1  0
 19 48  1  1
 20 49  1  0
 21 22  1  0
 21 23  1  0
 22 50  1  0
 22 51  1  0
 22 52  1  0
 23 53  1  0
 23 54  1  0
 23 55  1  0
 24 25  1  6
 24 26  1  0
 25 56  1  0
 25 57  1  0
 25 58  1  0
 26 27  1  0
 26 28  1  0
 26 59  1  1
 27 60  1  0
 27 61  1  0
 27 62  1  0
 28 29  1  0
 28 63  1  0
 28 64  1  0
 29 30  2  0
M  END
>  <i_m_ct_stereo_status>  (109) 
1

>  <s_m_source_file>  (109) 
/var/tmp/pbs.5076255.sched01/tmpar858yha/42b8svm9_t.sdf

>  <i_m_source_file_index>  (109) 
1

>  <i_lp_mmshare_version>  (109) 
48012

>  <i_f3d_flags>  (109) 
0

>  <s_epik_input>  (109) 
W0NIM11DKD1PKU9bQ0BASF0xW0NAQEhdKEMoW0NIM10pKFtDSDNdKVtDQEBIXTJbT0hdKVtDSDJdW0NAQEhdKFtPSF0pW0NAQEhdKFtDQEBdMyhbQ0BdMTI0KVtDSDNdKVtDQF0oW09IXSkoQyg9TylbQ0gyXVtDQEBIXTNbQ0gzXSlbQ0gyXVtDSF09QzRbQ0gyXVtPSF0=

>  <s_epik_cmdline>  (109) 
J2VwaWtfcHl0aG9uJywgJy1waHQnLCAnMi4wJywgJy1waCcsICc3LjAnLCAnLXRuJywgJzgnLCAnLW1hJywgJzIwMCcsICctaW1hZScsICc8aW5maWxlLm1hZT4nLCAnLW9tYWUnLCAnPG91dGZpbGUubWFlPic=

>  <r_lp_tautomer_probability>  (109) 
1

>  <r_epik_Ionization_Penalty>  (109) 
8.32354e-07

>  <r_epik_Ionization_Penalty_Charging>  (109) 
0

>  <r_epik_Ionization_Penalty_Neutral>  (109) 
8.32354e-07

>  <r_epik_State_Penalty>  (109) 
-0

>  <r_epik_Charging_Adjusted_Penalty>  (109) 
0

>  <i_epik_Tot_Q>  (109) 
0

>  <i_epik_Tot_abs_Q>  (109) 
0

>  <s_epik_Chemistry_Notes>  (109) 
This compound has an ester and may undergo hydrolysis at high or low pH.

>  <s_lp_Force_Field>  (109) 
OPLS3e

>  <r_lp_Energy>  (109) 
194.119

>  <b_lp_Chiralities_Consistent>  (109) 
1

>  <s_lp_Variant>  (109) 
29:0-1

>  <s_i_glide_gridfile>  (109) 
pfpi4k_grid

>  <i_i_glide_lignum>  (109) 
1

>  <i_i_glide_rotatable_bonds>  (109) 
7

>  <r_i_docking_score>  (109) 
-2.01178

>  <r_i_glide_ligand_efficiency>  (109) 
-0.0670595

>  <r_i_glide_ligand_efficiency_sa>  (109) 
-0.208369

>  <r_i_glide_ligand_efficiency_ln>  (109) 
-0.457099

>  <r_i_glide_gscore>  (109) 
-2.01178

>  <r_i_glide_lipo>  (109) 
-0.00895139

>  <r_i_glide_hbond>  (109) 
0

>  <r_i_glide_metal>  (109) 
-0

>  <r_i_glide_rewards>  (109) 
-0.532334

>  <r_i_glide_evdw>  (109) 
-17.4301

>  <r_i_glide_ecoul>  (109) 
-5.34492

>  <r_i_glide_erotb>  (109) 
0.221953

>  <r_i_glide_esite>  (109) 
-0.0192082

>  <r_i_glide_emodel>  (109) 
-25.5387

>  <r_i_glide_energy>  (109) 
-22.775

>  <r_i_glide_einternal>  (109) 
1.51373

>  <r_i_glide_intrahb_reward>  (109) 
-0

>  <i_i_glide_confnum>  (109) 
5

>  <i_i_glide_posenum>  (109) 
9

>  <r_i_glide_eff_state_penalty>  (109) 
0

>  <ligand_id>  (109) 
29

>  <original_smiles>  (109) 
CC(=O)OC1C2CC(O)C3C4(O)CC=C(CO)C1(C(O)C2(C)C)C3(C)C(C)CC4=O

>  <smiles>  (109) 
[H]OC([H])([H])C1=C([H])C([H])([H])C2(O[H])C(=O)C([H])([H])C([H])(C([H])([H])[H])C3(C([H])([H])[H])C2([H])C([H])(O[H])C([H])([H])C2([H])C([H])(OC(=O)C([H])([H])[H])C13C([H])(O[H])C2(C([H])([H])[H])C([H])([H])[H]

$$$$
30:0:0
     RDKit          3D

 26 29  0  0  1  0  0  0  0  0999 V2000
    6.7629   -6.6598    3.6839 C   0  0  0  0  0  0  0  0  0  0  0  0
    7.7497   -6.7789    2.7615 N   0  0  0  0  0  0  0  0  0  0  0  0
    7.0802   -6.3529    1.6929 C   0  0  0  0  0  0  0  0  0  0  0  0
    5.8683   -5.8810    1.9624 N   0  0  0  0  0  0  0  0  0  0  0  0
    4.9163   -5.2235    1.1288 C   0  0  0  0  0  0  0  0  0  0  0  0
    3.6044   -5.5459    1.2703 C   0  0  0  0  0  0  0  0  0  0  0  0
    2.6310   -4.6527    0.1491 S   0  0  0  0  0  0  0  0  0  0  0  0
    4.0469   -3.8310   -0.4915 C   0  0  0  0  0  0  0  0  0  0  0  0
    3.8202   -2.8545   -1.5613 C   0  0  0  0  0  0  0  0  0  0  0  0
    2.8882   -3.0162   -2.6273 C   0  0  0  0  0  0  0  0  0  0  0  0
    2.9267   -1.9991   -3.5471 C   0  0  0  0  0  0  0  0  0  0  0  0
    4.1062   -0.8027   -3.1507 S   0  0  0  0  0  0  0  0  0  0  0  0
    4.4716   -1.6503   -1.6906 C   0  0  0  0  0  0  0  0  0  0  0  0
    5.2354   -4.2132    0.1250 C   0  0  0  0  0  0  0  0  0  0  0  0
    6.6161   -3.6939   -0.1725 C   0  0  0  0  0  0  0  0  0  0  0  0
    6.9360   -2.9847   -1.2616 N   0  0  0  0  0  0  0  0  0  0  0  0
    8.2138   -2.6774   -1.1249 N   0  0  0  0  0  0  0  0  0  0  0  0
    8.7145   -3.3504   -0.1054 N   0  0  0  0  0  0  0  0  0  0  0  0
    7.7023   -3.8491    0.6044 N   0  0  0  0  0  0  0  0  0  0  0  0
    5.6073   -6.1343    3.2679 N   0  0  0  0  0  0  0  0  0  0  0  0
    6.8965   -7.0047    4.6974 H   0  0  0  0  0  0  0  0  0  0  0  0
    7.5554   -6.2871    0.7303 H   0  0  0  0  0  0  0  0  0  0  0  0
    3.1390   -6.2608    1.9529 H   0  0  0  0  0  0  0  0  0  0  0  0
    2.2209   -3.8614   -2.6883 H   0  0  0  0  0  0  0  0  0  0  0  0
    2.3136   -1.8621   -4.4157 H   0  0  0  0  0  0  0  0  0  0  0  0
    5.2407   -1.2459   -1.0524 H   0  0  0  0  0  0  0  0  0  0  0  0
  1 20  2  0
  1  2  1  0
  1 21  1  0
  2  3  2  0
  3  4  1  0
  3 22  1  0
  4  5  1  0
  4 20  1  0
  5 14  1  0
  5  6  2  0
  6  7  1  0
  6 23  1  0
  7  8  1  0
  8  9  1  0
  8 14  2  0
  9 13  2  0
  9 10  1  0
 10 11  2  0
 10 24  1  0
 11 12  1  0
 11 25  1  0
 12 13  1  0
 13 26  1  0
 14 15  1  0
 15 19  2  0
 15 16  1  0
 16 17  1  0
 17 18  2  0
 18 19  1  0
M  CHG  1  16  -1
M  END
>  <i_m_ct_stereo_status>  (110) 
1

>  <s_m_source_file>  (110) 
/var/tmp/pbs.5076255.sched01/tmpar858yha/42b8svm9_t.sdf

>  <i_m_source_file_index>  (110) 
2

>  <i_lp_mmshare_version>  (110) 
48012

>  <i_f3d_flags>  (110) 
0

>  <s_epik_input>  (110) 
bjFbY0hdbltjSF1uMS1jMltjSF1zYygtYzNbY0hdW2NIXXNbY0hdMyljMi1jNG5uW25IXW40

>  <s_epik_cmdline>  (110) 
J2VwaWtfcHl0aG9uJywgJy1waHQnLCAnMi4wJywgJy1waCcsICc3LjAnLCAnLXRuJywgJzgnLCAnLW1hJywgJzIwMCcsICctaW1hZScsICc8aW5maWxlLm1hZT4nLCAnLW9tYWUnLCAnPG91dGZpbGUubWFlPic=

>  <r_lp_tautomer_probability>  (110) 
1

>  <r_epik_Ionization_Penalty>  (110) 
0.00361918

>  <r_epik_Ionization_Penalty_Charging>  (110) 
0.00360722

>  <r_epik_Ionization_Penalty_Neutral>  (110) 
1.19588e-05

>  <r_epik_State_Penalty>  (110) 
0.000956498

>  <r_epik_Charging_Adjusted_Penalty>  (110) 
0.00456372

>  <i_epik_Tot_Q>  (110) 
-1

>  <i_epik_Tot_abs_Q>  (110) 
1

>  <s_lp_Force_Field>  (110) 
OPLS3e

>  <r_lp_Energy>  (110) 
17.5035

>  <b_lp_Chiralities_Consistent>  (110) 
1

>  <s_lp_Variant>  (110) 
30:0-1

>  <s_i_glide_gridfile>  (110) 
pfpi4k_grid

>  <i_i_glide_lignum>  (110) 
2

>  <i_i_glide_rotatable_bonds>  (110) 
3

>  <r_i_docking_score>  (110) 
-3.17563

>  <r_i_glide_ligand_efficiency>  (110) 
-0.158781

>  <r_i_glide_ligand_efficiency_sa>  (110) 
-0.430999

>  <r_i_glide_ligand_efficiency_ln>  (110) 
-0.794754

>  <r_i_glide_gscore>  (110) 
-3.17563

>  <r_i_glide_lipo>  (110) 
-0.500646

>  <r_i_glide_hbond>  (110) 
0

>  <r_i_glide_metal>  (110) 
-0

>  <r_i_glide_rewards>  (110) 
-1.65367

>  <r_i_glide_evdw>  (110) 
-29.613

>  <r_i_glide_ecoul>  (110) 
-0.481032

>  <r_i_glide_erotb>  (110) 
0.611272

>  <r_i_glide_esite>  (110) 
-0.0797755

>  <r_i_glide_emodel>  (110) 
-35.0182

>  <r_i_glide_energy>  (110) 
-30.094

>  <r_i_glide_einternal>  (110) 
0.865493

>  <r_i_glide_intrahb_reward>  (110) 
-0

>  <i_i_glide_confnum>  (110) 
3

>  <i_i_glide_posenum>  (110) 
2

>  <r_i_glide_eff_state_penalty>  (110) 
0

>  <ligand_id>  (110) 
30

>  <original_smiles>  (110) 
c1ncn(-c2csc(-c3ccsc3)c2-c2nn[nH]n2)n1

>  <smiles>  (110) 
[H]c1nc([H])n(-c2c([H])sc(-c3c([H])sc([H])c3[H])c2-c2nnn[n-]2)n1

$$$$
30:0:1
     RDKit          3D

 26 29  0  0  1  0  0  0  0  0999 V2000
    6.5029   -6.4429    4.0961 C   0  0  0  0  0  0  0  0  0  0  0  0
    7.6023   -6.4880    3.2813 N   0  0  0  0  0  0  0  0  0  0  0  0
    7.0700   -6.0573    2.1451 C   0  0  0  0  0  0  0  0  0  0  0  0
    5.8071   -5.6875    2.2571 N   0  0  0  0  0  0  0  0  0  0  0  0
    4.9037   -5.1118    1.3151 C   0  0  0  0  0  0  0  0  0  0  0  0
    3.6112   -5.5596    1.2849 C   0  0  0  0  0  0  0  0  0  0  0  0
    2.6856   -4.6952    0.0798 S   0  0  0  0  0  0  0  0  0  0  0  0
    4.0834   -3.7461   -0.3808 C   0  0  0  0  0  0  0  0  0  0  0  0
    3.9049   -2.7605   -1.4632 C   0  0  0  0  0  0  0  0  0  0  0  0
    3.0607   -2.9757   -2.6145 C   0  0  0  0  0  0  0  0  0  0  0  0
    3.0847   -1.9511   -3.5242 C   0  0  0  0  0  0  0  0  0  0  0  0
    4.1369   -0.6767   -3.0172 S   0  0  0  0  0  0  0  0  0  0  0  0
    4.4807   -1.5124   -1.5349 C   0  0  0  0  0  0  0  0  0  0  0  0
    5.2021   -4.0698    0.3649 C   0  0  0  0  0  0  0  0  0  0  0  0
    6.5144   -3.4205    0.2423 C   0  0  0  0  0  0  0  0  0  0  0  0
    6.8060   -2.1496    0.4605 N   0  0  0  0  0  0  0  0  0  0  0  0
    8.0738   -1.9832    0.1512 N   0  0  0  0  0  0  0  0  0  0  0  0
    8.6153   -3.1258   -0.0552 N   0  0  0  0  0  0  0  0  0  0  0  0
    7.6623   -4.0180   -0.0531 N   0  0  0  0  0  0  0  0  0  0  0  0
    5.3865   -5.9760    3.5164 N   0  0  0  0  0  0  0  0  0  0  0  0
    6.5565   -6.7992    5.1139 H   0  0  0  0  0  0  0  0  0  0  0  0
    7.6454   -6.0451    1.2200 H   0  0  0  0  0  0  0  0  0  0  0  0
    3.1253   -6.3188    1.8867 H   0  0  0  0  0  0  0  0  0  0  0  0
    2.4406   -3.8551   -2.7413 H   0  0  0  0  0  0  0  0  0  0  0  0
    2.5345   -1.8292   -4.4540 H   0  0  0  0  0  0  0  0  0  0  0  0
    5.1023   -1.0288   -0.8039 H   0  0  0  0  0  0  0  0  0  0  0  0
  1 20  2  0
  1  2  1  0
  1 21  1  0
  2  3  2  0
  3  4  1  0
  3 22  1  0
  4  5  1  0
  4 20  1  0
  5 14  1  0
  5  6  2  0
  6  7  1  0
  6 23  1  0
  7  8  1  0
  8  9  1  0
  8 14  2  0
  9 13  2  0
  9 10  1  0
 10 11  2  0
 10 24  1  0
 11 12  1  0
 11 25  1  0
 12 13  1  0
 13 26  1  0
 14 15  1  0
 15 19  2  0
 15 16  1  0
 16 17  1  0
 17 18  2  0
 18 19  1  0
M  CHG  1  16  -1
M  END
>  <i_m_ct_stereo_status>  (111) 
1

>  <s_m_source_file>  (111) 
/var/tmp/pbs.5076255.sched01/tmpar858yha/42b8svm9_t.sdf

>  <i_m_source_file_index>  (111) 
2

>  <i_lp_mmshare_version>  (111) 
48012

>  <i_f3d_flags>  (111) 
0

>  <s_epik_input>  (111) 
bjFbY0hdbltjSF1uMS1jMltjSF1zYygtYzNbY0hdW2NIXXNbY0hdMyljMi1jNG5uW25IXW40

>  <s_epik_cmdline>  (111) 
J2VwaWtfcHl0aG9uJywgJy1waHQnLCAnMi4wJywgJy1waCcsICc3LjAnLCAnLXRuJywgJzgnLCAnLW1hJywgJzIwMCcsICctaW1hZScsICc8aW5maWxlLm1hZT4nLCAnLW9tYWUnLCAnPG91dGZpbGUubWFlPic=

>  <r_lp_tautomer_probability>  (111) 
1

>  <r_epik_Ionization_Penalty>  (111) 
0.00361918

>  <r_epik_Ionization_Penalty_Charging>  (111) 
0.00360722

>  <r_epik_Ionization_Penalty_Neutral>  (111) 
1.19588e-05

>  <r_epik_State_Penalty>  (111) 
0.000956498

>  <r_epik_Charging_Adjusted_Penalty>  (111) 
0.00456372

>  <i_epik_Tot_Q>  (111) 
-1

>  <i_epik_Tot_abs_Q>  (111) 
1

>  <s_lp_Force_Field>  (111) 
OPLS3e

>  <r_lp_Energy>  (111) 
17.5035

>  <b_lp_Chiralities_Consistent>  (111) 
1

>  <s_lp_Variant>  (111) 
30:0-1

>  <s_i_glide_gridfile>  (111) 
pfpi4k_grid

>  <i_i_glide_lignum>  (111) 
2

>  <i_i_glide_rotatable_bonds>  (111) 
3

>  <r_i_docking_score>  (111) 
-3.02378

>  <r_i_glide_ligand_efficiency>  (111) 
-0.151189

>  <r_i_glide_ligand_efficiency_sa>  (111) 
-0.41039

>  <r_i_glide_ligand_efficiency_ln>  (111) 
-0.756752

>  <r_i_glide_gscore>  (111) 
-3.02378

>  <r_i_glide_lipo>  (111) 
-0.481075

>  <r_i_glide_hbond>  (111) 
0

>  <r_i_glide_metal>  (111) 
-0

>  <r_i_glide_rewards>  (111) 
-1.59214

>  <r_i_glide_evdw>  (111) 
-27.7564

>  <r_i_glide_ecoul>  (111) 
-1.16011

>  <r_i_glide_erotb>  (111) 
0.611272

>  <r_i_glide_esite>  (111) 
0

>  <r_i_glide_emodel>  (111) 
-34.191

>  <r_i_glide_energy>  (111) 
-28.9165

>  <r_i_glide_einternal>  (111) 
0.464902

>  <r_i_glide_intrahb_reward>  (111) 
-0

>  <i_i_glide_confnum>  (111) 
3

>  <i_i_glide_posenum>  (111) 
31

>  <r_i_glide_eff_state_penalty>  (111) 
0

>  <ligand_id>  (111) 
30

>  <original_smiles>  (111) 
c1ncn(-c2csc(-c3ccsc3)c2-c2nn[nH]n2)n1

>  <smiles>  (111) 
[H]c1nc([H])n(-c2c([H])sc(-c3c([H])sc([H])c3[H])c2-c2nnn[n-]2)n1

$$$$
30:0:2
     RDKit          3D

 26 29  0  0  1  0  0  0  0  0999 V2000
    1.6593   -0.5222    2.3214 C   0  0  0  0  0  0  0  0  0  0  0  0
    2.2060    0.5479    1.6739 N   0  0  0  0  0  0  0  0  0  0  0  0
    1.4316    1.5139    2.1540 C   0  0  0  0  0  0  0  0  0  0  0  0
    0.5602    1.0884    3.0725 N   0  0  0  0  0  0  0  0  0  0  0  0
   -0.3186    1.8314    3.8987 C   0  0  0  0  0  0  0  0  0  0  0  0
   -1.0135    2.8781    3.3587 C   0  0  0  0  0  0  0  0  0  0  0  0
   -2.0626    3.5906    4.5374 S   0  0  0  0  0  0  0  0  0  0  0  0
   -1.4904    2.5001    5.7772 C   0  0  0  0  0  0  0  0  0  0  0  0
   -2.0111    2.6548    7.1308 C   0  0  0  0  0  0  0  0  0  0  0  0
   -3.3825    2.8855    7.4545 C   0  0  0  0  0  0  0  0  0  0  0  0
   -3.6282    2.9787    8.7997 C   0  0  0  0  0  0  0  0  0  0  0  0
   -2.1754    2.7876    9.7292 S   0  0  0  0  0  0  0  0  0  0  0  0
   -1.2471    2.5797    8.2707 C   0  0  0  0  0  0  0  0  0  0  0  0
   -0.5574    1.5992    5.3009 C   0  0  0  0  0  0  0  0  0  0  0  0
    0.0980    0.5373    6.0886 C   0  0  0  0  0  0  0  0  0  0  0  0
    1.4218    0.3308    6.1385 N   0  0  0  0  0  0  0  0  0  0  0  0
    1.5552   -0.7392    6.9302 N   0  0  0  0  0  0  0  0  0  0  0  0
    0.3542   -1.1103    7.3880 N   0  0  0  0  0  0  0  0  0  0  0  0
   -0.5911   -0.3173    6.8668 N   0  0  0  0  0  0  0  0  0  0  0  0
    0.6452   -0.2602    3.1422 N   0  0  0  0  0  0  0  0  0  0  0  0
    2.0376   -1.5268    2.1971 H   0  0  0  0  0  0  0  0  0  0  0  0
    1.5205    2.5547    1.8642 H   0  0  0  0  0  0  0  0  0  0  0  0
   -0.9877    3.2510    2.3484 H   0  0  0  0  0  0  0  0  0  0  0  0
   -4.1370    2.9362    6.6819 H   0  0  0  0  0  0  0  0  0  0  0  0
   -4.5777    3.1290    9.3008 H   0  0  0  0  0  0  0  0  0  0  0  0
   -0.1802    2.3937    8.3284 H   0  0  0  0  0  0  0  0  0  0  0  0
  1 20  2  0
  1  2  1  0
  1 21  1  0
  2  3  2  0
  3  4  1  0
  3 22  1  0
  4  5  1  0
  4 20  1  0
  5 14  1  0
  5  6  2  0
  6  7  1  0
  6 23  1  0
  7  8  1  0
  8  9  1  0
  8 14  2  0
  9 13  2  0
  9 10  1  0
 10 11  2  0
 10 24  1  0
 11 12  1  0
 11 25  1  0
 12 13  1  0
 13 26  1  0
 14 15  1  0
 15 19  2  0
 15 16  1  0
 16 17  1  0
 17 18  2  0
 18 19  1  0
M  CHG  1  16  -1
M  END
>  <i_m_ct_stereo_status>  (112) 
1

>  <s_m_source_file>  (112) 
/var/tmp/pbs.5076255.sched01/tmpar858yha/42b8svm9_t.sdf

>  <i_m_source_file_index>  (112) 
2

>  <i_lp_mmshare_version>  (112) 
48012

>  <i_f3d_flags>  (112) 
0

>  <s_epik_input>  (112) 
bjFbY0hdbltjSF1uMS1jMltjSF1zYygtYzNbY0hdW2NIXXNbY0hdMyljMi1jNG5uW25IXW40

>  <s_epik_cmdline>  (112) 
J2VwaWtfcHl0aG9uJywgJy1waHQnLCAnMi4wJywgJy1waCcsICc3LjAnLCAnLXRuJywgJzgnLCAnLW1hJywgJzIwMCcsICctaW1hZScsICc8aW5maWxlLm1hZT4nLCAnLW9tYWUnLCAnPG91dGZpbGUubWFlPic=

>  <r_lp_tautomer_probability>  (112) 
1

>  <r_epik_Ionization_Penalty>  (112) 
0.00361918

>  <r_epik_Ionization_Penalty_Charging>  (112) 
0.00360722

>  <r_epik_Ionization_Penalty_Neutral>  (112) 
1.19588e-05

>  <r_epik_State_Penalty>  (112) 
0.000956498

>  <r_epik_Charging_Adjusted_Penalty>  (112) 
0.00456372

>  <i_epik_Tot_Q>  (112) 
-1

>  <i_epik_Tot_abs_Q>  (112) 
1

>  <s_lp_Force_Field>  (112) 
OPLS3e

>  <r_lp_Energy>  (112) 
17.5035

>  <b_lp_Chiralities_Consistent>  (112) 
1

>  <s_lp_Variant>  (112) 
30:0-1

>  <s_i_glide_gridfile>  (112) 
pfpi4k_grid

>  <i_i_glide_lignum>  (112) 
2

>  <i_i_glide_rotatable_bonds>  (112) 
3

>  <r_i_docking_score>  (112) 
-2.96737

>  <r_i_glide_ligand_efficiency>  (112) 
-0.148369

>  <r_i_glide_ligand_efficiency_sa>  (112) 
-0.402735

>  <r_i_glide_ligand_efficiency_ln>  (112) 
-0.742636

>  <r_i_glide_gscore>  (112) 
-2.96737

>  <r_i_glide_lipo>  (112) 
-0.212878

>  <r_i_glide_hbond>  (112) 
0

>  <r_i_glide_metal>  (112) 
-0

>  <r_i_glide_rewards>  (112) 
-1.36129

>  <r_i_glide_evdw>  (112) 
-21.5763

>  <r_i_glide_ecoul>  (112) 
-4.62606

>  <r_i_glide_erotb>  (112) 
0.611272

>  <r_i_glide_esite>  (112) 
-0.231755

>  <r_i_glide_emodel>  (112) 
-33.061

>  <r_i_glide_energy>  (112) 
-26.2023

>  <r_i_glide_einternal>  (112) 
0.905862

>  <r_i_glide_intrahb_reward>  (112) 
-0

>  <i_i_glide_confnum>  (112) 
6

>  <i_i_glide_posenum>  (112) 
25

>  <r_i_glide_eff_state_penalty>  (112) 
0

>  <ligand_id>  (112) 
30

>  <original_smiles>  (112) 
c1ncn(-c2csc(-c3ccsc3)c2-c2nn[nH]n2)n1

>  <smiles>  (112) 
[H]c1nc([H])n(-c2c([H])sc(-c3c([H])sc([H])c3[H])c2-c2nnn[n-]2)n1

$$$$
31:1:0
     RDKit          3D

 33 35  0  0  1  0  0  0  0  0999 V2000
    2.2111   -5.5257   -0.1007 C   0  0  0  0  0  0  0  0  0  0  0  0
    1.8306   -6.4478    0.9796 C   0  0  0  0  0  0  0  0  0  0  0  0
    0.5488   -6.2634    1.3885 O   0  0  0  0  0  0  0  0  0  0  0  0
    0.2627   -7.2341    2.3395 C   0  0  0  0  0  0  0  0  0  0  0  0
   -0.9759   -7.3200    2.9287 N   0  0  0  0  0  0  0  0  0  0  0  0
   -1.0689   -8.3179    3.8238 C   0  0  0  0  0  0  0  0  0  0  0  0
   -0.0207   -9.1959    4.1493 C   0  0  0  0  0  0  0  0  0  0  0  0
    1.2375   -9.0672    3.5156 C   0  0  0  0  0  0  0  0  0  0  0  0
    1.4075   -8.0501    2.5484 C   0  0  0  0  0  0  0  0  0  0  0  0
    2.4124   -7.5114    1.6404 C   0  0  0  0  0  0  0  0  0  0  0  0
    3.8082   -8.0712    1.5421 C   0  0  0  0  0  0  0  0  0  0  0  0
    4.9019   -7.4343    1.2954 N   0  0  0  0  0  0  0  0  0  0  0  0
    4.8504   -6.0613    1.1985 N   0  0  0  0  0  0  0  0  0  0  0  0
    5.8557   -5.2505    0.8675 C   0  0  0  0  0  0  0  0  0  0  0  0
    7.0455   -5.6219    0.8445 O   0  0  0  0  0  0  0  0  0  0  0  0
    5.5095   -3.8445    0.4518 C   0  0  0  0  0  0  0  0  0  0  0  0
    4.2578   -3.2416    0.7868 C   0  0  0  0  0  0  0  0  0  0  0  0
    3.9388   -1.9741    0.2794 C   0  0  0  0  0  0  0  0  0  0  0  0
    4.9061   -1.2768   -0.4499 C   0  0  0  0  0  0  0  0  0  0  0  0
    6.1327   -1.7895   -0.7206 N   0  0  0  0  0  0  0  0  0  0  0  0
    6.3839   -3.0586   -0.3038 C   0  0  0  0  0  0  0  0  0  0  0  0
    3.2214   -5.6628   -0.4672 H   0  0  0  0  0  0  0  0  0  0  0  0
    2.1179   -4.4871    0.3024 H   0  0  0  0  0  0  0  0  0  0  0  0
    1.5397   -5.5483   -0.9384 H   0  0  0  0  0  0  0  0  0  0  0  0
   -2.0254   -8.4195    4.3000 H   0  0  0  0  0  0  0  0  0  0  0  0
   -0.1705   -9.9701    4.8854 H   0  0  0  0  0  0  0  0  0  0  0  0
    2.0391   -9.7417    3.7497 H   0  0  0  0  0  0  0  0  0  0  0  0
    3.8854   -9.1668    1.6647 H   0  0  0  0  0  0  0  0  0  0  0  0
    3.8951   -5.7101    1.2317 H   0  0  0  0  0  0  0  0  0  0  0  0
    3.5750   -3.7348    1.4513 H   0  0  0  0  0  0  0  0  0  0  0  0
    2.9674   -1.5292    0.4481 H   0  0  0  0  0  0  0  0  0  0  0  0
    4.7194   -0.2674   -0.7882 H   0  0  0  0  0  0  0  0  0  0  0  0
    7.3878   -3.4192   -0.5423 H   0  0  0  0  0  0  0  0  0  0  0  0
  1  2  1  0
  1 22  1  0
  1 23  1  0
  1 24  1  0
  2 10  2  0
  2  3  1  0
  3  4  1  0
  4  9  2  0
  4  5  1  0
  5  6  2  0
  6  7  1  0
  6 25  1  0
  7  8  2  0
  7 26  1  0
  8  9  1  0
  8 27  1  0
  9 10  1  0
 10 11  1  0
 11 12  2  3
 11 28  1  0
 12 13  1  0
 13 14  1  0
 13 29  1  0
 14 15  2  0
 14 16  1  0
 16 21  1  0
 16 17  2  0
 17 18  1  0
 17 30  1  0
 18 19  2  0
 18 31  1  0
 19 20  1  0
 19 32  1  0
 20 21  2  0
 21 33  1  0
M  END
>  <i_m_ct_stereo_status>  (113) 
1

>  <s_m_source_file>  (113) 
/var/tmp/pbs.5076255.sched01/tmpar858yha/42b8svm9_t.sdf

>  <i_m_source_file_index>  (113) 
4

>  <i_lp_mmshare_version>  (113) 
48012

>  <i_f3d_flags>  (113) 
0

>  <s_epik_input>  (113) 
bjFbY0hdW2NIXVtjSF1jKGMxMiljKGMobzIpW0NIM10pL1tDSF09Ti9bTkhdQyg9TyljM1tjSF1bY0hdW2NIXW5bY0hdMw==

>  <s_epik_cmdline>  (113) 
J2VwaWtfcHl0aG9uJywgJy1waHQnLCAnMi4wJywgJy1waCcsICc3LjAnLCAnLXRuJywgJzgnLCAnLW1hJywgJzIwMCcsICctaW1hZScsICc8aW5maWxlLm1hZT4nLCAnLW9tYWUnLCAnPG91dGZpbGUubWFlPic=

>  <r_lp_tautomer_probability>  (113) 
1

>  <r_epik_Ionization_Penalty>  (113) 
0.00262734

>  <r_epik_Ionization_Penalty_Charging>  (113) 
0

>  <r_epik_Ionization_Penalty_Neutral>  (113) 
0.00262734

>  <r_epik_State_Penalty>  (113) 
-0

>  <r_epik_Charging_Adjusted_Penalty>  (113) 
0

>  <i_epik_Tot_Q>  (113) 
0

>  <i_epik_Tot_abs_Q>  (113) 
0

>  <s_epik_Chemistry_Notes>  (113) 
This compound has an imine and may undergo hydrolysis.

>  <s_lp_Force_Field>  (113) 
OPLS3e

>  <r_lp_Energy>  (113) 
44.1425

>  <b_lp_Chiralities_Consistent>  (113) 
1

>  <s_lp_Variant>  (113) 
31:0-2

>  <s_i_glide_gridfile>  (113) 
pfpi4k_grid

>  <i_i_glide_lignum>  (113) 
4

>  <i_i_glide_rotatable_bonds>  (113) 
4

>  <r_i_docking_score>  (113) 
-3.78024

>  <r_i_glide_ligand_efficiency>  (113) 
-0.180012

>  <r_i_glide_ligand_efficiency_sa>  (113) 
-0.496638

>  <r_i_glide_ligand_efficiency_ln>  (113) 
-0.934657

>  <r_i_glide_gscore>  (113) 
-3.78024

>  <r_i_glide_lipo>  (113) 
-0.134691

>  <r_i_glide_hbond>  (113) 
-0.303643

>  <r_i_glide_metal>  (113) 
-0

>  <r_i_glide_rewards>  (113) 
-1.63265

>  <r_i_glide_evdw>  (113) 
-25.057

>  <r_i_glide_ecoul>  (113) 
-7.6012

>  <r_i_glide_erotb>  (113) 
0.689585

>  <r_i_glide_esite>  (113) 
-0.00581189

>  <r_i_glide_emodel>  (113) 
-38.117

>  <r_i_glide_energy>  (113) 
-32.6582

>  <r_i_glide_einternal>  (113) 
4.02698

>  <r_i_glide_intrahb_reward>  (113) 
-0

>  <i_i_glide_confnum>  (113) 
2

>  <i_i_glide_posenum>  (113) 
9

>  <r_i_glide_eff_state_penalty>  (113) 
0

>  <ligand_id>  (113) 
31

>  <original_smiles>  (113) 
Cc1oc2ncccc2c1C=NNC(=O)c1cccnc1

>  <smiles>  (113) 
[H]C(=NN([H])C(=O)c1c([H])nc([H])c([H])c1[H])c1c(C([H])([H])[H])oc2nc([H])c([H])c([H])c12

$$$$
31:1:1
     RDKit          3D

 33 35  0  0  1  0  0  0  0  0999 V2000
    3.2012   -3.4359    2.7048 C   0  0  0  0  0  0  0  0  0  0  0  0
    2.7868   -2.0028    2.7444 C   0  0  0  0  0  0  0  0  0  0  0  0
    1.4488   -1.7807    2.9314 O   0  0  0  0  0  0  0  0  0  0  0  0
    1.2545   -0.4102    2.9421 C   0  0  0  0  0  0  0  0  0  0  0  0
    0.0386    0.1779    3.1215 N   0  0  0  0  0  0  0  0  0  0  0  0
    0.0454    1.5285    3.0707 C   0  0  0  0  0  0  0  0  0  0  0  0
    1.2113    2.3032    2.8931 C   0  0  0  0  0  0  0  0  0  0  0  0
    2.4561    1.6566    2.7458 C   0  0  0  0  0  0  0  0  0  0  0  0
    2.5070    0.2433    2.7660 C   0  0  0  0  0  0  0  0  0  0  0  0
    3.4791   -0.8132    2.6660 C   0  0  0  0  0  0  0  0  0  0  0  0
    4.9420   -0.6368    2.5539 C   0  0  0  0  0  0  0  0  0  0  0  0
    5.6645   -1.0123    1.5563 N   0  0  0  0  0  0  0  0  0  0  0  0
    5.0476   -1.5444    0.4737 N   0  0  0  0  0  0  0  0  0  0  0  0
    5.6822   -1.9017   -0.6527 C   0  0  0  0  0  0  0  0  0  0  0  0
    6.9054   -1.8601   -0.7907 O   0  0  0  0  0  0  0  0  0  0  0  0
    4.8054   -2.3883   -1.7721 C   0  0  0  0  0  0  0  0  0  0  0  0
    3.4105   -2.1655   -1.7727 C   0  0  0  0  0  0  0  0  0  0  0  0
    2.6351   -2.6554   -2.8369 C   0  0  0  0  0  0  0  0  0  0  0  0
    3.2803   -3.3243   -3.8857 C   0  0  0  0  0  0  0  0  0  0  0  0
    4.6157   -3.5225   -3.9210 N   0  0  0  0  0  0  0  0  0  0  0  0
    5.3517   -3.0725   -2.8797 C   0  0  0  0  0  0  0  0  0  0  0  0
    4.2887   -3.5479    2.6664 H   0  0  0  0  0  0  0  0  0  0  0  0
    2.7679   -3.9127    1.8234 H   0  0  0  0  0  0  0  0  0  0  0  0
    2.8276   -3.9602    3.5883 H   0  0  0  0  0  0  0  0  0  0  0  0
   -0.9200    2.0072    3.1722 H   0  0  0  0  0  0  0  0  0  0  0  0
    1.1283    3.3812    2.8313 H   0  0  0  0  0  0  0  0  0  0  0  0
    3.3564    2.2392    2.6010 H   0  0  0  0  0  0  0  0  0  0  0  0
    5.4526   -0.1445    3.3846 H   0  0  0  0  0  0  0  0  0  0  0  0
    4.0388   -1.5754    0.5267 H   0  0  0  0  0  0  0  0  0  0  0  0
    2.9278   -1.6386   -0.9643 H   0  0  0  0  0  0  0  0  0  0  0  0
    1.5630   -2.5205   -2.8518 H   0  0  0  0  0  0  0  0  0  0  0  0
    2.7126   -3.7017   -4.7199 H   0  0  0  0  0  0  0  0  0  0  0  0
    6.4155   -3.2579   -2.9592 H   0  0  0  0  0  0  0  0  0  0  0  0
  1  2  1  0
  1 22  1  0
  1 23  1  0
  1 24  1  0
  2 10  2  0
  2  3  1  0
  3  4  1  0
  4  9  2  0
  4  5  1  0
  5  6  2  0
  6  7  1  0
  6 25  1  0
  7  8  2  0
  7 26  1  0
  8  9  1  0
  8 27  1  0
  9 10  1  0
 10 11  1  0
 11 12  2  3
 11 28  1  0
 12 13  1  0
 13 14  1  0
 13 29  1  0
 14 15  2  0
 14 16  1  0
 16 21  1  0
 16 17  2  0
 17 18  1  0
 17 30  1  0
 18 19  2  0
 18 31  1  0
 19 20  1  0
 19 32  1  0
 20 21  2  0
 21 33  1  0
M  END
>  <i_m_ct_stereo_status>  (114) 
1

>  <s_m_source_file>  (114) 
/var/tmp/pbs.5076255.sched01/tmpar858yha/42b8svm9_t.sdf

>  <i_m_source_file_index>  (114) 
4

>  <i_lp_mmshare_version>  (114) 
48012

>  <i_f3d_flags>  (114) 
0

>  <s_epik_input>  (114) 
bjFbY0hdW2NIXVtjSF1jKGMxMiljKGMobzIpW0NIM10pL1tDSF09Ti9bTkhdQyg9TyljM1tjSF1bY0hdW2NIXW5bY0hdMw==

>  <s_epik_cmdline>  (114) 
J2VwaWtfcHl0aG9uJywgJy1waHQnLCAnMi4wJywgJy1waCcsICc3LjAnLCAnLXRuJywgJzgnLCAnLW1hJywgJzIwMCcsICctaW1hZScsICc8aW5maWxlLm1hZT4nLCAnLW9tYWUnLCAnPG91dGZpbGUubWFlPic=

>  <r_lp_tautomer_probability>  (114) 
1

>  <r_epik_Ionization_Penalty>  (114) 
0.00262734

>  <r_epik_Ionization_Penalty_Charging>  (114) 
0

>  <r_epik_Ionization_Penalty_Neutral>  (114) 
0.00262734

>  <r_epik_State_Penalty>  (114) 
-0

>  <r_epik_Charging_Adjusted_Penalty>  (114) 
0

>  <i_epik_Tot_Q>  (114) 
0

>  <i_epik_Tot_abs_Q>  (114) 
0

>  <s_epik_Chemistry_Notes>  (114) 
This compound has an imine and may undergo hydrolysis.

>  <s_lp_Force_Field>  (114) 
OPLS3e

>  <r_lp_Energy>  (114) 
44.1425

>  <b_lp_Chiralities_Consistent>  (114) 
1

>  <s_lp_Variant>  (114) 
31:0-2

>  <s_i_glide_gridfile>  (114) 
pfpi4k_grid

>  <i_i_glide_lignum>  (114) 
4

>  <i_i_glide_rotatable_bonds>  (114) 
4

>  <r_i_docking_score>  (114) 
-3.70612

>  <r_i_glide_ligand_efficiency>  (114) 
-0.176482

>  <r_i_glide_ligand_efficiency_sa>  (114) 
-0.4869

>  <r_i_glide_ligand_efficiency_ln>  (114) 
-0.916331

>  <r_i_glide_gscore>  (114) 
-3.70612

>  <r_i_glide_lipo>  (114) 
-0.309615

>  <r_i_glide_hbond>  (114) 
-0.16

>  <r_i_glide_metal>  (114) 
-0

>  <r_i_glide_rewards>  (114) 
-1.6585

>  <r_i_glide_evdw>  (114) 
-28.2834

>  <r_i_glide_ecoul>  (114) 
-5.44869

>  <r_i_glide_erotb>  (114) 
0.689585

>  <r_i_glide_esite>  (114) 
-0.0361158

>  <r_i_glide_emodel>  (114) 
-41.0757

>  <r_i_glide_energy>  (114) 
-33.7321

>  <r_i_glide_einternal>  (114) 
2.75911

>  <r_i_glide_intrahb_reward>  (114) 
-0

>  <i_i_glide_confnum>  (114) 
2

>  <i_i_glide_posenum>  (114) 
13

>  <r_i_glide_eff_state_penalty>  (114) 
0

>  <ligand_id>  (114) 
31

>  <original_smiles>  (114) 
Cc1oc2ncccc2c1C=NNC(=O)c1cccnc1

>  <smiles>  (114) 
[H]C(=NN([H])C(=O)c1c([H])nc([H])c([H])c1[H])c1c(C([H])([H])[H])oc2nc([H])c([H])c([H])c12

$$$$
31:1:2
     RDKit          3D

 33 35  0  0  1  0  0  0  0  0999 V2000
    2.9412   -3.1318    2.1564 C   0  0  0  0  0  0  0  0  0  0  0  0
    2.5400   -1.7079    2.3592 C   0  0  0  0  0  0  0  0  0  0  0  0
    1.2005   -1.4937    2.5419 O   0  0  0  0  0  0  0  0  0  0  0  0
    1.0102   -0.1346    2.7038 C   0  0  0  0  0  0  0  0  0  0  0  0
   -0.2116    0.4323    2.9166 N   0  0  0  0  0  0  0  0  0  0  0  0
   -0.1916    1.7754    3.0371 C   0  0  0  0  0  0  0  0  0  0  0  0
    0.9811    2.5557    2.9869 C   0  0  0  0  0  0  0  0  0  0  0  0
    2.2248    1.9275    2.7848 C   0  0  0  0  0  0  0  0  0  0  0  0
    2.2689    0.5207    2.6400 C   0  0  0  0  0  0  0  0  0  0  0  0
    3.2380   -0.5221    2.4305 C   0  0  0  0  0  0  0  0  0  0  0  0
    4.7018   -0.3358    2.3652 C   0  0  0  0  0  0  0  0  0  0  0  0
    5.4688   -0.7591    1.4200 N   0  0  0  0  0  0  0  0  0  0  0  0
    4.9011   -1.3299    0.3314 N   0  0  0  0  0  0  0  0  0  0  0  0
    5.5815   -1.8249   -0.7126 C   0  0  0  0  0  0  0  0  0  0  0  0
    6.8127   -1.8614   -0.7678 O   0  0  0  0  0  0  0  0  0  0  0  0
    4.7496   -2.3610   -1.8422 C   0  0  0  0  0  0  0  0  0  0  0  0
    5.2847   -3.2787   -2.7713 C   0  0  0  0  0  0  0  0  0  0  0  0
    4.4743   -3.7276   -3.8338 C   0  0  0  0  0  0  0  0  0  0  0  0
    3.1542   -3.2436   -3.9219 C   0  0  0  0  0  0  0  0  0  0  0  0
    2.6403   -2.3533   -3.0564 N   0  0  0  0  0  0  0  0  0  0  0  0
    3.4204   -1.9265   -2.0452 C   0  0  0  0  0  0  0  0  0  0  0  0
    4.0247   -3.2535    2.1361 H   0  0  0  0  0  0  0  0  0  0  0  0
    2.5369   -3.4955    1.2125 H   0  0  0  0  0  0  0  0  0  0  0  0
    2.5461   -3.7548    2.9561 H   0  0  0  0  0  0  0  0  0  0  0  0
   -1.1536    2.2480    3.1644 H   0  0  0  0  0  0  0  0  0  0  0  0
    0.9099    3.6341    3.0460 H   0  0  0  0  0  0  0  0  0  0  0  0
    3.1298    2.5167    2.7256 H   0  0  0  0  0  0  0  0  0  0  0  0
    5.1675    0.2019    3.1940 H   0  0  0  0  0  0  0  0  0  0  0  0
    3.8904   -1.3154    0.3261 H   0  0  0  0  0  0  0  0  0  0  0  0
    6.3001   -3.6383   -2.6788 H   0  0  0  0  0  0  0  0  0  0  0  0
    4.8430   -4.4480   -4.5486 H   0  0  0  0  0  0  0  0  0  0  0  0
    2.4839   -3.5673   -4.7056 H   0  0  0  0  0  0  0  0  0  0  0  0
    2.9712   -1.2058   -1.3827 H   0  0  0  0  0  0  0  0  0  0  0  0
  1  2  1  0
  1 22  1  0
  1 23  1  0
  1 24  1  0
  2 10  2  0
  2  3  1  0
  3  4  1  0
  4  9  2  0
  4  5  1  0
  5  6  2  0
  6  7  1  0
  6 25  1  0
  7  8  2  0
  7 26  1  0
  8  9  1  0
  8 27  1  0
  9 10  1  0
 10 11  1  0
 11 12  2  3
 11 28  1  0
 12 13  1  0
 13 14  1  0
 13 29  1  0
 14 15  2  0
 14 16  1  0
 16 21  1  0
 16 17  2  0
 17 18  1  0
 17 30  1  0
 18 19  2  0
 18 31  1  0
 19 20  1  0
 19 32  1  0
 20 21  2  0
 21 33  1  0
M  END
>  <i_m_ct_stereo_status>  (115) 
1

>  <s_m_source_file>  (115) 
/var/tmp/pbs.5076255.sched01/tmpar858yha/42b8svm9_t.sdf

>  <i_m_source_file_index>  (115) 
4

>  <i_lp_mmshare_version>  (115) 
48012

>  <i_f3d_flags>  (115) 
0

>  <s_epik_input>  (115) 
bjFbY0hdW2NIXVtjSF1jKGMxMiljKGMobzIpW0NIM10pL1tDSF09Ti9bTkhdQyg9TyljM1tjSF1bY0hdW2NIXW5bY0hdMw==

>  <s_epik_cmdline>  (115) 
J2VwaWtfcHl0aG9uJywgJy1waHQnLCAnMi4wJywgJy1waCcsICc3LjAnLCAnLXRuJywgJzgnLCAnLW1hJywgJzIwMCcsICctaW1hZScsICc8aW5maWxlLm1hZT4nLCAnLW9tYWUnLCAnPG91dGZpbGUubWFlPic=

>  <r_lp_tautomer_probability>  (115) 
1

>  <r_epik_Ionization_Penalty>  (115) 
0.00262734

>  <r_epik_Ionization_Penalty_Charging>  (115) 
0

>  <r_epik_Ionization_Penalty_Neutral>  (115) 
0.00262734

>  <r_epik_State_Penalty>  (115) 
-0

>  <r_epik_Charging_Adjusted_Penalty>  (115) 
0

>  <i_epik_Tot_Q>  (115) 
0

>  <i_epik_Tot_abs_Q>  (115) 
0

>  <s_epik_Chemistry_Notes>  (115) 
This compound has an imine and may undergo hydrolysis.

>  <s_lp_Force_Field>  (115) 
OPLS3e

>  <r_lp_Energy>  (115) 
44.1425

>  <b_lp_Chiralities_Consistent>  (115) 
1

>  <s_lp_Variant>  (115) 
31:0-2

>  <s_i_glide_gridfile>  (115) 
pfpi4k_grid

>  <i_i_glide_lignum>  (115) 
4

>  <i_i_glide_rotatable_bonds>  (115) 
4

>  <r_i_docking_score>  (115) 
-3.28694

>  <r_i_glide_ligand_efficiency>  (115) 
-0.156521

>  <r_i_glide_ligand_efficiency_sa>  (115) 
-0.43183

>  <r_i_glide_ligand_efficiency_ln>  (115) 
-0.81269

>  <r_i_glide_gscore>  (115) 
-3.28694

>  <r_i_glide_lipo>  (115) 
-0.338113

>  <r_i_glide_hbond>  (115) 
-0.16

>  <r_i_glide_metal>  (115) 
-0

>  <r_i_glide_rewards>  (115) 
-1.6458

>  <r_i_glide_evdw>  (115) 
-29.5413

>  <r_i_glide_ecoul>  (115) 
-2.12162

>  <r_i_glide_erotb>  (115) 
0.689585

>  <r_i_glide_esite>  (115) 
-0.037311

>  <r_i_glide_emodel>  (115) 
-38.3905

>  <r_i_glide_energy>  (115) 
-31.6629

>  <r_i_glide_einternal>  (115) 
2.02144

>  <r_i_glide_intrahb_reward>  (115) 
-0

>  <i_i_glide_confnum>  (115) 
2

>  <i_i_glide_posenum>  (115) 
31

>  <r_i_glide_eff_state_penalty>  (115) 
0

>  <ligand_id>  (115) 
31

>  <original_smiles>  (115) 
Cc1oc2ncccc2c1C=NNC(=O)c1cccnc1

>  <smiles>  (115) 
[H]C(=NN([H])C(=O)c1c([H])nc([H])c([H])c1[H])c1c(C([H])([H])[H])oc2nc([H])c([H])c([H])c12

$$$$
32:0:0
     RDKit          3D

 35 40  0  0  1  0  0  0  0  0999 V2000
    3.9491   -2.3484    5.0093 C   0  0  0  0  0  0  0  0  0  0  0  0
    3.9366   -3.6679    4.7001 C   0  0  0  0  0  0  0  0  0  0  0  0
    4.2352   -4.1279    3.5112 C   0  0  0  0  0  0  0  0  0  0  0  0
    4.4694   -3.5719    2.3422 C   0  0  0  0  0  0  0  0  0  0  0  0
    5.1561   -4.7274    2.0314 C   0  0  0  0  0  0  0  0  0  0  0  0
    4.6775   -5.4252    2.9681 N   0  0  0  0  0  0  0  0  0  0  0  0
    6.1832   -4.8414    0.7839 C   0  0  2  0  0  0  0  0  0  0  0  0
    7.3848   -3.7667    0.2730 C   0  0  0  0  0  0  0  0  0  0  0  0
    6.8697   -2.1629    0.0899 C   0  0  2  0  0  0  0  0  0  0  0  0
    5.9096   -2.6377    1.0060 C   0  0  2  0  0  0  0  0  0  0  0  0
    5.4717   -3.8546    0.0963 C   0  0  0  0  0  0  0  0  0  0  0  0
    5.0969   -3.8425   -1.1992 C   0  0  0  0  0  0  0  0  0  0  0  0
    5.3563   -2.5304   -1.8876 C   0  0  0  0  0  0  0  0  0  0  0  0
    5.9489   -1.5547   -0.9583 N   0  0  0  0  0  0  0  0  0  0  0  0
    4.8231   -0.7632   -0.3744 C   0  0  0  0  0  0  0  0  0  0  0  0
    3.8529   -1.5578    0.6040 C   0  0  0  0  0  0  0  0  0  0  0  0
    4.6896   -2.1795    1.7591 C   0  0  1  0  0  0  0  0  0  0  0  0
    4.8907   -1.1790    2.8861 C   0  0  0  0  0  0  0  0  0  0  0  0
    4.5547   -1.2661    4.2048 C   0  0  0  0  0  0  0  0  0  0  0  0
    3.6945   -2.1086    6.0394 H   0  0  0  0  0  0  0  0  0  0  0  0
    3.7060   -4.3739    5.4771 H   0  0  0  0  0  0  0  0  0  0  0  0
    6.1711   -5.8166    0.2923 H   0  0  0  0  0  0  0  0  0  0  0  0
    8.2331   -3.7941    0.9692 H   0  0  0  0  0  0  0  0  0  0  0  0
    7.8173   -4.0841   -0.6794 H   0  0  0  0  0  0  0  0  0  0  0  0
    7.5222   -1.4264    0.5491 H   0  0  0  0  0  0  0  0  0  0  0  0
    6.5237   -2.7476    1.9183 H   0  0  0  0  0  0  0  0  0  0  0  0
    5.0476   -4.7528   -1.8011 H   0  0  0  0  0  0  0  0  0  0  0  0
    6.0977   -2.7192   -2.6555 H   0  0  0  0  0  0  0  0  0  0  0  0
    4.4649   -2.1626   -2.3926 H   0  0  0  0  0  0  0  0  0  0  0  0
    5.2534    0.0604    0.1831 H   0  0  0  0  0  0  0  0  0  0  0  0
    4.2402   -0.3205   -1.1708 H   0  0  0  0  0  0  0  0  0  0  0  0
    3.1006   -0.8718    1.0231 H   0  0  0  0  0  0  0  0  0  0  0  0
    3.2796   -2.3120    0.0627 H   0  0  0  0  0  0  0  0  0  0  0  0
    5.3663   -0.2635    2.5659 H   0  0  0  0  0  0  0  0  0  0  0  0
    4.8653   -0.4188    4.7981 H   0  0  0  0  0  0  0  0  0  0  0  0
  1 19  1  0
  1  2  2  0
  1 20  1  0
  2  3  1  0
  2 21  1  0
  3  6  1  0
  3  4  2  0
  4 17  1  0
  4  5  1  0
  5  6  2  0
  5  7  1  0
  7 11  1  0
  7  8  1  0
  7 22  1  6
  8  9  1  0
  8 23  1  0
  8 24  1  0
  9 14  1  0
  9 10  1  0
  9 25  1  1
 10 17  1  0
 10 11  1  0
 10 26  1  1
 11 12  2  0
 12 13  1  0
 12 27  1  0
 13 14  1  0
 13 28  1  0
 13 29  1  0
 14 15  1  0
 15 16  1  0
 15 30  1  0
 15 31  1  0
 17 16  1  6
 16 32  1  0
 16 33  1  0
 17 18  1  0
 18 19  2  0
 18 34  1  0
 19 35  1  0
M  END
>  <i_m_ct_stereo_status>  (116) 
1

>  <s_m_source_file>  (116) 
/var/tmp/pbs.5076255.sched01/tmpar858yha/42b8svm9_t.sdf

>  <i_m_source_file_index>  (116) 
5

>  <i_lp_mmshare_version>  (116) 
48012

>  <i_f3d_flags>  (116) 
0

>  <s_epik_input>  (116) 
W0NIXTE9W0NIXVtDSF09W0NIXUMoPUMyW0NAQF0xMzQpTj1DMltDQEhdNUM9NltDQEhdM1tDQEBIXShbQ0gyXTUpTihbQ0gyXVtDSF02KVtDSDJdW0NIMl00

>  <s_epik_cmdline>  (116) 
J2VwaWtfcHl0aG9uJywgJy1waHQnLCAnMi4wJywgJy1waCcsICc3LjAnLCAnLXRuJywgJzgnLCAnLW1hJywgJzIwMCcsICctaW1hZScsICc8aW5maWxlLm1hZT4nLCAnLW9tYWUnLCAnPG91dGZpbGUubWFlPic=

>  <r_epik_Ionization_Penalty>  (116) 
0.0608771

>  <r_epik_Ionization_Penalty_Charging>  (116) 
0

>  <r_epik_Ionization_Penalty_Neutral>  (116) 
0.0608771

>  <r_epik_State_Penalty>  (116) 
0.0528054

>  <r_epik_Charging_Adjusted_Penalty>  (116) 
0.0528054

>  <i_epik_Tot_Q>  (116) 
0

>  <i_epik_Tot_abs_Q>  (116) 
0

>  <s_epik_Chemistry_Notes>  (116) 
This compound has an imine and may undergo hydrolysis.

>  <s_lp_Force_Field>  (116) 
OPLS3e

>  <r_lp_Energy>  (116) 
237.639

>  <b_lp_Chiralities_Consistent>  (116) 
1

>  <s_lp_Variant>  (116) 
32:0-1

>  <s_i_glide_gridfile>  (116) 
pfpi4k_grid

>  <i_i_glide_lignum>  (116) 
5

>  <i_i_glide_rotatable_bonds>  (116) 
0

>  <r_i_docking_score>  (116) 
-3.6895

>  <r_i_glide_ligand_efficiency>  (116) 
-0.194184

>  <r_i_glide_ligand_efficiency_sa>  (116) 
-0.518161

>  <r_i_glide_ligand_efficiency_ln>  (116) 
-0.935367

>  <r_i_glide_gscore>  (116) 
-3.6895

>  <r_i_glide_lipo>  (116) 
-0.584532

>  <r_i_glide_hbond>  (116) 
-0.077001

>  <r_i_glide_metal>  (116) 
-0

>  <r_i_glide_rewards>  (116) 
-1.75079

>  <r_i_glide_evdw>  (116) 
-18.8459

>  <r_i_glide_ecoul>  (116) 
-2.23252

>  <r_i_glide_erotb>  (116) 
0

>  <r_i_glide_esite>  (116) 
0

>  <r_i_glide_emodel>  (116) 
-25.9029

>  <r_i_glide_energy>  (116) 
-21.0784

>  <r_i_glide_einternal>  (116) 
0

>  <r_i_glide_intrahb_reward>  (116) 
-0

>  <i_i_glide_confnum>  (116) 
1

>  <i_i_glide_posenum>  (116) 
2

>  <r_i_glide_eff_state_penalty>  (116) 
0

>  <ligand_id>  (116) 
32

>  <original_smiles>  (116) 
C1=CC2=C3C(=N2)C2CC4C5C2=CCN4CCC35C=C1

>  <smiles>  (116) 
[H]C1=C([H])C2=C3C(=N2)C2([H])C4=C([H])C([H])([H])N5C([H])([H])C([H])([H])C3(C([H])=C1[H])C4([H])C5([H])C2([H])[H]

$$$$
32:0:1
     RDKit          3D

 35 40  0  0  1  0  0  0  0  0999 V2000
    3.2676   -2.0123   -3.1606 C   0  0  0  0  0  0  0  0  0  0  0  0
    4.5218   -1.6337   -2.8710 C   0  0  0  0  0  0  0  0  0  0  0  0
    5.1631   -1.9805   -1.7360 C   0  0  0  0  0  0  0  0  0  0  0  0
    4.7526   -2.5125   -0.6268 C   0  0  0  0  0  0  0  0  0  0  0  0
    6.0605   -2.9370   -0.4337 C   0  0  0  0  0  0  0  0  0  0  0  0
    6.5498   -2.1995   -1.3604 N   0  0  0  0  0  0  0  0  0  0  0  0
    6.5010   -4.0617    0.6357 C   0  0  2  0  0  0  0  0  0  0  0  0
    5.8043   -5.5626    0.9884 C   0  0  0  0  0  0  0  0  0  0  0  0
    4.1323   -5.5236    1.2647 C   0  0  2  0  0  0  0  0  0  0  0  0
    4.2813   -4.3512    0.4899 C   0  0  2  0  0  0  0  0  0  0  0  0
    5.3929   -3.7526    1.4423 C   0  0  0  0  0  0  0  0  0  0  0  0
    5.3363   -3.5775    2.7740 C   0  0  0  0  0  0  0  0  0  0  0  0
    4.1906   -4.2789    3.4505 C   0  0  0  0  0  0  0  0  0  0  0  0
    3.3585   -4.9720    2.4555 N   0  0  0  0  0  0  0  0  0  0  0  0
    2.2655   -4.0292    2.0645 C   0  0  0  0  0  0  0  0  0  0  0  0
    2.7136   -2.7532    1.2368 C   0  0  0  0  0  0  0  0  0  0  0  0
    3.4792   -3.2002   -0.0445 C   0  0  1  0  0  0  0  0  0  0  0  0
    2.5227   -3.4963   -1.1922 C   0  0  0  0  0  0  0  0  0  0  0  0
    2.4494   -3.0000   -2.4479 C   0  0  0  0  0  0  0  0  0  0  0  0
    2.8956   -1.7113   -4.1330 H   0  0  0  0  0  0  0  0  0  0  0  0
    5.0516   -1.0703   -3.6174 H   0  0  0  0  0  0  0  0  0  0  0  0
    7.4629   -3.8740    1.1232 H   0  0  0  0  0  0  0  0  0  0  0  0
    6.0198   -6.2526    0.1678 H   0  0  0  0  0  0  0  0  0  0  0  0
    6.2937   -6.0256    1.8478 H   0  0  0  0  0  0  0  0  0  0  0  0
    3.5826   -6.3057    0.7490 H   0  0  0  0  0  0  0  0  0  0  0  0
    4.5075   -4.7892   -0.5111 H   0  0  0  0  0  0  0  0  0  0  0  0
    6.2123   -3.3526    3.3604 H   0  0  0  0  0  0  0  0  0  0  0  0
    4.6163   -5.0462    4.0919 H   0  0  0  0  0  0  0  0  0  0  0  0
    3.6328   -3.6102    4.0988 H   0  0  0  0  0  0  0  0  0  0  0  0
    1.5612   -4.6103    1.4793 H   0  0  0  0  0  0  0  0  0  0  0  0
    1.7146   -3.7093    2.9404 H   0  0  0  0  0  0  0  0  0  0  0  0
    1.8434   -2.1700    0.9389 H   0  0  0  0  0  0  0  0  0  0  0  0
    3.3090   -2.0766    1.8509 H   0  0  0  0  0  0  0  0  0  0  0  0
    1.7883   -4.2270   -0.9279 H   0  0  0  0  0  0  0  0  0  0  0  0
    1.6734   -3.4342   -3.0422 H   0  0  0  0  0  0  0  0  0  0  0  0
  1 19  1  0
  1  2  2  0
  1 20  1  0
  2  3  1  0
  2 21  1  0
  3  6  1  0
  3  4  2  0
  4 17  1  0
  4  5  1  0
  5  6  2  0
  5  7  1  0
  7 11  1  0
  7  8  1  0
  7 22  1  1
  8  9  1  0
  8 23  1  0
  8 24  1  0
  9 14  1  0
  9 10  1  0
  9 25  1  6
 10 17  1  0
 10 11  1  0
 10 26  1  6
 11 12  2  0
 12 13  1  0
 12 27  1  0
 13 14  1  0
 13 28  1  0
 13 29  1  0
 14 15  1  0
 15 16  1  0
 15 30  1  0
 15 31  1  0
 17 16  1  1
 16 32  1  0
 16 33  1  0
 17 18  1  0
 18 19  2  0
 18 34  1  0
 19 35  1  0
M  END
>  <i_m_ct_stereo_status>  (117) 
1

>  <s_m_source_file>  (117) 
/var/tmp/pbs.5076255.sched01/tmpar858yha/42b8svm9_t.sdf

>  <i_m_source_file_index>  (117) 
5

>  <i_lp_mmshare_version>  (117) 
48012

>  <i_f3d_flags>  (117) 
0

>  <s_epik_input>  (117) 
W0NIXTE9W0NIXVtDSF09W0NIXUMoPUMyW0NAQF0xMzQpTj1DMltDQEhdNUM9NltDQEhdM1tDQEBIXShbQ0gyXTUpTihbQ0gyXVtDSF02KVtDSDJdW0NIMl00

>  <s_epik_cmdline>  (117) 
J2VwaWtfcHl0aG9uJywgJy1waHQnLCAnMi4wJywgJy1waCcsICc3LjAnLCAnLXRuJywgJzgnLCAnLW1hJywgJzIwMCcsICctaW1hZScsICc8aW5maWxlLm1hZT4nLCAnLW9tYWUnLCAnPG91dGZpbGUubWFlPic=

>  <r_epik_Ionization_Penalty>  (117) 
0.0608771

>  <r_epik_Ionization_Penalty_Charging>  (117) 
0

>  <r_epik_Ionization_Penalty_Neutral>  (117) 
0.0608771

>  <r_epik_State_Penalty>  (117) 
0.0528054

>  <r_epik_Charging_Adjusted_Penalty>  (117) 
0.0528054

>  <i_epik_Tot_Q>  (117) 
0

>  <i_epik_Tot_abs_Q>  (117) 
0

>  <s_epik_Chemistry_Notes>  (117) 
This compound has an imine and may undergo hydrolysis.

>  <s_lp_Force_Field>  (117) 
OPLS3e

>  <r_lp_Energy>  (117) 
237.639

>  <b_lp_Chiralities_Consistent>  (117) 
1

>  <s_lp_Variant>  (117) 
32:0-1

>  <s_i_glide_gridfile>  (117) 
pfpi4k_grid

>  <i_i_glide_lignum>  (117) 
5

>  <i_i_glide_rotatable_bonds>  (117) 
0

>  <r_i_docking_score>  (117) 
-3.45486

>  <r_i_glide_ligand_efficiency>  (117) 
-0.181835

>  <r_i_glide_ligand_efficiency_sa>  (117) 
-0.485208

>  <r_i_glide_ligand_efficiency_ln>  (117) 
-0.875881

>  <r_i_glide_gscore>  (117) 
-3.45486

>  <r_i_glide_lipo>  (117) 
-0.450807

>  <r_i_glide_hbond>  (117) 
-0.16

>  <r_i_glide_metal>  (117) 
-0

>  <r_i_glide_rewards>  (117) 
-1.75258

>  <r_i_glide_evdw>  (117) 
-19.1731

>  <r_i_glide_ecoul>  (117) 
-0.885432

>  <r_i_glide_erotb>  (117) 
0

>  <r_i_glide_esite>  (117) 
0

>  <r_i_glide_emodel>  (117) 
-24.5968

>  <r_i_glide_energy>  (117) 
-20.0586

>  <r_i_glide_einternal>  (117) 
0

>  <r_i_glide_intrahb_reward>  (117) 
-0

>  <i_i_glide_confnum>  (117) 
2

>  <i_i_glide_posenum>  (117) 
8

>  <r_i_glide_eff_state_penalty>  (117) 
0

>  <ligand_id>  (117) 
32

>  <original_smiles>  (117) 
C1=CC2=C3C(=N2)C2CC4C5C2=CCN4CCC35C=C1

>  <smiles>  (117) 
[H]C1=C([H])C2=C3C(=N2)C2([H])C4=C([H])C([H])([H])N5C([H])([H])C([H])([H])C3(C([H])=C1[H])C4([H])C5([H])C2([H])[H]

$$$$
32:0:2
     RDKit          3D

 35 40  0  0  1  0  0  0  0  0999 V2000
    4.1801   -1.2338   -2.7419 C   0  0  0  0  0  0  0  0  0  0  0  0
    5.1618   -0.8225   -1.9268 C   0  0  0  0  0  0  0  0  0  0  0  0
    5.5165   -1.4185   -0.7862 C   0  0  0  0  0  0  0  0  0  0  0  0
    4.9592   -2.3544   -0.0745 C   0  0  0  0  0  0  0  0  0  0  0  0
    6.2154   -2.5870    0.4468 C   0  0  0  0  0  0  0  0  0  0  0  0
    6.7178   -1.5004    0.0405 N   0  0  0  0  0  0  0  0  0  0  0  0
    6.6203   -3.9435    1.2376 C   0  0  2  0  0  0  0  0  0  0  0  0
    6.2613   -5.5602    0.9021 C   0  0  0  0  0  0  0  0  0  0  0  0
    4.6343   -5.8727    0.5585 C   0  0  2  0  0  0  0  0  0  0  0  0
    4.6969   -4.4999    0.2484 C   0  0  2  0  0  0  0  0  0  0  0  0
    5.2944   -4.1019    1.6562 C   0  0  0  0  0  0  0  0  0  0  0  0
    4.8200   -4.4081    2.8803 C   0  0  0  0  0  0  0  0  0  0  0  0
    3.7390   -5.4572    2.8760 C   0  0  0  0  0  0  0  0  0  0  0  0
    3.4378   -5.8861    1.4988 N   0  0  0  0  0  0  0  0  0  0  0  0
    2.3037   -5.0425    1.0068 C   0  0  0  0  0  0  0  0  0  0  0  0
    2.6452   -3.5080    0.7882 C   0  0  0  0  0  0  0  0  0  0  0  0
    3.8163   -3.3787   -0.2065 C   0  0  1  0  0  0  0  0  0  0  0  0
    3.3285   -3.3991   -1.6496 C   0  0  0  0  0  0  0  0  0  0  0  0
    3.4724   -2.5086   -2.6623 C   0  0  0  0  0  0  0  0  0  0  0  0
    4.0694   -0.6633   -3.6514 H   0  0  0  0  0  0  0  0  0  0  0  0
    5.7441    0.0202   -2.2775 H   0  0  0  0  0  0  0  0  0  0  0  0
    7.3175   -3.8058    2.0614 H   0  0  0  0  0  0  0  0  0  0  0  0
    6.8856   -5.8968    0.0747 H   0  0  0  0  0  0  0  0  0  0  0  0
    6.5776   -6.2083    1.7216 H   0  0  0  0  0  0  0  0  0  0  0  0
    4.4712   -6.4967   -0.3155 H   0  0  0  0  0  0  0  0  0  0  0  0
    5.3047   -4.5244   -0.6849 H   0  0  0  0  0  0  0  0  0  0  0  0
    5.4106   -4.2784    3.7788 H   0  0  0  0  0  0  0  0  0  0  0  0
    4.1402   -6.3273    3.3898 H   0  0  0  0  0  0  0  0  0  0  0  0
    2.8633   -5.1433    3.4392 H   0  0  0  0  0  0  0  0  0  0  0  0
    1.9560   -5.4673    0.0691 H   0  0  0  0  0  0  0  0  0  0  0  0
    1.4710   -5.1290    1.6941 H   0  0  0  0  0  0  0  0  0  0  0  0
    1.8115   -2.9623    0.3509 H   0  0  0  0  0  0  0  0  0  0  0  0
    2.8362   -3.0032    1.7381 H   0  0  0  0  0  0  0  0  0  0  0  0
    2.7454   -4.2642   -1.8612 H   0  0  0  0  0  0  0  0  0  0  0  0
    3.0460   -2.8214   -3.5958 H   0  0  0  0  0  0  0  0  0  0  0  0
  1 19  1  0
  1  2  2  0
  1 20  1  0
  2  3  1  0
  2 21  1  0
  3  6  1  0
  3  4  2  0
  4 17  1  0
  4  5  1  0
  5  6  2  0
  5  7  1  0
  7 11  1  0
  7  8  1  0
  7 22  1  1
  8  9  1  0
  8 23  1  0
  8 24  1  0
  9 14  1  0
  9 10  1  0
  9 25  1  6
 10 17  1  0
 10 11  1  0
 10 26  1  6
 11 12  2  0
 12 13  1  0
 12 27  1  0
 13 14  1  0
 13 28  1  0
 13 29  1  0
 14 15  1  0
 15 16  1  0
 15 30  1  0
 15 31  1  0
 17 16  1  1
 16 32  1  0
 16 33  1  0
 17 18  1  0
 18 19  2  0
 18 34  1  0
 19 35  1  0
M  END
>  <i_m_ct_stereo_status>  (118) 
1

>  <s_m_source_file>  (118) 
/var/tmp/pbs.5076255.sched01/tmpar858yha/42b8svm9_t.sdf

>  <i_m_source_file_index>  (118) 
5

>  <i_lp_mmshare_version>  (118) 
48012

>  <i_f3d_flags>  (118) 
0

>  <s_epik_input>  (118) 
W0NIXTE9W0NIXVtDSF09W0NIXUMoPUMyW0NAQF0xMzQpTj1DMltDQEhdNUM9NltDQEhdM1tDQEBIXShbQ0gyXTUpTihbQ0gyXVtDSF02KVtDSDJdW0NIMl00

>  <s_epik_cmdline>  (118) 
J2VwaWtfcHl0aG9uJywgJy1waHQnLCAnMi4wJywgJy1waCcsICc3LjAnLCAnLXRuJywgJzgnLCAnLW1hJywgJzIwMCcsICctaW1hZScsICc8aW5maWxlLm1hZT4nLCAnLW9tYWUnLCAnPG91dGZpbGUubWFlPic=

>  <r_epik_Ionization_Penalty>  (118) 
0.0608771

>  <r_epik_Ionization_Penalty_Charging>  (118) 
0

>  <r_epik_Ionization_Penalty_Neutral>  (118) 
0.0608771

>  <r_epik_State_Penalty>  (118) 
0.0528054

>  <r_epik_Charging_Adjusted_Penalty>  (118) 
0.0528054

>  <i_epik_Tot_Q>  (118) 
0

>  <i_epik_Tot_abs_Q>  (118) 
0

>  <s_epik_Chemistry_Notes>  (118) 
This compound has an imine and may undergo hydrolysis.

>  <s_lp_Force_Field>  (118) 
OPLS3e

>  <r_lp_Energy>  (118) 
237.639

>  <b_lp_Chiralities_Consistent>  (118) 
1

>  <s_lp_Variant>  (118) 
32:0-1

>  <s_i_glide_gridfile>  (118) 
pfpi4k_grid

>  <i_i_glide_lignum>  (118) 
5

>  <i_i_glide_rotatable_bonds>  (118) 
0

>  <r_i_docking_score>  (118) 
-3.31402

>  <r_i_glide_ligand_efficiency>  (118) 
-0.174422

>  <r_i_glide_ligand_efficiency_sa>  (118) 
-0.465428

>  <r_i_glide_ligand_efficiency_ln>  (118) 
-0.840176

>  <r_i_glide_gscore>  (118) 
-3.31402

>  <r_i_glide_lipo>  (118) 
-0.487577

>  <r_i_glide_hbond>  (118) 
-0.063398

>  <r_i_glide_metal>  (118) 
-0

>  <r_i_glide_rewards>  (118) 
-1.81436

>  <r_i_glide_evdw>  (118) 
-17.2026

>  <r_i_glide_ecoul>  (118) 
-0.590343

>  <r_i_glide_erotb>  (118) 
0

>  <r_i_glide_esite>  (118) 
0

>  <r_i_glide_emodel>  (118) 
-22.1267

>  <r_i_glide_energy>  (118) 
-17.793

>  <r_i_glide_einternal>  (118) 
0

>  <r_i_glide_intrahb_reward>  (118) 
-0

>  <i_i_glide_confnum>  (118) 
1

>  <i_i_glide_posenum>  (118) 
1

>  <r_i_glide_eff_state_penalty>  (118) 
0

>  <ligand_id>  (118) 
32

>  <original_smiles>  (118) 
C1=CC2=C3C(=N2)C2CC4C5C2=CCN4CCC35C=C1

>  <smiles>  (118) 
[H]C1=C([H])C2=C3C(=N2)C2([H])C4=C([H])C([H])([H])N5C([H])([H])C([H])([H])C3(C([H])=C1[H])C4([H])C5([H])C2([H])[H]

$$$$
32:1:0
     RDKit          3D

 36 41  0  0  1  0  0  0  0  0999 V2000
    6.7346   -5.9431    3.3744 C   0  0  0  0  0  0  0  0  0  0  0  0
    7.7204   -5.7930    2.4715 C   0  0  0  0  0  0  0  0  0  0  0  0
    7.5565   -5.1260    1.3047 C   0  0  0  0  0  0  0  0  0  0  0  0
    6.5232   -4.6474    0.7009 C   0  0  0  0  0  0  0  0  0  0  0  0
    7.3642   -3.7896    0.0680 C   0  0  0  0  0  0  0  0  0  0  0  0
    8.4442   -4.3826    0.3857 N   0  0  0  0  0  0  0  0  0  0  0  0
    6.8651   -2.4787   -0.7660 C   0  0  2  0  0  0  0  0  0  0  0  0
    5.6967   -1.3180   -0.3623 C   0  0  0  0  0  0  0  0  0  0  0  0
    4.1994   -1.9377    0.1498 C   0  0  2  0  0  0  0  0  0  0  0  0
    5.0573   -3.0223    0.4456 C   0  0  2  0  0  0  0  0  0  0  0  0
    5.6296   -3.0871   -1.0349 C   0  0  0  0  0  0  0  0  0  0  0  0
    4.9809   -3.1381   -2.2198 C   0  0  0  0  0  0  0  0  0  0  0  0
    3.4967   -2.8757   -2.1379 C   0  0  0  0  0  0  0  0  0  0  0  0
    3.1293   -2.6596   -0.7043 N   0  0  1  0  0  0  0  0  0  0  0  0
    2.6861   -3.9774   -0.0945 C   0  0  0  0  0  0  0  0  0  0  0  0
    3.8606   -5.0401    0.0838 C   0  0  0  0  0  0  0  0  0  0  0  0
    4.9883   -4.4370    0.9594 C   0  0  1  0  0  0  0  0  0  0  0  0
    4.6971   -4.6350    2.4372 C   0  0  0  0  0  0  0  0  0  0  0  0
    5.4159   -5.2739    3.3951 C   0  0  0  0  0  0  0  0  0  0  0  0
    7.0222   -6.4637    4.2850 H   0  0  0  0  0  0  0  0  0  0  0  0
    8.7099   -6.1510    2.7106 H   0  0  0  0  0  0  0  0  0  0  0  0
    7.4536   -2.2778   -1.6549 H   0  0  0  0  0  0  0  0  0  0  0  0
    6.0912   -0.6680    0.4312 H   0  0  0  0  0  0  0  0  0  0  0  0
    5.5133   -0.6250   -1.1929 H   0  0  0  0  0  0  0  0  0  0  0  0
    3.7865   -1.4800    1.0463 H   0  0  0  0  0  0  0  0  0  0  0  0
    5.6259   -2.6300    1.3196 H   0  0  0  0  0  0  0  0  0  0  0  0
    5.4825   -2.9432   -3.1673 H   0  0  0  0  0  0  0  0  0  0  0  0
    3.2666   -1.9645   -2.6878 H   0  0  0  0  0  0  0  0  0  0  0  0
    2.9373   -3.6870   -2.5968 H   0  0  0  0  0  0  0  0  0  0  0  0
    2.2546   -3.7651    0.8821 H   0  0  0  0  0  0  0  0  0  0  0  0
    1.8895   -4.4145   -0.6968 H   0  0  0  0  0  0  0  0  0  0  0  0
    3.4764   -5.9542    0.5421 H   0  0  0  0  0  0  0  0  0  0  0  0
    4.2416   -5.3584   -0.8889 H   0  0  0  0  0  0  0  0  0  0  0  0
    3.7578   -4.2049    2.7440 H   0  0  0  0  0  0  0  0  0  0  0  0
    4.9858   -5.2186    4.3759 H   0  0  0  0  0  0  0  0  0  0  0  0
    2.3149   -2.0442   -0.7203 H   0  0  0  0  0  0  0  0  0  0  0  0
  1 19  1  0
  1  2  2  0
  1 20  1  0
  2  3  1  0
  2 21  1  0
  3  6  1  0
  3  4  2  0
  4 17  1  0
  4  5  1  0
  5  6  2  0
  5  7  1  0
  7 11  1  0
  7  8  1  0
  7 22  1  6
  8  9  1  0
  8 23  1  0
  8 24  1  0
  9 14  1  0
  9 10  1  0
  9 25  1  1
 10 17  1  0
 10 11  1  0
 10 26  1  1
 11 12  2  0
 12 13  1  0
 12 27  1  0
 13 14  1  0
 13 28  1  0
 13 29  1  0
 14 15  1  0
 14 36  1  6
 15 16  1  0
 15 30  1  0
 15 31  1  0
 17 16  1  6
 16 32  1  0
 16 33  1  0
 17 18  1  0
 18 19  2  0
 18 34  1  0
 19 35  1  0
M  CHG  1  14   1
M  END
>  <i_m_ct_stereo_status>  (119) 
1

>  <s_m_source_file>  (119) 
/var/tmp/pbs.5076255.sched01/tmpar858yha/42b8svm9_t.sdf

>  <i_m_source_file_index>  (119) 
6

>  <i_lp_mmshare_version>  (119) 
48012

>  <i_f3d_flags>  (119) 
0

>  <s_epik_input>  (119) 
W0NIXTE9W0NIXVtDSF09W0NIXUMoPUMyW0NAQF0xMzQpTj1DMltDQEhdNUM9NltDQEhdM1tDQEBIXShbQ0gyXTUpTihbQ0gyXVtDSF02KVtDSDJdW0NIMl00

>  <s_epik_cmdline>  (119) 
J2VwaWtfcHl0aG9uJywgJy1waHQnLCAnMi4wJywgJy1waCcsICc3LjAnLCAnLXRuJywgJzgnLCAnLW1hJywgJzIwMCcsICctaW1hZScsICc8aW5maWxlLm1hZT4nLCAnLW9tYWUnLCAnPG91dGZpbGUubWFlPic=

>  <r_epik_Ionization_Penalty>  (119) 
1.37836

>  <r_epik_Ionization_Penalty_Charging>  (119) 
1.37836

>  <r_epik_Ionization_Penalty_Neutral>  (119) 
0

>  <r_epik_State_Penalty>  (119) 
1.45867

>  <r_epik_Charging_Adjusted_Penalty>  (119) 
2.83703

>  <i_epik_Tot_Q>  (119) 
1

>  <i_epik_Tot_abs_Q>  (119) 
1

>  <s_epik_Chemistry_Notes>  (119) 
This compound has an imine and may undergo hydrolysis.

>  <s_lp_Force_Field>  (119) 
OPLS3e

>  <r_lp_Energy>  (119) 
241.052

>  <b_lp_Chiralities_Consistent>  (119) 
1

>  <s_lp_Variant>  (119) 
32:0-2

>  <s_i_glide_gridfile>  (119) 
pfpi4k_grid

>  <i_i_glide_lignum>  (119) 
6

>  <i_i_glide_rotatable_bonds>  (119) 
0

>  <r_i_docking_score>  (119) 
-4.52884

>  <r_i_glide_ligand_efficiency>  (119) 
-0.23836

>  <r_i_glide_ligand_efficiency_sa>  (119) 
-0.636041

>  <r_i_glide_ligand_efficiency_ln>  (119) 
-1.14816

>  <r_i_glide_gscore>  (119) 
-4.52884

>  <r_i_glide_lipo>  (119) 
-0.477815

>  <r_i_glide_hbond>  (119) 
-0.2

>  <r_i_glide_metal>  (119) 
-0

>  <r_i_glide_rewards>  (119) 
-1.90577

>  <r_i_glide_evdw>  (119) 
-21.9408

>  <r_i_glide_ecoul>  (119) 
-5.33299

>  <r_i_glide_erotb>  (119) 
0

>  <r_i_glide_esite>  (119) 
-0.048271

>  <r_i_glide_emodel>  (119) 
-35.7326

>  <r_i_glide_energy>  (119) 
-27.2738

>  <r_i_glide_einternal>  (119) 
0

>  <r_i_glide_intrahb_reward>  (119) 
-0

>  <i_i_glide_confnum>  (119) 
2

>  <i_i_glide_posenum>  (119) 
1

>  <r_i_glide_eff_state_penalty>  (119) 
0

>  <ligand_id>  (119) 
32

>  <original_smiles>  (119) 
C1=CC2=C3C(=N2)C2CC4C5C2=CCN4CCC35C=C1

>  <smiles>  (119) 
[H]C1=C([H])C2=C3C(=N2)C2([H])C4=C([H])C([H])([H])[N+]5([H])C([H])([H])C([H])([H])C3(C([H])=C1[H])C4([H])C5([H])C2([H])[H]

$$$$
32:1:1
     RDKit          3D

 36 41  0  0  1  0  0  0  0  0999 V2000
    2.7641   -2.3800   -2.9853 C   0  0  0  0  0  0  0  0  0  0  0  0
    3.9651   -1.8017   -2.8303 C   0  0  0  0  0  0  0  0  0  0  0  0
    4.6944   -1.8955   -1.6991 C   0  0  0  0  0  0  0  0  0  0  0  0
    4.4044   -2.3222   -0.5110 C   0  0  0  0  0  0  0  0  0  0  0  0
    5.7823   -2.4904   -0.3412 C   0  0  0  0  0  0  0  0  0  0  0  0
    6.0947   -1.8160   -1.3604 N   0  0  0  0  0  0  0  0  0  0  0  0
    6.4394   -3.3523    0.8350 C   0  0  2  0  0  0  0  0  0  0  0  0
    6.0236   -4.8748    1.4386 C   0  0  0  0  0  0  0  0  0  0  0  0
    4.3755   -5.0678    1.8005 C   0  0  2  0  0  0  0  0  0  0  0  0
    4.3062   -4.0275    0.8588 C   0  0  2  0  0  0  0  0  0  0  0  0
    5.3387   -3.1200    1.6571 C   0  0  0  0  0  0  0  0  0  0  0  0
    5.3319   -2.7473    2.9511 C   0  0  0  0  0  0  0  0  0  0  0  0
    4.3567   -3.4920    3.8181 C   0  0  0  0  0  0  0  0  0  0  0  0
    3.5877   -4.4359    2.9632 N   0  0  1  0  0  0  0  0  0  0  0  0
    2.3128   -3.7597    2.5057 C   0  0  0  0  0  0  0  0  0  0  0  0
    2.5460   -2.5692    1.4853 C   0  0  0  0  0  0  0  0  0  0  0  0
    3.3039   -3.1049    0.2392 C   0  0  1  0  0  0  0  0  0  0  0  0
    2.3656   -3.7036   -0.7879 C   0  0  0  0  0  0  0  0  0  0  0  0
    2.1524   -3.3706   -2.0907 C   0  0  0  0  0  0  0  0  0  0  0  0
    2.3085   -2.2588   -3.9551 H   0  0  0  0  0  0  0  0  0  0  0  0
    4.4089   -1.2807   -3.6716 H   0  0  0  0  0  0  0  0  0  0  0  0
    7.3775   -2.9404    1.2215 H   0  0  0  0  0  0  0  0  0  0  0  0
    6.3076   -5.6362    0.7073 H   0  0  0  0  0  0  0  0  0  0  0  0
    6.6104   -5.1277    2.3207 H   0  0  0  0  0  0  0  0  0  0  0  0
    3.9290   -5.9901    1.4317 H   0  0  0  0  0  0  0  0  0  0  0  0
    4.5671   -4.5599   -0.0866 H   0  0  0  0  0  0  0  0  0  0  0  0
    6.2007   -2.3169    3.4274 H   0  0  0  0  0  0  0  0  0  0  0  0
    4.9021   -4.0691    4.5623 H   0  0  0  0  0  0  0  0  0  0  0  0
    3.7223   -2.7960    4.3613 H   0  0  0  0  0  0  0  0  0  0  0  0
    1.6842   -4.5192    2.0463 H   0  0  0  0  0  0  0  0  0  0  0  0
    1.7462   -3.3984    3.3617 H   0  0  0  0  0  0  0  0  0  0  0  0
    1.5900   -2.1533    1.1783 H   0  0  0  0  0  0  0  0  0  0  0  0
    3.0705   -1.7355    1.9634 H   0  0  0  0  0  0  0  0  0  0  0  0
    1.7840   -4.5093   -0.3996 H   0  0  0  0  0  0  0  0  0  0  0  0
    1.4366   -3.9942   -2.5774 H   0  0  0  0  0  0  0  0  0  0  0  0
    3.3058   -5.1953    3.5708 H   0  0  0  0  0  0  0  0  0  0  0  0
  1 19  1  0
  1  2  2  0
  1 20  1  0
  2  3  1  0
  2 21  1  0
  3  6  1  0
  3  4  2  0
  4 17  1  0
  4  5  1  0
  5  6  2  0
  5  7  1  0
  7 11  1  0
  7  8  1  0
  7 22  1  1
  8  9  1  0
  8 23  1  0
  8 24  1  0
  9 14  1  0
  9 10  1  0
  9 25  1  6
 10 17  1  0
 10 11  1  0
 10 26  1  6
 11 12  2  0
 12 13  1  0
 12 27  1  0
 13 14  1  0
 13 28  1  0
 13 29  1  0
 14 15  1  0
 14 36  1  1
 15 16  1  0
 15 30  1  0
 15 31  1  0
 17 16  1  1
 16 32  1  0
 16 33  1  0
 17 18  1  0
 18 19  2  0
 18 34  1  0
 19 35  1  0
M  CHG  1  14   1
M  END
>  <i_m_ct_stereo_status>  (120) 
1

>  <s_m_source_file>  (120) 
/var/tmp/pbs.5076255.sched01/tmpar858yha/42b8svm9_t.sdf

>  <i_m_source_file_index>  (120) 
6

>  <i_lp_mmshare_version>  (120) 
48012

>  <i_f3d_flags>  (120) 
0

>  <s_epik_input>  (120) 
W0NIXTE9W0NIXVtDSF09W0NIXUMoPUMyW0NAQF0xMzQpTj1DMltDQEhdNUM9NltDQEhdM1tDQEBIXShbQ0gyXTUpTihbQ0gyXVtDSF02KVtDSDJdW0NIMl00

>  <s_epik_cmdline>  (120) 
J2VwaWtfcHl0aG9uJywgJy1waHQnLCAnMi4wJywgJy1waCcsICc3LjAnLCAnLXRuJywgJzgnLCAnLW1hJywgJzIwMCcsICctaW1hZScsICc8aW5maWxlLm1hZT4nLCAnLW9tYWUnLCAnPG91dGZpbGUubWFlPic=

>  <r_epik_Ionization_Penalty>  (120) 
1.37836

>  <r_epik_Ionization_Penalty_Charging>  (120) 
1.37836

>  <r_epik_Ionization_Penalty_Neutral>  (120) 
0

>  <r_epik_State_Penalty>  (120) 
1.45867

>  <r_epik_Charging_Adjusted_Penalty>  (120) 
2.83703

>  <i_epik_Tot_Q>  (120) 
1

>  <i_epik_Tot_abs_Q>  (120) 
1

>  <s_epik_Chemistry_Notes>  (120) 
This compound has an imine and may undergo hydrolysis.

>  <s_lp_Force_Field>  (120) 
OPLS3e

>  <r_lp_Energy>  (120) 
241.052

>  <b_lp_Chiralities_Consistent>  (120) 
1

>  <s_lp_Variant>  (120) 
32:0-2

>  <s_i_glide_gridfile>  (120) 
pfpi4k_grid

>  <i_i_glide_lignum>  (120) 
6

>  <i_i_glide_rotatable_bonds>  (120) 
0

>  <r_i_docking_score>  (120) 
-3.64864

>  <r_i_glide_ligand_efficiency>  (120) 
-0.192034

>  <r_i_glide_ligand_efficiency_sa>  (120) 
-0.512424

>  <r_i_glide_ligand_efficiency_ln>  (120) 
-0.92501

>  <r_i_glide_gscore>  (120) 
-3.64864

>  <r_i_glide_lipo>  (120) 
-0.536409

>  <r_i_glide_hbond>  (120) 
-0.122258

>  <r_i_glide_metal>  (120) 
-0

>  <r_i_glide_rewards>  (120) 
-1.70911

>  <r_i_glide_evdw>  (120) 
-17.2658

>  <r_i_glide_ecoul>  (120) 
-2.74161

>  <r_i_glide_erotb>  (120) 
0

>  <r_i_glide_esite>  (120) 
-0.00633758

>  <r_i_glide_emodel>  (120) 
-26.7753

>  <r_i_glide_energy>  (120) 
-20.0074

>  <r_i_glide_einternal>  (120) 
0

>  <r_i_glide_intrahb_reward>  (120) 
-0

>  <i_i_glide_confnum>  (120) 
2

>  <i_i_glide_posenum>  (120) 
4

>  <r_i_glide_eff_state_penalty>  (120) 
0

>  <ligand_id>  (120) 
32

>  <original_smiles>  (120) 
C1=CC2=C3C(=N2)C2CC4C5C2=CCN4CCC35C=C1

>  <smiles>  (120) 
[H]C1=C([H])C2=C3C(=N2)C2([H])C4=C([H])C([H])([H])[N+]5([H])C([H])([H])C([H])([H])C3(C([H])=C1[H])C4([H])C5([H])C2([H])[H]

$$$$
32:1:2
     RDKit          3D

 36 41  0  0  1  0  0  0  0  0999 V2000
    3.6616   -1.5885   -2.1229 C   0  0  0  0  0  0  0  0  0  0  0  0
    4.7950   -1.1750   -1.5525 C   0  0  0  0  0  0  0  0  0  0  0  0
    5.3717   -1.7867   -0.4991 C   0  0  0  0  0  0  0  0  0  0  0  0
    4.9476   -2.7241    0.2902 C   0  0  0  0  0  0  0  0  0  0  0  0
    6.3012   -2.9590    0.5667 C   0  0  0  0  0  0  0  0  0  0  0  0
    6.6900   -1.8496    0.0930 N   0  0  0  0  0  0  0  0  0  0  0  0
    6.8416   -4.2929    1.2730 C   0  0  2  0  0  0  0  0  0  0  0  0
    6.4350   -5.9112    1.0322 C   0  0  0  0  0  0  0  0  0  0  0  0
    4.7653   -6.2353    1.0095 C   0  0  2  0  0  0  0  0  0  0  0  0
    4.7682   -4.8698    0.6743 C   0  0  2  0  0  0  0  0  0  0  0  0
    5.6300   -4.4633    1.9466 C   0  0  0  0  0  0  0  0  0  0  0  0
    5.4343   -4.7579    3.2441 C   0  0  0  0  0  0  0  0  0  0  0  0
    4.3858   -5.8076    3.5036 C   0  0  0  0  0  0  0  0  0  0  0  0
    3.7962   -6.2203    2.2022 N   0  0  1  0  0  0  0  0  0  0  0  0
    2.5544   -5.3926    1.9337 C   0  0  0  0  0  0  0  0  0  0  0  0
    2.8538   -3.8612    1.6432 C   0  0  0  0  0  0  0  0  0  0  0  0
    3.8077   -3.7464    0.4161 C   0  0  1  0  0  0  0  0  0  0  0  0
    3.0374   -3.7692   -0.8947 C   0  0  0  0  0  0  0  0  0  0  0  0
    2.9796   -2.8772   -1.9073 C   0  0  0  0  0  0  0  0  0  0  0  0
    3.3361   -1.0077   -2.9842 H   0  0  0  0  0  0  0  0  0  0  0  0
    5.3078   -0.3204   -1.9714 H   0  0  0  0  0  0  0  0  0  0  0  0
    7.7051   -4.1496    1.9256 H   0  0  0  0  0  0  0  0  0  0  0  0
    6.8688   -6.2489    0.0879 H   0  0  0  0  0  0  0  0  0  0  0  0
    6.9139   -6.5653    1.7679 H   0  0  0  0  0  0  0  0  0  0  0  0
    4.4334   -6.8681    0.1924 H   0  0  0  0  0  0  0  0  0  0  0  0
    5.1838   -4.8954   -0.3592 H   0  0  0  0  0  0  0  0  0  0  0  0
    6.2113   -4.6422    3.9991 H   0  0  0  0  0  0  0  0  0  0  0  0
    4.8588   -6.6739    3.9618 H   0  0  0  0  0  0  0  0  0  0  0  0
    3.6516   -5.4412    4.2127 H   0  0  0  0  0  0  0  0  0  0  0  0
    2.0404   -5.8328    1.0814 H   0  0  0  0  0  0  0  0  0  0  0  0
    1.8668   -5.4742    2.7658 H   0  0  0  0  0  0  0  0  0  0  0  0
    1.9270   -3.3310    1.4243 H   0  0  0  0  0  0  0  0  0  0  0  0
    3.2604   -3.3657    2.5262 H   0  0  0  0  0  0  0  0  0  0  0  0
    2.4419   -4.6509   -1.0028 H   0  0  0  0  0  0  0  0  0  0  0  0
    2.3830   -3.1876   -2.7323 H   0  0  0  0  0  0  0  0  0  0  0  0
    3.4811   -7.1715    2.3363 H   0  0  0  0  0  0  0  0  0  0  0  0
  1 19  1  0
  1  2  2  0
  1 20  1  0
  2  3  1  0
  2 21  1  0
  3  6  1  0
  3  4  2  0
  4 17  1  0
  4  5  1  0
  5  6  2  0
  5  7  1  0
  7 11  1  0
  7  8  1  0
  7 22  1  1
  8  9  1  0
  8 23  1  0
  8 24  1  0
  9 14  1  0
  9 10  1  0
  9 25  1  6
 10 17  1  0
 10 11  1  0
 10 26  1  6
 11 12  2  0
 12 13  1  0
 12 27  1  0
 13 14  1  0
 13 28  1  0
 13 29  1  0
 14 15  1  0
 14 36  1  1
 15 16  1  0
 15 30  1  0
 15 31  1  0
 17 16  1  1
 16 32  1  0
 16 33  1  0
 17 18  1  0
 18 19  2  0
 18 34  1  0
 19 35  1  0
M  CHG  1  14   1
M  END
>  <i_m_ct_stereo_status>  (121) 
1

>  <s_m_source_file>  (121) 
/var/tmp/pbs.5076255.sched01/tmpar858yha/42b8svm9_t.sdf

>  <i_m_source_file_index>  (121) 
6

>  <i_lp_mmshare_version>  (121) 
48012

>  <i_f3d_flags>  (121) 
0

>  <s_epik_input>  (121) 
W0NIXTE9W0NIXVtDSF09W0NIXUMoPUMyW0NAQF0xMzQpTj1DMltDQEhdNUM9NltDQEhdM1tDQEBIXShbQ0gyXTUpTihbQ0gyXVtDSF02KVtDSDJdW0NIMl00

>  <s_epik_cmdline>  (121) 
J2VwaWtfcHl0aG9uJywgJy1waHQnLCAnMi4wJywgJy1waCcsICc3LjAnLCAnLXRuJywgJzgnLCAnLW1hJywgJzIwMCcsICctaW1hZScsICc8aW5maWxlLm1hZT4nLCAnLW9tYWUnLCAnPG91dGZpbGUubWFlPic=

>  <r_epik_Ionization_Penalty>  (121) 
1.37836

>  <r_epik_Ionization_Penalty_Charging>  (121) 
1.37836

>  <r_epik_Ionization_Penalty_Neutral>  (121) 
0

>  <r_epik_State_Penalty>  (121) 
1.45867

>  <r_epik_Charging_Adjusted_Penalty>  (121) 
2.83703

>  <i_epik_Tot_Q>  (121) 
1

>  <i_epik_Tot_abs_Q>  (121) 
1

>  <s_epik_Chemistry_Notes>  (121) 
This compound has an imine and may undergo hydrolysis.

>  <s_lp_Force_Field>  (121) 
OPLS3e

>  <r_lp_Energy>  (121) 
241.052

>  <b_lp_Chiralities_Consistent>  (121) 
1

>  <s_lp_Variant>  (121) 
32:0-2

>  <s_i_glide_gridfile>  (121) 
pfpi4k_grid

>  <i_i_glide_lignum>  (121) 
6

>  <i_i_glide_rotatable_bonds>  (121) 
0

>  <r_i_docking_score>  (121) 
-3.51858

>  <r_i_glide_ligand_efficiency>  (121) 
-0.185188

>  <r_i_glide_ligand_efficiency_sa>  (121) 
-0.494157

>  <r_i_glide_ligand_efficiency_ln>  (121) 
-0.892036

>  <r_i_glide_gscore>  (121) 
-3.51858

>  <r_i_glide_lipo>  (121) 
-0.411217

>  <r_i_glide_hbond>  (121) 
-0.00711999

>  <r_i_glide_metal>  (121) 
-0

>  <r_i_glide_rewards>  (121) 
-1.81965

>  <r_i_glide_evdw>  (121) 
-19.3922

>  <r_i_glide_ecoul>  (121) 
-2.07323

>  <r_i_glide_erotb>  (121) 
0

>  <r_i_glide_esite>  (121) 
0

>  <r_i_glide_emodel>  (121) 
-27.9894

>  <r_i_glide_energy>  (121) 
-21.4654

>  <r_i_glide_einternal>  (121) 
0

>  <r_i_glide_intrahb_reward>  (121) 
-0

>  <i_i_glide_confnum>  (121) 
1

>  <i_i_glide_posenum>  (121) 
2

>  <r_i_glide_eff_state_penalty>  (121) 
0

>  <ligand_id>  (121) 
32

>  <original_smiles>  (121) 
C1=CC2=C3C(=N2)C2CC4C5C2=CCN4CCC35C=C1

>  <smiles>  (121) 
[H]C1=C([H])C2=C3C(=N2)C2([H])C4=C([H])C([H])([H])[N+]5([H])C([H])([H])C([H])([H])C3(C([H])=C1[H])C4([H])C5([H])C2([H])[H]

$$$$
33:0:0
     RDKit          3D

 30 33  0  0  1  0  0  0  0  0999 V2000
    7.7657   -3.6329    0.5994 C   0  0  0  0  0  0  0  0  0  0  0  0
    6.4748   -3.1716   -0.0646 C   0  0  1  0  0  0  0  0  0  0  0  0
    6.8579   -3.0054   -1.4363 O   0  0  0  0  0  0  0  0  0  0  0  0
    5.7332   -2.5468   -2.3783 O   0  0  0  0  0  0  0  0  0  0  0  0
    4.6502   -1.8596   -1.7342 C   0  0  1  0  0  0  0  0  0  0  0  0
    3.9974   -1.0424   -2.8677 C   0  0  0  0  0  0  0  0  0  0  0  0
    3.0293   -2.0176   -3.4802 C   0  0  0  0  0  0  0  0  0  0  0  0
    2.8099   -3.0604   -2.6830 C   0  0  0  0  0  0  0  0  0  0  0  0
    3.5798   -2.9252   -1.3940 C   0  0  1  0  0  0  0  0  0  0  0  0
    4.1553   -4.2293   -0.8420 C   0  0  0  0  0  0  0  0  0  0  0  0
    5.1930   -3.9810    0.2553 C   0  0  2  0  0  0  0  0  0  0  0  0
    4.9189   -2.8804    1.2925 C   0  0  0  0  0  0  0  0  0  0  0  0
    5.7884   -1.9117    0.4860 C   0  0  2  0  0  0  0  0  0  0  0  0
    5.1136   -1.0177   -0.5400 C   0  0  0  0  0  0  0  0  0  0  0  0
    7.6597   -3.7327    1.6821 H   0  0  0  0  0  0  0  0  0  0  0  0
    8.5675   -2.9239    0.4073 H   0  0  0  0  0  0  0  0  0  0  0  0
    8.0721   -4.6021    0.2166 H   0  0  0  0  0  0  0  0  0  0  0  0
    3.3893   -0.2358   -2.4721 H   0  0  0  0  0  0  0  0  0  0  0  0
    4.7016   -0.6591   -3.6045 H   0  0  0  0  0  0  0  0  0  0  0  0
    2.5373   -1.8301   -4.4273 H   0  0  0  0  0  0  0  0  0  0  0  0
    2.1201   -3.8595   -2.8910 H   0  0  0  0  0  0  0  0  0  0  0  0
    2.8673   -2.5087   -0.6826 H   0  0  0  0  0  0  0  0  0  0  0  0
    3.3460   -4.8474   -0.4657 H   0  0  0  0  0  0  0  0  0  0  0  0
    4.6161   -4.8015   -1.6436 H   0  0  0  0  0  0  0  0  0  0  0  0
    5.4614   -4.9086    0.7703 H   0  0  0  0  0  0  0  0  0  0  0  0
    3.8768   -2.5778    1.4019 H   0  0  0  0  0  0  0  0  0  0  0  0
    5.3746   -3.1108    2.2577 H   0  0  0  0  0  0  0  0  0  0  0  0
    6.4573   -1.3597    1.1527 H   0  0  0  0  0  0  0  0  0  0  0  0
    5.8127   -0.2565   -0.8828 H   0  0  0  0  0  0  0  0  0  0  0  0
    4.2742   -0.4853   -0.0998 H   0  0  0  0  0  0  0  0  0  0  0  0
  2  1  1  1
  1 15  1  0
  1 16  1  0
  1 17  1  0
  2 11  1  0
  2 13  1  0
  2  3  1  0
  3  4  1  0
  4  5  1  0
  5  9  1  0
  5 14  1  0
  5  6  1  6
  6  7  1  0
  6 18  1  0
  6 19  1  0
  7  8  2  0
  7 20  1  0
  8  9  1  0
  8 21  1  0
  9 10  1  0
  9 22  1  1
 10 11  1  0
 10 23  1  0
 10 24  1  0
 11 12  1  0
 11 25  1  1
 12 13  1  0
 12 26  1  0
 12 27  1  0
 13 14  1  0
 13 28  1  1
 14 29  1  0
 14 30  1  0
M  END
>  <i_m_ct_stereo_status>  (122) 
1

>  <s_m_source_file>  (122) 
/var/tmp/pbs.5076255.sched01/tmpar858yha/42b8svm9_t.sdf

>  <i_m_source_file_index>  (122) 
7

>  <i_lp_mmshare_version>  (122) 
48012

>  <i_f3d_flags>  (122) 
0

>  <s_epik_input>  (122) 
TzFPW0NAQF0oW0NIM10pKFtDQEhdKFtDSDJdMilbQ0gyXTMpW0NAQEhdMltDSDJdW0NAQEhdKFtDQF0xMzQpW0NIXT1bQ0hdW0NIMl00

>  <s_epik_cmdline>  (122) 
J2VwaWtfcHl0aG9uJywgJy1waHQnLCAnMi4wJywgJy1waCcsICc3LjAnLCAnLXRuJywgJzgnLCAnLW1hJywgJzIwMCcsICctaW1hZScsICc8aW5maWxlLm1hZT4nLCAnLW9tYWUnLCAnPG91dGZpbGUubWFlPic=

>  <r_lp_tautomer_probability>  (122) 
1

>  <r_epik_Ionization_Penalty>  (122) 
0

>  <r_epik_Ionization_Penalty_Charging>  (122) 
0

>  <r_epik_Ionization_Penalty_Neutral>  (122) 
0

>  <r_epik_State_Penalty>  (122) 
-0

>  <r_epik_Charging_Adjusted_Penalty>  (122) 
0

>  <i_epik_Tot_Q>  (122) 
0

>  <i_epik_Tot_abs_Q>  (122) 
0

>  <s_lp_Force_Field>  (122) 
OPLS3e

>  <r_lp_Energy>  (122) 
20.3566

>  <b_lp_Chiralities_Consistent>  (122) 
1

>  <s_lp_Variant>  (122) 
33:0-1

>  <s_i_glide_gridfile>  (122) 
pfpi4k_grid

>  <i_i_glide_lignum>  (122) 
7

>  <i_i_glide_rotatable_bonds>  (122) 
0

>  <r_i_docking_score>  (122) 
-3.87957

>  <r_i_glide_ligand_efficiency>  (122) 
-0.277112

>  <r_i_glide_ligand_efficiency_sa>  (122) 
-0.667881

>  <r_i_glide_ligand_efficiency_ln>  (122) 
-1.06609

>  <r_i_glide_gscore>  (122) 
-3.87957

>  <r_i_glide_lipo>  (122) 
-0.620709

>  <r_i_glide_hbond>  (122) 
0

>  <r_i_glide_metal>  (122) 
-0

>  <r_i_glide_rewards>  (122) 
-2.09827

>  <r_i_glide_evdw>  (122) 
-17.3022

>  <r_i_glide_ecoul>  (122) 
-1.96995

>  <r_i_glide_erotb>  (122) 
0

>  <r_i_glide_esite>  (122) 
0

>  <r_i_glide_emodel>  (122) 
-23.3289

>  <r_i_glide_energy>  (122) 
-19.2721

>  <r_i_glide_einternal>  (122) 
0

>  <r_i_glide_intrahb_reward>  (122) 
-0

>  <i_i_glide_confnum>  (122) 
1

>  <i_i_glide_posenum>  (122) 
5

>  <r_i_glide_eff_state_penalty>  (122) 
0

>  <ligand_id>  (122) 
33

>  <original_smiles>  (122) 
CC12OOC34CC=CC3CC1CC2C4

>  <smiles>  (122) 
[H]C1=C([H])C2([H])C([H])([H])C3([H])C([H])([H])C4([H])C([H])([H])C2(OOC34C([H])([H])[H])C1([H])[H]

$$$$
33:0:1
     RDKit          3D

 30 33  0  0  1  0  0  0  0  0999 V2000
    6.9345   -3.1341    1.1135 C   0  0  0  0  0  0  0  0  0  0  0  0
    5.8870   -2.9088    0.0353 C   0  0  1  0  0  0  0  0  0  0  0  0
    6.4475   -1.8753   -0.7773 O   0  0  0  0  0  0  0  0  0  0  0  0
    5.5336   -1.3107   -1.8737 O   0  0  0  0  0  0  0  0  0  0  0  0
    4.1528   -1.6634   -1.7685 C   0  0  1  0  0  0  0  0  0  0  0  0
    3.4468   -0.6571   -2.7087 C   0  0  0  0  0  0  0  0  0  0  0  0
    3.5040   -1.3504   -4.0452 C   0  0  0  0  0  0  0  0  0  0  0  0
    3.7867   -2.6494   -3.9138 C   0  0  0  0  0  0  0  0  0  0  0  0
    3.9470   -3.0275   -2.4739 C   0  0  1  0  0  0  0  0  0  0  0  0
    5.0496   -4.0467   -2.1884 C   0  0  0  0  0  0  0  0  0  0  0  0
    5.3569   -4.1501   -0.6965 C   0  0  2  0  0  0  0  0  0  0  0  0
    4.1969   -4.1101    0.3098 C   0  0  0  0  0  0  0  0  0  0  0  0
    4.4600   -2.6106    0.5110 C   0  0  2  0  0  0  0  0  0  0  0  0
    3.6774   -1.6154   -0.3153 C   0  0  0  0  0  0  0  0  0  0  0  0
    6.6336   -3.8859    1.8489 H   0  0  0  0  0  0  0  0  0  0  0  0
    7.0863   -2.1990    1.6456 H   0  0  0  0  0  0  0  0  0  0  0  0
    7.8824   -3.4548    0.6787 H   0  0  0  0  0  0  0  0  0  0  0  0
    2.3938   -0.5350   -2.4479 H   0  0  0  0  0  0  0  0  0  0  0  0
    3.9288    0.3213   -2.7292 H   0  0  0  0  0  0  0  0  0  0  0  0
    3.2894   -0.8385   -4.9664 H   0  0  0  0  0  0  0  0  0  0  0  0
    3.8543   -3.3686   -4.7212 H   0  0  0  0  0  0  0  0  0  0  0  0
    2.9804   -3.4452   -2.1813 H   0  0  0  0  0  0  0  0  0  0  0  0
    4.7602   -5.0195   -2.5718 H   0  0  0  0  0  0  0  0  0  0  0  0
    5.9569   -3.7933   -2.7357 H   0  0  0  0  0  0  0  0  0  0  0  0
    5.9894   -5.0116   -0.4755 H   0  0  0  0  0  0  0  0  0  0  0  0
    3.2167   -4.3575   -0.0977 H   0  0  0  0  0  0  0  0  0  0  0  0
    4.4175   -4.6827    1.2103 H   0  0  0  0  0  0  0  0  0  0  0  0
    4.4355   -2.3688    1.5791 H   0  0  0  0  0  0  0  0  0  0  0  0
    3.7981   -0.6081    0.0802 H   0  0  0  0  0  0  0  0  0  0  0  0
    2.6174   -1.8491   -0.2589 H   0  0  0  0  0  0  0  0  0  0  0  0
  2  1  1  1
  1 15  1  0
  1 16  1  0
  1 17  1  0
  2 11  1  0
  2 13  1  0
  2  3  1  0
  3  4  1  0
  4  5  1  0
  5  9  1  0
  5 14  1  0
  5  6  1  6
  6  7  1  0
  6 18  1  0
  6 19  1  0
  7  8  2  0
  7 20  1  0
  8  9  1  0
  8 21  1  0
  9 10  1  0
  9 22  1  1
 10 11  1  0
 10 23  1  0
 10 24  1  0
 11 12  1  0
 11 25  1  6
 12 13  1  0
 12 26  1  0
 12 27  1  0
 13 14  1  0
 13 28  1  1
 14 29  1  0
 14 30  1  0
M  END
>  <i_m_ct_stereo_status>  (123) 
1

>  <s_m_source_file>  (123) 
/var/tmp/pbs.5076255.sched01/tmpar858yha/42b8svm9_t.sdf

>  <i_m_source_file_index>  (123) 
7

>  <i_lp_mmshare_version>  (123) 
48012

>  <i_f3d_flags>  (123) 
0

>  <s_epik_input>  (123) 
TzFPW0NAQF0oW0NIM10pKFtDQEhdKFtDSDJdMilbQ0gyXTMpW0NAQEhdMltDSDJdW0NAQEhdKFtDQF0xMzQpW0NIXT1bQ0hdW0NIMl00

>  <s_epik_cmdline>  (123) 
J2VwaWtfcHl0aG9uJywgJy1waHQnLCAnMi4wJywgJy1waCcsICc3LjAnLCAnLXRuJywgJzgnLCAnLW1hJywgJzIwMCcsICctaW1hZScsICc8aW5maWxlLm1hZT4nLCAnLW9tYWUnLCAnPG91dGZpbGUubWFlPic=

>  <r_lp_tautomer_probability>  (123) 
1

>  <r_epik_Ionization_Penalty>  (123) 
0

>  <r_epik_Ionization_Penalty_Charging>  (123) 
0

>  <r_epik_Ionization_Penalty_Neutral>  (123) 
0

>  <r_epik_State_Penalty>  (123) 
-0

>  <r_epik_Charging_Adjusted_Penalty>  (123) 
0

>  <i_epik_Tot_Q>  (123) 
0

>  <i_epik_Tot_abs_Q>  (123) 
0

>  <s_lp_Force_Field>  (123) 
OPLS3e

>  <r_lp_Energy>  (123) 
20.3566

>  <b_lp_Chiralities_Consistent>  (123) 
1

>  <s_lp_Variant>  (123) 
33:0-1

>  <s_i_glide_gridfile>  (123) 
pfpi4k_grid

>  <i_i_glide_lignum>  (123) 
7

>  <i_i_glide_rotatable_bonds>  (123) 
0

>  <r_i_docking_score>  (123) 
-3.65177

>  <r_i_glide_ligand_efficiency>  (123) 
-0.260841

>  <r_i_glide_ligand_efficiency_sa>  (123) 
-0.628664

>  <r_i_glide_ligand_efficiency_ln>  (123) 
-1.00349

>  <r_i_glide_gscore>  (123) 
-3.65177

>  <r_i_glide_lipo>  (123) 
-0.279603

>  <r_i_glide_hbond>  (123) 
-0.174618

>  <r_i_glide_metal>  (123) 
-0

>  <r_i_glide_rewards>  (123) 
-2.09827

>  <r_i_glide_evdw>  (123) 
-15.4998

>  <r_i_glide_ecoul>  (123) 
-2.16197

>  <r_i_glide_erotb>  (123) 
0

>  <r_i_glide_esite>  (123) 
0

>  <r_i_glide_emodel>  (123) 
-21.1576

>  <r_i_glide_energy>  (123) 
-17.6618

>  <r_i_glide_einternal>  (123) 
0

>  <r_i_glide_intrahb_reward>  (123) 
-0

>  <i_i_glide_confnum>  (123) 
2

>  <i_i_glide_posenum>  (123) 
20

>  <r_i_glide_eff_state_penalty>  (123) 
0

>  <ligand_id>  (123) 
33

>  <original_smiles>  (123) 
CC12OOC34CC=CC3CC1CC2C4

>  <smiles>  (123) 
[H]C1=C([H])C2([H])C([H])([H])C3([H])C([H])([H])C4([H])C([H])([H])C2(OOC34C([H])([H])[H])C1([H])[H]

$$$$
33:0:2
     RDKit          3D

 30 33  0  0  1  0  0  0  0  0999 V2000
    8.5604   -2.4495   -0.0726 C   0  0  0  0  0  0  0  0  0  0  0  0
    7.0386   -2.4588   -0.2037 C   0  0  1  0  0  0  0  0  0  0  0  0
    6.8223   -2.9375   -1.5330 O   0  0  0  0  0  0  0  0  0  0  0  0
    5.3651   -2.9558   -2.0168 O   0  0  0  0  0  0  0  0  0  0  0  0
    4.4531   -2.1802   -1.2357 C   0  0  1  0  0  0  0  0  0  0  0  0
    3.2244   -2.0098   -2.1663 C   0  0  0  0  0  0  0  0  0  0  0  0
    2.4060   -3.2366   -1.8626 C   0  0  0  0  0  0  0  0  0  0  0  0
    2.7878   -3.8207   -0.7261 C   0  0  0  0  0  0  0  0  0  0  0  0
    3.9174   -3.0727   -0.0832 C   0  0  1  0  0  0  0  0  0  0  0  0
    4.9830   -3.9411    0.5897 C   0  0  0  0  0  0  0  0  0  0  0  0
    6.2374   -3.1386    0.9285 C   0  0  2  0  0  0  0  0  0  0  0  0
    6.0625   -1.7156    1.4910 C   0  0  0  0  0  0  0  0  0  0  0  0
    6.2875   -1.1511    0.0826 C   0  0  2  0  0  0  0  0  0  0  0  0
    5.0765   -0.8644   -0.7806 C   0  0  0  0  0  0  0  0  0  0  0  0
    8.9003   -2.0413    0.8807 H   0  0  0  0  0  0  0  0  0  0  0  0
    9.0182   -1.8530   -0.8630 H   0  0  0  0  0  0  0  0  0  0  0  0
    8.9584   -3.4602   -0.1626 H   0  0  0  0  0  0  0  0  0  0  0  0
    2.6244   -1.1316   -1.9089 H   0  0  0  0  0  0  0  0  0  0  0  0
    3.4946   -1.9435   -3.2221 H   0  0  0  0  0  0  0  0  0  0  0  0
    1.5941   -3.5603   -2.4906 H   0  0  0  0  0  0  0  0  0  0  0  0
    2.3467   -4.7133   -0.3027 H   0  0  0  0  0  0  0  0  0  0  0  0
    3.4413   -2.4398    0.6728 H   0  0  0  0  0  0  0  0  0  0  0  0
    4.5615   -4.3859    1.4925 H   0  0  0  0  0  0  0  0  0  0  0  0
    5.2453   -4.7805   -0.0546 H   0  0  0  0  0  0  0  0  0  0  0  0
    6.9124   -3.7141    1.5710 H   0  0  0  0  0  0  0  0  0  0  0  0
    5.0924   -1.4926    1.9325 H   0  0  0  0  0  0  0  0  0  0  0  0
    6.8764   -1.4134    2.1419 H   0  0  0  0  0  0  0  0  0  0  0  0
    6.9674   -0.2996    0.1404 H   0  0  0  0  0  0  0  0  0  0  0  0
    5.3637   -0.2819   -1.6534 H   0  0  0  0  0  0  0  0  0  0  0  0
    4.3478   -0.2614   -0.2352 H   0  0  0  0  0  0  0  0  0  0  0  0
  2  1  1  1
  1 15  1  0
  1 16  1  0
  1 17  1  0
  2 11  1  0
  2 13  1  0
  2  3  1  0
  3  4  1  0
  4  5  1  0
  5  9  1  0
  5 14  1  0
  5  6  1  6
  6  7  1  0
  6 18  1  0
  6 19  1  0
  7  8  2  0
  7 20  1  0
  8  9  1  0
  8 21  1  0
  9 10  1  0
  9 22  1  1
 10 11  1  0
 10 23  1  0
 10 24  1  0
 11 12  1  0
 11 25  1  1
 12 13  1  0
 12 26  1  0
 12 27  1  0
 13 14  1  0
 13 28  1  1
 14 29  1  0
 14 30  1  0
M  END
>  <i_m_ct_stereo_status>  (124) 
1

>  <s_m_source_file>  (124) 
/var/tmp/pbs.5076255.sched01/tmpar858yha/42b8svm9_t.sdf

>  <i_m_source_file_index>  (124) 
7

>  <i_lp_mmshare_version>  (124) 
48012

>  <i_f3d_flags>  (124) 
0

>  <s_epik_input>  (124) 
TzFPW0NAQF0oW0NIM10pKFtDQEhdKFtDSDJdMilbQ0gyXTMpW0NAQEhdMltDSDJdW0NAQEhdKFtDQF0xMzQpW0NIXT1bQ0hdW0NIMl00

>  <s_epik_cmdline>  (124) 
J2VwaWtfcHl0aG9uJywgJy1waHQnLCAnMi4wJywgJy1waCcsICc3LjAnLCAnLXRuJywgJzgnLCAnLW1hJywgJzIwMCcsICctaW1hZScsICc8aW5maWxlLm1hZT4nLCAnLW9tYWUnLCAnPG91dGZpbGUubWFlPic=

>  <r_lp_tautomer_probability>  (124) 
1

>  <r_epik_Ionization_Penalty>  (124) 
0

>  <r_epik_Ionization_Penalty_Charging>  (124) 
0

>  <r_epik_Ionization_Penalty_Neutral>  (124) 
0

>  <r_epik_State_Penalty>  (124) 
-0

>  <r_epik_Charging_Adjusted_Penalty>  (124) 
0

>  <i_epik_Tot_Q>  (124) 
0

>  <i_epik_Tot_abs_Q>  (124) 
0

>  <s_lp_Force_Field>  (124) 
OPLS3e

>  <r_lp_Energy>  (124) 
20.3566

>  <b_lp_Chiralities_Consistent>  (124) 
1

>  <s_lp_Variant>  (124) 
33:0-1

>  <s_i_glide_gridfile>  (124) 
pfpi4k_grid

>  <i_i_glide_lignum>  (124) 
7

>  <i_i_glide_rotatable_bonds>  (124) 
0

>  <r_i_docking_score>  (124) 
-3.3656

>  <r_i_glide_ligand_efficiency>  (124) 
-0.2404

>  <r_i_glide_ligand_efficiency_sa>  (124) 
-0.579398

>  <r_i_glide_ligand_efficiency_ln>  (124) 
-0.924854

>  <r_i_glide_gscore>  (124) 
-3.3656

>  <r_i_glide_lipo>  (124) 
-0.407293

>  <r_i_glide_hbond>  (124) 
0

>  <r_i_glide_metal>  (124) 
-0

>  <r_i_glide_rewards>  (124) 
-2.09827

>  <r_i_glide_evdw>  (124) 
-15.172

>  <r_i_glide_ecoul>  (124) 
-0.676256

>  <r_i_glide_erotb>  (124) 
0

>  <r_i_glide_esite>  (124) 
0

>  <r_i_glide_emodel>  (124) 
-19.0519

>  <r_i_glide_energy>  (124) 
-15.8482

>  <r_i_glide_einternal>  (124) 
0

>  <r_i_glide_intrahb_reward>  (124) 
-0

>  <i_i_glide_confnum>  (124) 
2

>  <i_i_glide_posenum>  (124) 
11

>  <r_i_glide_eff_state_penalty>  (124) 
0

>  <ligand_id>  (124) 
33

>  <original_smiles>  (124) 
CC12OOC34CC=CC3CC1CC2C4

>  <smiles>  (124) 
[H]C1=C([H])C2([H])C([H])([H])C3([H])C([H])([H])C4([H])C([H])([H])C2(OOC34C([H])([H])[H])C1([H])[H]

$$$$
34:0:0
     RDKit          3D

 26 29  0  0  1  0  0  0  0  0999 V2000
    6.9873   -1.8565   -1.0616 O   0  0  0  0  0  0  0  0  0  0  0  0
    5.8286   -2.2565   -1.3214 C   0  0  0  0  0  0  0  0  0  0  0  0
    5.3549   -2.2954   -2.4752 O   0  0  0  0  0  0  0  0  0  0  0  0
    4.9412   -2.7360   -0.1556 C   0  0  2  0  0  0  0  0  0  0  0  0
    3.7823   -3.6860   -0.5085 C   0  0  0  0  0  0  0  0  0  0  0  0
    3.4877   -2.2699   -0.1440 C   0  0  1  0  0  0  0  0  0  0  0  0
    3.1635   -1.6385    1.2171 C   0  0  2  0  0  0  0  0  0  0  0  0
    4.1258   -0.4365    1.2141 C   0  0  0  0  0  0  0  0  0  0  0  0
    5.3193   -1.1235    1.8938 C   0  0  1  0  0  0  0  0  0  0  0  0
    4.5804   -1.4328    3.2016 C   0  0  0  0  0  0  0  0  0  0  0  0
    3.6677   -2.4397    2.5043 C   0  0  2  0  0  0  0  0  0  0  0  0
    4.7906   -3.4449    2.1925 C   0  0  0  0  0  0  0  0  0  0  0  0
    5.5994   -2.5589    1.2452 C   0  0  1  0  0  0  0  0  0  0  0  0
    3.6601   -3.9405   -1.5641 H   0  0  0  0  0  0  0  0  0  0  0  0
    3.3683   -4.4322    0.1536 H   0  0  0  0  0  0  0  0  0  0  0  0
    3.1514   -1.6621   -0.9835 H   0  0  0  0  0  0  0  0  0  0  0  0
    2.1178   -1.3365    1.2640 H   0  0  0  0  0  0  0  0  0  0  0  0
    4.3690   -0.0449    0.2259 H   0  0  0  0  0  0  0  0  0  0  0  0
    3.7307    0.4056    1.7858 H   0  0  0  0  0  0  0  0  0  0  0  0
    6.1938   -0.4827    2.0136 H   0  0  0  0  0  0  0  0  0  0  0  0
    5.2177   -1.8408    3.9884 H   0  0  0  0  0  0  0  0  0  0  0  0
    4.0372   -0.5972    3.6461 H   0  0  0  0  0  0  0  0  0  0  0  0
    2.8753   -2.8439    3.1365 H   0  0  0  0  0  0  0  0  0  0  0  0
    5.3738   -3.7114    3.0765 H   0  0  0  0  0  0  0  0  0  0  0  0
    4.4806   -4.4143    1.8172 H   0  0  0  0  0  0  0  0  0  0  0  0
    6.6530   -2.8358    1.2309 H   0  0  0  0  0  0  0  0  0  0  0  0
  1  2  2  0
  2  3  1  0
  4  2  1  6
  4  6  1  0
  4 13  1  0
  4  5  1  0
  5  6  1  0
  5 14  1  0
  5 15  1  0
  6  7  1  0
  6 16  1  6
  7 11  1  0
  7  8  1  0
  7 17  1  1
  8  9  1  0
  8 18  1  0
  8 19  1  0
  9 13  1  0
  9 10  1  0
  9 20  1  1
 10 11  1  0
 10 21  1  0
 10 22  1  0
 11 12  1  0
 11 23  1  1
 12 13  1  0
 12 24  1  0
 12 25  1  0
 13 26  1  6
M  CHG  1   3  -1
M  END
>  <i_m_ct_stereo_status>  (125) 
1

>  <s_m_source_file>  (125) 
/var/tmp/pbs.5076255.sched01/tmpar858yha/42b8svm9_t.sdf

>  <i_m_source_file_index>  (125) 
8

>  <i_lp_mmshare_version>  (125) 
48012

>  <i_f3d_flags>  (125) 
0

>  <s_epik_input>  (125) 
Tz1DKFtPSF0pW0NAQF0xMltDQEBIXShbQ0gyXTEpW0NASF0zW0NAQEhdNFtDSDJdW0NASF0oW0NIMl0zKVtDQEhdMltDSDJdNA==

>  <s_epik_cmdline>  (125) 
J2VwaWtfcHl0aG9uJywgJy1waHQnLCAnMi4wJywgJy1waCcsICc3LjAnLCAnLXRuJywgJzgnLCAnLW1hJywgJzIwMCcsICctaW1hZScsICc8aW5maWxlLm1hZT4nLCAnLW9tYWUnLCAnPG91dGZpbGUubWFlPic=

>  <r_epik_Ionization_Penalty>  (125) 
0.0094348

>  <r_epik_Ionization_Penalty_Charging>  (125) 
0.0094348

>  <r_epik_Ionization_Penalty_Neutral>  (125) 
0

>  <r_epik_State_Penalty>  (125) 
0.00716461

>  <r_epik_Charging_Adjusted_Penalty>  (125) 
0.0165994

>  <i_epik_Tot_Q>  (125) 
-1

>  <i_epik_Tot_abs_Q>  (125) 
1

>  <s_lp_Force_Field>  (125) 
OPLS3e

>  <r_lp_Energy>  (125) 
78.8713

>  <b_lp_Chiralities_Consistent>  (125) 
1

>  <s_lp_Variant>  (125) 
34:0-1

>  <s_i_glide_gridfile>  (125) 
pfpi4k_grid

>  <i_i_glide_lignum>  (125) 
8

>  <i_i_glide_rotatable_bonds>  (125) 
1

>  <r_i_docking_score>  (125) 
-4.02364

>  <r_i_glide_ligand_efficiency>  (125) 
-0.309511

>  <r_i_glide_ligand_efficiency_sa>  (125) 
-0.727763

>  <r_i_glide_ligand_efficiency_ln>  (125) 
-1.12867

>  <r_i_glide_gscore>  (125) 
-4.02364

>  <r_i_glide_lipo>  (125) 
-0.373297

>  <r_i_glide_hbond>  (125) 
-0.2

>  <r_i_glide_metal>  (125) 
-0

>  <r_i_glide_rewards>  (125) 
-2.20077

>  <r_i_glide_evdw>  (125) 
-13.0082

>  <r_i_glide_ecoul>  (125) 
-3.74109

>  <r_i_glide_erotb>  (125) 
0

>  <r_i_glide_esite>  (125) 
-0.0379968

>  <r_i_glide_emodel>  (125) 
-23.109

>  <r_i_glide_energy>  (125) 
-16.7493

>  <r_i_glide_einternal>  (125) 
0.0168634

>  <r_i_glide_intrahb_reward>  (125) 
-0

>  <i_i_glide_confnum>  (125) 
2

>  <i_i_glide_posenum>  (125) 
2

>  <r_i_glide_eff_state_penalty>  (125) 
0

>  <ligand_id>  (125) 
34

>  <original_smiles>  (125) 
O=C(O)C12CC1C1CC3CC1CC32

>  <smiles>  (125) 
[H]C1([H])C2([H])C([H])([H])C3([H])C1([H])C([H])([H])C2([H])C1([H])C([H])([H])C31C(=O)[O-]

$$$$
34:0:1
     RDKit          3D

 26 29  0  0  1  0  0  0  0  0999 V2000
    4.6220   -4.0240   -4.2692 O   0  0  0  0  0  0  0  0  0  0  0  0
    4.3167   -2.9805   -3.6487 C   0  0  0  0  0  0  0  0  0  0  0  0
    4.2088   -1.8573   -4.1970 O   0  0  0  0  0  0  0  0  0  0  0  0
    4.0313   -3.0799   -2.1340 C   0  0  2  0  0  0  0  0  0  0  0  0
    2.5552   -3.0519   -1.7281 C   0  0  0  0  0  0  0  0  0  0  0  0
    3.4157   -1.8712   -1.4352 C   0  0  1  0  0  0  0  0  0  0  0  0
    4.2324   -1.5189   -0.1911 C   0  0  2  0  0  0  0  0  0  0  0  0
    5.5800   -1.1613   -0.8335 C   0  0  0  0  0  0  0  0  0  0  0  0
    6.2270   -2.5552   -0.7870 C   0  0  1  0  0  0  0  0  0  0  0  0
    6.1912   -2.6680    0.7433 C   0  0  0  0  0  0  0  0  0  0  0  0
    4.6625   -2.7432    0.7522 C   0  0  2  0  0  0  0  0  0  0  0  0
    4.5936   -4.1080    0.0378 C   0  0  0  0  0  0  0  0  0  0  0  0
    5.2014   -3.6710   -1.3052 C   0  0  1  0  0  0  0  0  0  0  0  0
    1.8322   -2.9340   -2.5232 H   0  0  0  0  0  0  0  0  0  0  0  0
    2.1355   -3.5426   -0.8507 H   0  0  0  0  0  0  0  0  0  0  0  0
    3.1654   -0.9945   -2.0409 H   0  0  0  0  0  0  0  0  0  0  0  0
    3.7888   -0.6798    0.3481 H   0  0  0  0  0  0  0  0  0  0  0  0
    5.5055   -0.7647   -1.8482 H   0  0  0  0  0  0  0  0  0  0  0  0
    6.1236   -0.4118   -0.2549 H   0  0  0  0  0  0  0  0  0  0  0  0
    7.2281   -2.6077   -1.2183 H   0  0  0  0  0  0  0  0  0  0  0  0
    6.7076   -3.5466    1.1390 H   0  0  0  0  0  0  0  0  0  0  0  0
    6.5841   -1.8088    1.2927 H   0  0  0  0  0  0  0  0  0  0  0  0
    4.2159   -2.7375    1.7476 H   0  0  0  0  0  0  0  0  0  0  0  0
    5.2082   -4.8701    0.5242 H   0  0  0  0  0  0  0  0  0  0  0  0
    3.6188   -4.5815    0.0012 H   0  0  0  0  0  0  0  0  0  0  0  0
    5.6711   -4.5014   -1.8249 H   0  0  0  0  0  0  0  0  0  0  0  0
  1  2  2  0
  2  3  1  0
  4  2  1  6
  4  6  1  0
  4 13  1  0
  4  5  1  0
  5  6  1  0
  5 14  1  0
  5 15  1  0
  6  7  1  0
  6 16  1  6
  7 11  1  0
  7  8  1  0
  7 17  1  1
  8  9  1  0
  8 18  1  0
  8 19  1  0
  9 13  1  0
  9 10  1  0
  9 20  1  6
 10 11  1  0
 10 21  1  0
 10 22  1  0
 11 12  1  0
 11 23  1  1
 12 13  1  0
 12 24  1  0
 12 25  1  0
 13 26  1  6
M  CHG  1   3  -1
M  END
>  <i_m_ct_stereo_status>  (126) 
1

>  <s_m_source_file>  (126) 
/var/tmp/pbs.5076255.sched01/tmpar858yha/42b8svm9_t.sdf

>  <i_m_source_file_index>  (126) 
8

>  <i_lp_mmshare_version>  (126) 
48012

>  <i_f3d_flags>  (126) 
0

>  <s_epik_input>  (126) 
Tz1DKFtPSF0pW0NAQF0xMltDQEBIXShbQ0gyXTEpW0NASF0zW0NAQEhdNFtDSDJdW0NASF0oW0NIMl0zKVtDQEhdMltDSDJdNA==

>  <s_epik_cmdline>  (126) 
J2VwaWtfcHl0aG9uJywgJy1waHQnLCAnMi4wJywgJy1waCcsICc3LjAnLCAnLXRuJywgJzgnLCAnLW1hJywgJzIwMCcsICctaW1hZScsICc8aW5maWxlLm1hZT4nLCAnLW9tYWUnLCAnPG91dGZpbGUubWFlPic=

>  <r_epik_Ionization_Penalty>  (126) 
0.0094348

>  <r_epik_Ionization_Penalty_Charging>  (126) 
0.0094348

>  <r_epik_Ionization_Penalty_Neutral>  (126) 
0

>  <r_epik_State_Penalty>  (126) 
0.00716461

>  <r_epik_Charging_Adjusted_Penalty>  (126) 
0.0165994

>  <i_epik_Tot_Q>  (126) 
-1

>  <i_epik_Tot_abs_Q>  (126) 
1

>  <s_lp_Force_Field>  (126) 
OPLS3e

>  <r_lp_Energy>  (126) 
78.8713

>  <b_lp_Chiralities_Consistent>  (126) 
1

>  <s_lp_Variant>  (126) 
34:0-1

>  <s_i_glide_gridfile>  (126) 
pfpi4k_grid

>  <i_i_glide_lignum>  (126) 
8

>  <i_i_glide_rotatable_bonds>  (126) 
1

>  <r_i_docking_score>  (126) 
-4.00245

>  <r_i_glide_ligand_efficiency>  (126) 
-0.307881

>  <r_i_glide_ligand_efficiency_sa>  (126) 
-0.723931

>  <r_i_glide_ligand_efficiency_ln>  (126) 
-1.12272

>  <r_i_glide_gscore>  (126) 
-4.00245

>  <r_i_glide_lipo>  (126) 
-0.177779

>  <r_i_glide_hbond>  (126) 
-0.16

>  <r_i_glide_metal>  (126) 
-0

>  <r_i_glide_rewards>  (126) 
-2.46227

>  <r_i_glide_evdw>  (126) 
-16.8203

>  <r_i_glide_ecoul>  (126) 
-2.40925

>  <r_i_glide_erotb>  (126) 
0

>  <r_i_glide_esite>  (126) 
0

>  <r_i_glide_emodel>  (126) 
-24.9697

>  <r_i_glide_energy>  (126) 
-19.2296

>  <r_i_glide_einternal>  (126) 
1.23338

>  <r_i_glide_intrahb_reward>  (126) 
-0

>  <i_i_glide_confnum>  (126) 
1

>  <i_i_glide_posenum>  (126) 
13

>  <r_i_glide_eff_state_penalty>  (126) 
0

>  <ligand_id>  (126) 
34

>  <original_smiles>  (126) 
O=C(O)C12CC1C1CC3CC1CC32

>  <smiles>  (126) 
[H]C1([H])C2([H])C([H])([H])C3([H])C1([H])C([H])([H])C2([H])C1([H])C([H])([H])C31C(=O)[O-]

$$$$
34:0:2
     RDKit          3D

 26 29  0  0  1  0  0  0  0  0999 V2000
    7.2552   -1.4766   -0.0823 O   0  0  0  0  0  0  0  0  0  0  0  0
    6.1843   -1.4228    0.5685 C   0  0  0  0  0  0  0  0  0  0  0  0
    6.1201   -1.2158    1.8013 O   0  0  0  0  0  0  0  0  0  0  0  0
    4.8607   -1.6106   -0.1984 C   0  0  2  0  0  0  0  0  0  0  0  0
    3.5593   -1.4140    0.6057 C   0  0  0  0  0  0  0  0  0  0  0  0
    3.9856   -2.7944    0.2131 C   0  0  1  0  0  0  0  0  0  0  0  0
    3.6439   -3.6187   -1.0287 C   0  0  2  0  0  0  0  0  0  0  0  0
    5.0420   -4.0916   -1.4515 C   0  0  0  0  0  0  0  0  0  0  0  0
    5.3833   -2.9425   -2.4106 C   0  0  1  0  0  0  0  0  0  0  0  0
    4.2254   -3.2137   -3.3812 C   0  0  0  0  0  0  0  0  0  0  0  0
    3.1902   -2.8043   -2.3329 C   0  0  2  0  0  0  0  0  0  0  0  0
    3.6163   -1.3276   -2.2979 C   0  0  0  0  0  0  0  0  0  0  0  0
    5.0235   -1.5335   -1.7413 C   0  0  1  0  0  0  0  0  0  0  0  0
    3.6492   -1.1780    1.6628 H   0  0  0  0  0  0  0  0  0  0  0  0
    2.6188   -1.0890    0.1905 H   0  0  0  0  0  0  0  0  0  0  0  0
    4.3348   -3.4009    1.0491 H   0  0  0  0  0  0  0  0  0  0  0  0
    2.9818   -4.4483   -0.7686 H   0  0  0  0  0  0  0  0  0  0  0  0
    5.7614   -4.1941   -0.6387 H   0  0  0  0  0  0  0  0  0  0  0  0
    5.0129   -5.0617   -1.9520 H   0  0  0  0  0  0  0  0  0  0  0  0
    6.3758   -3.0219   -2.8561 H   0  0  0  0  0  0  0  0  0  0  0  0
    4.2468   -2.6021   -4.2839 H   0  0  0  0  0  0  0  0  0  0  0  0
    4.1244   -4.2499   -3.7142 H   0  0  0  0  0  0  0  0  0  0  0  0
    2.1535   -2.9637   -2.6376 H   0  0  0  0  0  0  0  0  0  0  0  0
    3.6387   -0.8703   -3.2881 H   0  0  0  0  0  0  0  0  0  0  0  0
    2.9677   -0.6613   -1.7464 H   0  0  0  0  0  0  0  0  0  0  0  0
    5.6946   -0.7242   -2.0253 H   0  0  0  0  0  0  0  0  0  0  0  0
  1  2  2  0
  2  3  1  0
  4  2  1  1
  4  6  1  0
  4 13  1  0
  4  5  1  0
  5  6  1  0
  5 14  1  0
  5 15  1  0
  6  7  1  0
  6 16  1  1
  7 11  1  0
  7  8  1  0
  7 17  1  1
  8  9  1  0
  8 18  1  0
  8 19  1  0
  9 13  1  0
  9 10  1  0
  9 20  1  6
 10 11  1  0
 10 21  1  0
 10 22  1  0
 11 12  1  0
 11 23  1  6
 12 13  1  0
 12 24  1  0
 12 25  1  0
 13 26  1  1
M  CHG  1   3  -1
M  END
>  <i_m_ct_stereo_status>  (127) 
1

>  <s_m_source_file>  (127) 
/var/tmp/pbs.5076255.sched01/tmpar858yha/42b8svm9_t.sdf

>  <i_m_source_file_index>  (127) 
8

>  <i_lp_mmshare_version>  (127) 
48012

>  <i_f3d_flags>  (127) 
0

>  <s_epik_input>  (127) 
Tz1DKFtPSF0pW0NAQF0xMltDQEBIXShbQ0gyXTEpW0NASF0zW0NAQEhdNFtDSDJdW0NASF0oW0NIMl0zKVtDQEhdMltDSDJdNA==

>  <s_epik_cmdline>  (127) 
J2VwaWtfcHl0aG9uJywgJy1waHQnLCAnMi4wJywgJy1waCcsICc3LjAnLCAnLXRuJywgJzgnLCAnLW1hJywgJzIwMCcsICctaW1hZScsICc8aW5maWxlLm1hZT4nLCAnLW9tYWUnLCAnPG91dGZpbGUubWFlPic=

>  <r_epik_Ionization_Penalty>  (127) 
0.0094348

>  <r_epik_Ionization_Penalty_Charging>  (127) 
0.0094348

>  <r_epik_Ionization_Penalty_Neutral>  (127) 
0

>  <r_epik_State_Penalty>  (127) 
0.00716461

>  <r_epik_Charging_Adjusted_Penalty>  (127) 
0.0165994

>  <i_epik_Tot_Q>  (127) 
-1

>  <i_epik_Tot_abs_Q>  (127) 
1

>  <s_lp_Force_Field>  (127) 
OPLS3e

>  <r_lp_Energy>  (127) 
78.8713

>  <b_lp_Chiralities_Consistent>  (127) 
1

>  <s_lp_Variant>  (127) 
34:0-1

>  <s_i_glide_gridfile>  (127) 
pfpi4k_grid

>  <i_i_glide_lignum>  (127) 
8

>  <i_i_glide_rotatable_bonds>  (127) 
1

>  <r_i_docking_score>  (127) 
-3.88162

>  <r_i_glide_ligand_efficiency>  (127) 
-0.298586

>  <r_i_glide_ligand_efficiency_sa>  (127) 
-0.702076

>  <r_i_glide_ligand_efficiency_ln>  (127) 
-1.08883

>  <r_i_glide_gscore>  (127) 
-3.88162

>  <r_i_glide_lipo>  (127) 
-0.311055

>  <r_i_glide_hbond>  (127) 
-0.136662

>  <r_i_glide_metal>  (127) 
-0

>  <r_i_glide_rewards>  (127) 
-2.34506

>  <r_i_glide_evdw>  (127) 
-18.0985

>  <r_i_glide_ecoul>  (127) 
-1.2261

>  <r_i_glide_erotb>  (127) 
0

>  <r_i_glide_esite>  (127) 
0

>  <r_i_glide_emodel>  (127) 
-25.3094

>  <r_i_glide_energy>  (127) 
-19.3246

>  <r_i_glide_einternal>  (127) 
0.302671

>  <r_i_glide_intrahb_reward>  (127) 
-0

>  <i_i_glide_confnum>  (127) 
2

>  <i_i_glide_posenum>  (127) 
5

>  <r_i_glide_eff_state_penalty>  (127) 
0

>  <ligand_id>  (127) 
34

>  <original_smiles>  (127) 
O=C(O)C12CC1C1CC3CC1CC32

>  <smiles>  (127) 
[H]C1([H])C2([H])C([H])([H])C3([H])C1([H])C([H])([H])C2([H])C1([H])C([H])([H])C31C(=O)[O-]

$$$$
34:1:0
     RDKit          3D

 27 30  0  0  1  0  0  0  0  0999 V2000
    2.4769   -4.2936    1.6342 O   0  0  0  0  0  0  0  0  0  0  0  0
    2.7196   -4.5562    0.4581 C   0  0  0  0  0  0  0  0  0  0  0  0
    1.8903   -5.3065   -0.3197 O   0  0  0  0  0  0  0  0  0  0  0  0
    3.9652   -4.1508   -0.2702 C   0  0  2  0  0  0  0  0  0  0  0  0
    5.2511   -4.8935    0.1406 C   0  0  0  0  0  0  0  0  0  0  0  0
    5.0713   -3.4672    0.5330 C   0  0  1  0  0  0  0  0  0  0  0  0
    5.5075   -2.1778   -0.1738 C   0  0  2  0  0  0  0  0  0  0  0  0
    4.2040   -1.3655   -0.1013 C   0  0  0  0  0  0  0  0  0  0  0  0
    3.6061   -1.8212   -1.4402 C   0  0  1  0  0  0  0  0  0  0  0  0
    4.7302   -1.2554   -2.3065 C   0  0  0  0  0  0  0  0  0  0  0  0
    5.7264   -2.2730   -1.7536 C   0  0  2  0  0  0  0  0  0  0  0  0
    5.0326   -3.4860   -2.3885 C   0  0  0  0  0  0  0  0  0  0  0  0
    3.7175   -3.4046   -1.6099 C   0  0  1  0  0  0  0  0  0  0  0  0
    2.2486   -5.4563   -1.2018 H   0  0  0  0  0  0  0  0  0  0  0  0
    5.1617   -5.6288    0.9408 H   0  0  0  0  0  0  0  0  0  0  0  0
    6.0888   -5.0798   -0.5136 H   0  0  0  0  0  0  0  0  0  0  0  0
    4.9062   -3.3277    1.5994 H   0  0  0  0  0  0  0  0  0  0  0  0
    6.3288   -1.6975    0.3620 H   0  0  0  0  0  0  0  0  0  0  0  0
    3.5601   -1.5962    0.7480 H   0  0  0  0  0  0  0  0  0  0  0  0
    4.3881   -0.2885   -0.0567 H   0  0  0  0  0  0  0  0  0  0  0  0
    2.6262   -1.4012   -1.6656 H   0  0  0  0  0  0  0  0  0  0  0  0
    4.5336   -1.3116   -3.3788 H   0  0  0  0  0  0  0  0  0  0  0  0
    5.0053   -0.2220   -2.0967 H   0  0  0  0  0  0  0  0  0  0  0  0
    6.7546   -2.1367   -2.0926 H   0  0  0  0  0  0  0  0  0  0  0  0
    4.8709   -3.3727   -3.4609 H   0  0  0  0  0  0  0  0  0  0  0  0
    5.5624   -4.4245   -2.3314 H   0  0  0  0  0  0  0  0  0  0  0  0
    2.8936   -3.8316   -2.1800 H   0  0  0  0  0  0  0  0  0  0  0  0
  1  2  2  0
  2  3  1  0
  4  2  1  1
  3 14  1  0
  4  6  1  0
  4 13  1  0
  4  5  1  0
  5  6  1  0
  5 15  1  0
  5 16  1  0
  6  7  1  0
  6 17  1  1
  7 11  1  0
  7  8  1  0
  7 18  1  1
  8  9  1  0
  8 19  1  0
  8 20  1  0
  9 13  1  0
  9 10  1  0
  9 21  1  6
 10 11  1  0
 10 22  1  0
 10 23  1  0
 11 12  1  0
 11 24  1  1
 12 13  1  0
 12 25  1  0
 12 26  1  0
 13 27  1  6
M  END
>  <i_m_ct_stereo_status>  (128) 
1

>  <s_m_source_file>  (128) 
/var/tmp/pbs.5076255.sched01/tmpar858yha/42b8svm9_t.sdf

>  <i_m_source_file_index>  (128) 
9

>  <i_lp_mmshare_version>  (128) 
48012

>  <i_f3d_flags>  (128) 
0

>  <s_epik_input>  (128) 
Tz1DKFtPSF0pW0NAQF0xMltDQEBIXShbQ0gyXTEpW0NASF0zW0NAQEhdNFtDSDJdW0NASF0oW0NIMl0zKVtDQEhdMltDSDJdNA==

>  <s_epik_cmdline>  (128) 
J2VwaWtfcHl0aG9uJywgJy1waHQnLCAnMi4wJywgJy1waCcsICc3LjAnLCAnLXRuJywgJzgnLCAnLW1hJywgJzIwMCcsICctaW1hZScsICc8aW5maWxlLm1hZT4nLCAnLW9tYWUnLCAnPG91dGZpbGUubWFlPic=

>  <r_epik_Ionization_Penalty>  (128) 
2.45756

>  <r_epik_Ionization_Penalty_Charging>  (128) 
0

>  <r_epik_Ionization_Penalty_Neutral>  (128) 
2.45756

>  <r_epik_State_Penalty>  (128) 
2.61951

>  <r_epik_Charging_Adjusted_Penalty>  (128) 
2.61951

>  <i_epik_Tot_Q>  (128) 
0

>  <i_epik_Tot_abs_Q>  (128) 
0

>  <s_lp_Force_Field>  (128) 
OPLS3e

>  <r_lp_Energy>  (128) 
77.8279

>  <b_lp_Chiralities_Consistent>  (128) 
1

>  <s_lp_Variant>  (128) 
34:0-2

>  <s_i_glide_gridfile>  (128) 
pfpi4k_grid

>  <i_i_glide_lignum>  (128) 
9

>  <i_i_glide_rotatable_bonds>  (128) 
2

>  <r_i_docking_score>  (128) 
-4.20948

>  <r_i_glide_ligand_efficiency>  (128) 
-0.323807

>  <r_i_glide_ligand_efficiency_sa>  (128) 
-0.761378

>  <r_i_glide_ligand_efficiency_ln>  (128) 
-1.1808

>  <r_i_glide_gscore>  (128) 
-4.20948

>  <r_i_glide_lipo>  (128) 
-0.213181

>  <r_i_glide_hbond>  (128) 
0

>  <r_i_glide_metal>  (128) 
-0

>  <r_i_glide_rewards>  (128) 
-2.1939

>  <r_i_glide_evdw>  (128) 
-15.5245

>  <r_i_glide_ecoul>  (128) 
-6.62946

>  <r_i_glide_erotb>  (128) 
0

>  <r_i_glide_esite>  (128) 
-0.0317564

>  <r_i_glide_emodel>  (128) 
-27.6333

>  <r_i_glide_energy>  (128) 
-22.154

>  <r_i_glide_einternal>  (128) 
1.16142

>  <r_i_glide_intrahb_reward>  (128) 
-0

>  <i_i_glide_confnum>  (128) 
1

>  <i_i_glide_posenum>  (128) 
39

>  <r_i_glide_eff_state_penalty>  (128) 
0

>  <ligand_id>  (128) 
34

>  <original_smiles>  (128) 
O=C(O)C12CC1C1CC3CC1CC32

>  <smiles>  (128) 
[H]OC(=O)C12C([H])([H])C1([H])C1([H])C([H])([H])C3([H])C([H])([H])C1([H])C([H])([H])C32[H]

$$$$
34:1:1
     RDKit          3D

 27 30  0  0  1  0  0  0  0  0999 V2000
    1.4090   -5.8597    0.6962 O   0  0  0  0  0  0  0  0  0  0  0  0
    2.6182   -5.9665    0.8934 C   0  0  0  0  0  0  0  0  0  0  0  0
    3.5110   -4.9919    0.5670 O   0  0  0  0  0  0  0  0  0  0  0  0
    3.2854   -7.1622    1.5201 C   0  0  2  0  0  0  0  0  0  0  0  0
    2.3769   -8.0717    2.3779 C   0  0  0  0  0  0  0  0  0  0  0  0
    3.4060   -7.2118    3.0392 C   0  0  1  0  0  0  0  0  0  0  0  0
    4.8566   -7.5408    3.4295 C   0  0  2  0  0  0  0  0  0  0  0  0
    5.5850   -6.3096    2.8588 C   0  0  0  0  0  0  0  0  0  0  0  0
    5.8991   -6.8788    1.4664 C   0  0  1  0  0  0  0  0  0  0  0  0
    6.7726   -8.0291    1.9747 C   0  0  0  0  0  0  0  0  0  0  0  0
    5.5675   -8.7230    2.6141 C   0  0  2  0  0  0  0  0  0  0  0  0
    4.8711   -9.0420    1.2793 C   0  0  0  0  0  0  0  0  0  0  0  0
    4.6139   -7.5960    0.8358 C   0  0  1  0  0  0  0  0  0  0  0  0
    3.0780   -4.2586    0.1570 H   0  0  0  0  0  0  0  0  0  0  0  0
    1.3412   -7.7639    2.5122 H   0  0  0  0  0  0  0  0  0  0  0  0
    2.5032   -9.1414    2.5055 H   0  0  0  0  0  0  0  0  0  0  0  0
    2.9915   -6.3746    3.6010 H   0  0  0  0  0  0  0  0  0  0  0  0
    4.9648   -7.6268    4.5116 H   0  0  0  0  0  0  0  0  0  0  0  0
    4.9853   -5.3990    2.8202 H   0  0  0  0  0  0  0  0  0  0  0  0
    6.4786   -6.0531    3.4320 H   0  0  0  0  0  0  0  0  0  0  0  0
    6.4126   -6.1797    0.8070 H   0  0  0  0  0  0  0  0  0  0  0  0
    7.2771   -8.5872    1.1821 H   0  0  0  0  0  0  0  0  0  0  0  0
    7.5477   -7.7519    2.6935 H   0  0  0  0  0  0  0  0  0  0  0  0
    5.8208   -9.6069    3.2018 H   0  0  0  0  0  0  0  0  0  0  0  0
    5.5232   -9.5637    0.5771 H   0  0  0  0  0  0  0  0  0  0  0  0
    4.0138   -9.7044    1.3291 H   0  0  0  0  0  0  0  0  0  0  0  0
    4.5538   -7.5083   -0.2496 H   0  0  0  0  0  0  0  0  0  0  0  0
  1  2  2  0
  2  3  1  0
  4  2  1  1
  3 14  1  0
  4  6  1  0
  4 13  1  0
  4  5  1  0
  5  6  1  0
  5 15  1  0
  5 16  1  0
  6  7  1  0
  6 17  1  1
  7 11  1  0
  7  8  1  0
  7 18  1  1
  8  9  1  0
  8 19  1  0
  8 20  1  0
  9 13  1  0
  9 10  1  0
  9 21  1  6
 10 11  1  0
 10 22  1  0
 10 23  1  0
 11 12  1  0
 11 24  1  1
 12 13  1  0
 12 25  1  0
 12 26  1  0
 13 27  1  6
M  END
>  <i_m_ct_stereo_status>  (129) 
1

>  <s_m_source_file>  (129) 
/var/tmp/pbs.5076255.sched01/tmpar858yha/42b8svm9_t.sdf

>  <i_m_source_file_index>  (129) 
9

>  <i_lp_mmshare_version>  (129) 
48012

>  <i_f3d_flags>  (129) 
0

>  <s_epik_input>  (129) 
Tz1DKFtPSF0pW0NAQF0xMltDQEBIXShbQ0gyXTEpW0NASF0zW0NAQEhdNFtDSDJdW0NASF0oW0NIMl0zKVtDQEhdMltDSDJdNA==

>  <s_epik_cmdline>  (129) 
J2VwaWtfcHl0aG9uJywgJy1waHQnLCAnMi4wJywgJy1waCcsICc3LjAnLCAnLXRuJywgJzgnLCAnLW1hJywgJzIwMCcsICctaW1hZScsICc8aW5maWxlLm1hZT4nLCAnLW9tYWUnLCAnPG91dGZpbGUubWFlPic=

>  <r_epik_Ionization_Penalty>  (129) 
2.45756

>  <r_epik_Ionization_Penalty_Charging>  (129) 
0

>  <r_epik_Ionization_Penalty_Neutral>  (129) 
2.45756

>  <r_epik_State_Penalty>  (129) 
2.61951

>  <r_epik_Charging_Adjusted_Penalty>  (129) 
2.61951

>  <i_epik_Tot_Q>  (129) 
0

>  <i_epik_Tot_abs_Q>  (129) 
0

>  <s_lp_Force_Field>  (129) 
OPLS3e

>  <r_lp_Energy>  (129) 
77.8279

>  <b_lp_Chiralities_Consistent>  (129) 
1

>  <s_lp_Variant>  (129) 
34:0-2

>  <s_i_glide_gridfile>  (129) 
pfpi4k_grid

>  <i_i_glide_lignum>  (129) 
9

>  <i_i_glide_rotatable_bonds>  (129) 
2

>  <r_i_docking_score>  (129) 
-3.82883

>  <r_i_glide_ligand_efficiency>  (129) 
-0.294526

>  <r_i_glide_ligand_efficiency_sa>  (129) 
-0.692528

>  <r_i_glide_ligand_efficiency_ln>  (129) 
-1.07402

>  <r_i_glide_gscore>  (129) 
-3.82883

>  <r_i_glide_lipo>  (129) 
-0.31945

>  <r_i_glide_hbond>  (129) 
-0.157193

>  <r_i_glide_metal>  (129) 
-0

>  <r_i_glide_rewards>  (129) 
-2.1939

>  <r_i_glide_evdw>  (129) 
-13.7502

>  <r_i_glide_ecoul>  (129) 
-2.99527

>  <r_i_glide_erotb>  (129) 
0

>  <r_i_glide_esite>  (129) 
-0.0214853

>  <r_i_glide_emodel>  (129) 
-22.0995

>  <r_i_glide_energy>  (129) 
-16.7455

>  <r_i_glide_einternal>  (129) 
0.455729

>  <r_i_glide_intrahb_reward>  (129) 
-0

>  <i_i_glide_confnum>  (129) 
1

>  <i_i_glide_posenum>  (129) 
9

>  <r_i_glide_eff_state_penalty>  (129) 
0

>  <ligand_id>  (129) 
34

>  <original_smiles>  (129) 
O=C(O)C12CC1C1CC3CC1CC32

>  <smiles>  (129) 
[H]OC(=O)C12C([H])([H])C1([H])C1([H])C([H])([H])C3([H])C([H])([H])C1([H])C([H])([H])C32[H]

$$$$
34:1:2
     RDKit          3D

 27 30  0  0  1  0  0  0  0  0999 V2000
    3.4003   -2.4799    2.8651 O   0  0  0  0  0  0  0  0  0  0  0  0
    2.8357   -2.2609    1.7962 C   0  0  0  0  0  0  0  0  0  0  0  0
    1.8047   -1.3738    1.6543 O   0  0  0  0  0  0  0  0  0  0  0  0
    3.1431   -2.9784    0.5157 C   0  0  2  0  0  0  0  0  0  0  0  0
    2.5793   -4.4069    0.3768 C   0  0  0  0  0  0  0  0  0  0  0  0
    4.0374   -4.2205    0.5931 C   0  0  1  0  0  0  0  0  0  0  0  0
    5.1754   -4.1124   -0.4264 C   0  0  2  0  0  0  0  0  0  0  0  0
    5.9194   -2.8838    0.1286 C   0  0  0  0  0  0  0  0  0  0  0  0
    5.1778   -1.8089   -0.6814 C   0  0  1  0  0  0  0  0  0  0  0  0
    5.6151   -2.3390   -2.0494 C   0  0  0  0  0  0  0  0  0  0  0  0
    4.7731   -3.6020   -1.8898 C   0  0  2  0  0  0  0  0  0  0  0  0
    3.4201   -2.8693   -1.9314 C   0  0  0  0  0  0  0  0  0  0  0  0
    3.5952   -2.0483   -0.6474 C   0  0  1  0  0  0  0  0  0  0  0  0
    1.4800   -1.2751    0.7569 H   0  0  0  0  0  0  0  0  0  0  0  0
    2.0169   -4.7892    1.2247 H   0  0  0  0  0  0  0  0  0  0  0  0
    2.2849   -4.8667   -0.5590 H   0  0  0  0  0  0  0  0  0  0  0  0
    4.3778   -4.5464    1.5759 H   0  0  0  0  0  0  0  0  0  0  0  0
    5.7869   -5.0165   -0.4249 H   0  0  0  0  0  0  0  0  0  0  0  0
    5.8280   -2.7392    1.2065 H   0  0  0  0  0  0  0  0  0  0  0  0
    6.9906   -2.9238   -0.0789 H   0  0  0  0  0  0  0  0  0  0  0  0
    5.4985   -0.7893   -0.4660 H   0  0  0  0  0  0  0  0  0  0  0  0
    5.3324   -1.6932   -2.8824 H   0  0  0  0  0  0  0  0  0  0  0  0
    6.6826   -2.5465   -2.1652 H   0  0  0  0  0  0  0  0  0  0  0  0
    4.9060   -4.3348   -2.6883 H   0  0  0  0  0  0  0  0  0  0  0  0
    3.3095   -2.2228   -2.8029 H   0  0  0  0  0  0  0  0  0  0  0  0
    2.5390   -3.4966   -1.9963 H   0  0  0  0  0  0  0  0  0  0  0  0
    3.0173   -1.1246   -0.6832 H   0  0  0  0  0  0  0  0  0  0  0  0
  1  2  2  0
  2  3  1  0
  4  2  1  1
  3 14  1  0
  4  6  1  0
  4 13  1  0
  4  5  1  0
  5  6  1  0
  5 15  1  0
  5 16  1  0
  6  7  1  0
  6 17  1  1
  7 11  1  0
  7  8  1  0
  7 18  1  6
  8  9  1  0
  8 19  1  0
  8 20  1  0
  9 13  1  0
  9 10  1  0
  9 21  1  1
 10 11  1  0
 10 22  1  0
 10 23  1  0
 11 12  1  0
 11 24  1  6
 12 13  1  0
 12 25  1  0
 12 26  1  0
 13 27  1  6
M  END
>  <i_m_ct_stereo_status>  (130) 
1

>  <s_m_source_file>  (130) 
/var/tmp/pbs.5076255.sched01/tmpar858yha/42b8svm9_t.sdf

>  <i_m_source_file_index>  (130) 
9

>  <i_lp_mmshare_version>  (130) 
48012

>  <i_f3d_flags>  (130) 
0

>  <s_epik_input>  (130) 
Tz1DKFtPSF0pW0NAQF0xMltDQEBIXShbQ0gyXTEpW0NASF0zW0NAQEhdNFtDSDJdW0NASF0oW0NIMl0zKVtDQEhdMltDSDJdNA==

>  <s_epik_cmdline>  (130) 
J2VwaWtfcHl0aG9uJywgJy1waHQnLCAnMi4wJywgJy1waCcsICc3LjAnLCAnLXRuJywgJzgnLCAnLW1hJywgJzIwMCcsICctaW1hZScsICc8aW5maWxlLm1hZT4nLCAnLW9tYWUnLCAnPG91dGZpbGUubWFlPic=

>  <r_epik_Ionization_Penalty>  (130) 
2.45756

>  <r_epik_Ionization_Penalty_Charging>  (130) 
0

>  <r_epik_Ionization_Penalty_Neutral>  (130) 
2.45756

>  <r_epik_State_Penalty>  (130) 
2.61951

>  <r_epik_Charging_Adjusted_Penalty>  (130) 
2.61951

>  <i_epik_Tot_Q>  (130) 
0

>  <i_epik_Tot_abs_Q>  (130) 
0

>  <s_lp_Force_Field>  (130) 
OPLS3e

>  <r_lp_Energy>  (130) 
77.8279

>  <b_lp_Chiralities_Consistent>  (130) 
1

>  <s_lp_Variant>  (130) 
34:0-2

>  <s_i_glide_gridfile>  (130) 
pfpi4k_grid

>  <i_i_glide_lignum>  (130) 
9

>  <i_i_glide_rotatable_bonds>  (130) 
2

>  <r_i_docking_score>  (130) 
-3.78981

>  <r_i_glide_ligand_efficiency>  (130) 
-0.291524

>  <r_i_glide_ligand_efficiency_sa>  (130) 
-0.68547

>  <r_i_glide_ligand_efficiency_ln>  (130) 
-1.06308

>  <r_i_glide_gscore>  (130) 
-3.78981

>  <r_i_glide_lipo>  (130) 
-0.130695

>  <r_i_glide_hbond>  (130) 
0

>  <r_i_glide_metal>  (130) 
-0

>  <r_i_glide_rewards>  (130) 
-2.1939

>  <r_i_glide_evdw>  (130) 
-15.2808

>  <r_i_glide_ecoul>  (130) 
-4.55562

>  <r_i_glide_erotb>  (130) 
0

>  <r_i_glide_esite>  (130) 
-0.0178272

>  <r_i_glide_emodel>  (130) 
-24.6482

>  <r_i_glide_energy>  (130) 
-19.8364

>  <r_i_glide_einternal>  (130) 
1.27786

>  <r_i_glide_intrahb_reward>  (130) 
-0

>  <i_i_glide_confnum>  (130) 
2

>  <i_i_glide_posenum>  (130) 
25

>  <r_i_glide_eff_state_penalty>  (130) 
0

>  <ligand_id>  (130) 
34

>  <original_smiles>  (130) 
O=C(O)C12CC1C1CC3CC1CC32

>  <smiles>  (130) 
[H]OC(=O)C12C([H])([H])C1([H])C1([H])C([H])([H])C3([H])C([H])([H])C1([H])C([H])([H])C32[H]

$$$$
35:0:0
     RDKit          3D

 39 46  0  0  1  0  0  0  0  0999 V2000
    3.0204   -1.0796   -2.7137 O   0  0  0  0  0  0  0  0  0  0  0  0
    3.9596   -2.0758   -2.3868 C   0  0  1  0  0  0  0  0  0  0  0  0
    4.2096   -3.1203   -3.4763 C   0  0  0  0  0  0  0  0  0  0  0  0
    4.8403   -3.7616   -2.2460 C   0  0  1  0  0  0  0  0  0  0  0  0
    6.0187   -2.8908   -1.8572 C   0  0  0  0  0  0  0  0  0  0  0  0
    5.2349   -1.5828   -1.7003 C   0  0  2  0  0  0  0  0  0  0  0  0
    4.8966   -1.1320   -0.2344 C   0  0  1  0  0  0  0  0  0  0  0  0
    3.5158   -1.5944    0.3180 C   0  0  1  0  0  0  0  0  0  0  0  0
    3.3985   -3.1033   -0.0280 C   0  0  2  0  0  0  0  0  0  0  0  0
    4.4934   -3.8324    0.7522 C   0  0  2  0  0  0  0  0  0  0  0  0
    4.6774   -3.5490    2.1998 C   0  0  2  0  0  0  0  0  0  0  0  0
    3.9410   -2.4151    2.8420 C   0  0  1  0  0  0  0  0  0  0  0  0
    4.8636   -1.4055    3.5101 C   0  0  0  0  0  0  0  0  0  0  0  0
    5.0429   -0.8284    2.1037 C   0  0  2  0  0  0  0  0  0  0  0  0
    3.6077   -1.2870    1.8388 C   0  0  1  0  0  0  0  0  0  0  0  0
    5.7972   -1.5258    0.9628 C   0  0  2  0  0  0  0  0  0  0  0  0
    7.1221   -1.0564    0.8186 O   0  0  0  0  0  0  0  0  0  0  0  0
    5.7341   -3.0516    1.2305 C   0  0  2  0  0  0  0  0  0  0  0  0
    3.5184   -3.3007   -1.5664 C   0  0  1  0  0  0  0  0  0  0  0  0
    2.3378   -1.1118   -2.0536 H   0  0  0  0  0  0  0  0  0  0  0  0
    3.3280   -3.6073   -3.9317 H   0  0  0  0  0  0  0  0  0  0  0  0
    4.9309   -2.8001   -4.2175 H   0  0  0  0  0  0  0  0  0  0  0  0
    4.9922   -4.8301   -2.3415 H   0  0  0  0  0  0  0  0  0  0  0  0
    6.5669   -3.2702   -1.0105 H   0  0  0  0  0  0  0  0  0  0  0  0
    6.7269   -2.8375   -2.6785 H   0  0  0  0  0  0  0  0  0  0  0  0
    5.7015   -0.7780   -2.2617 H   0  0  0  0  0  0  0  0  0  0  0  0
    4.8533   -0.0472   -0.2674 H   0  0  0  0  0  0  0  0  0  0  0  0
    2.7044   -1.0155   -0.1173 H   0  0  0  0  0  0  0  0  0  0  0  0
    2.4385   -3.4822    0.3326 H   0  0  0  0  0  0  0  0  0  0  0  0
    4.6735   -4.8571    0.4632 H   0  0  0  0  0  0  0  0  0  0  0  0
    4.9627   -4.3619    2.8529 H   0  0  0  0  0  0  0  0  0  0  0  0
    3.0874   -2.6827    3.4587 H   0  0  0  0  0  0  0  0  0  0  0  0
    4.3543   -0.7289    4.2076 H   0  0  0  0  0  0  0  0  0  0  0  0
    5.7772   -1.8314    3.9085 H   0  0  0  0  0  0  0  0  0  0  0  0
    5.0826    0.2499    2.1144 H   0  0  0  0  0  0  0  0  0  0  0  0
    2.8635   -0.5829    2.2276 H   0  0  0  0  0  0  0  0  0  0  0  0
    7.2137   -0.2172    1.2526 H   0  0  0  0  0  0  0  0  0  0  0  0
    6.6815   -3.5663    1.2865 H   0  0  0  0  0  0  0  0  0  0  0  0
    2.6260   -3.7922   -1.9664 H   0  0  0  0  0  0  0  0  0  0  0  0
  2  1  1  6
  1 20  1  0
  2  6  1  0
  2 19  1  0
  2  3  1  0
  3  4  1  0
  3 21  1  0
  3 22  1  0
  4 19  1  0
  4  5  1  0
  4 23  1  6
  5  6  1  0
  5 24  1  0
  5 25  1  0
  6  7  1  0
  6 26  1  6
  7 16  1  0
  7  8  1  0
  7 27  1  6
  8 15  1  0
  8  9  1  0
  8 28  1  6
  9 10  1  0
  9 19  1  0
  9 29  1  1
 10 18  1  0
 10 11  1  0
 10 30  1  1
 11 18  1  0
 11 12  1  0
 11 31  1  1
 12 15  1  0
 12 13  1  0
 12 32  1  1
 13 14  1  0
 13 33  1  0
 13 34  1  0
 14 15  1  0
 14 16  1  0
 14 35  1  1
 15 36  1  1
 16 17  1  6
 16 18  1  0
 17 37  1  0
 18 38  1  1
 19 39  1  6
M  END
>  <i_m_ct_stereo_status>  (131) 
1

>  <s_m_source_file>  (131) 
/var/tmp/pbs.5076255.sched01/tmpar858yha/42b8svm9_t.sdf

>  <i_m_source_file_index>  (131) 
10

>  <i_lp_mmshare_version>  (131) 
48012

>  <i_f3d_flags>  (131) 
0

>  <s_epik_input>  (131) 
W09IXVtDQF0xMltDQEhdM1tDQEhdNFtDQEhdNVtDQEBIXShbQ0BASF0yW0NAQEhdKFtDSDJdMSlbQ0gyXTMpW0NAQEhdNltDQEBIXTdbQ0BASF04W0NASF01W0NAQEhdKFtDSDJdOClbQ0BAXTQoW09IXSlbQ0BIXTY3

>  <s_epik_cmdline>  (131) 
J2VwaWtfcHl0aG9uJywgJy1waHQnLCAnMi4wJywgJy1waCcsICc3LjAnLCAnLXRuJywgJzgnLCAnLW1hJywgJzIwMCcsICctaW1hZScsICc8aW5maWxlLm1hZT4nLCAnLW9tYWUnLCAnPG91dGZpbGUubWFlPic=

>  <r_lp_tautomer_probability>  (131) 
1

>  <r_epik_Ionization_Penalty>  (131) 
8.73123e-06

>  <r_epik_Ionization_Penalty_Charging>  (131) 
0

>  <r_epik_Ionization_Penalty_Neutral>  (131) 
8.73123e-06

>  <r_epik_State_Penalty>  (131) 
-0

>  <r_epik_Charging_Adjusted_Penalty>  (131) 
0

>  <i_epik_Tot_Q>  (131) 
0

>  <i_epik_Tot_abs_Q>  (131) 
0

>  <s_lp_Force_Field>  (131) 
OPLS3e

>  <r_lp_Energy>  (131) 
104.706

>  <b_lp_Chiralities_Consistent>  (131) 
1

>  <s_lp_Variant>  (131) 
35:0-1

>  <s_i_glide_gridfile>  (131) 
pfpi4k_grid

>  <i_i_glide_lignum>  (131) 
10

>  <i_i_glide_rotatable_bonds>  (131) 
2

>  <r_i_docking_score>  (131) 
-4.87462

>  <r_i_glide_ligand_efficiency>  (131) 
-0.256559

>  <r_i_glide_ligand_efficiency_sa>  (131) 
-0.684603

>  <r_i_glide_ligand_efficiency_ln>  (131) 
-1.23582

>  <r_i_glide_gscore>  (131) 
-4.87462

>  <r_i_glide_lipo>  (131) 
-0.719486

>  <r_i_glide_hbond>  (131) 
-0.456

>  <r_i_glide_metal>  (131) 
-0

>  <r_i_glide_rewards>  (131) 
-1.66132

>  <r_i_glide_evdw>  (131) 
-22.5164

>  <r_i_glide_ecoul>  (131) 
-6.07998

>  <r_i_glide_erotb>  (131) 
0

>  <r_i_glide_esite>  (131) 
0

>  <r_i_glide_emodel>  (131) 
-36.0038

>  <r_i_glide_energy>  (131) 
-28.5964

>  <r_i_glide_einternal>  (131) 
2.0626

>  <r_i_glide_intrahb_reward>  (131) 
-0

>  <i_i_glide_confnum>  (131) 
2

>  <i_i_glide_posenum>  (131) 
36

>  <r_i_glide_eff_state_penalty>  (131) 
0

>  <ligand_id>  (131) 
35

>  <original_smiles>  (131) 
OC12CC3CC1C1C4C(C5C6C7CC(C74)C1(O)C65)C32

>  <smiles>  (131) 
[H]OC12C([H])([H])C3([H])C([H])([H])C1([H])C1([H])C4([H])C([H])(C5([H])C6([H])C7([H])C([H])([H])C([H])(C74[H])C1(O[H])C65[H])C32[H]

$$$$
35:0:1
     RDKit          3D

 39 46  0  0  1  0  0  0  0  0999 V2000
    2.8284   -0.7303   -2.7198 O   0  0  0  0  0  0  0  0  0  0  0  0
    3.7124   -1.8199   -2.6134 C   0  0  1  0  0  0  0  0  0  0  0  0
    3.8238   -2.6442   -3.8986 C   0  0  0  0  0  0  0  0  0  0  0  0
    4.4803   -3.5332   -2.8464 C   0  0  1  0  0  0  0  0  0  0  0  0
    5.7190   -2.8314   -2.3501 C   0  0  0  0  0  0  0  0  0  0  0  0
    5.0313   -1.5314   -1.9062 C   0  0  2  0  0  0  0  0  0  0  0  0
    4.7948   -1.3541   -0.3715 C   0  0  1  0  0  0  0  0  0  0  0  0
    3.4184   -1.8360    0.1644 C   0  0  1  0  0  0  0  0  0  0  0  0
    3.1824   -3.2426   -0.4640 C   0  0  2  0  0  0  0  0  0  0  0  0
    4.2616   -4.1700    0.1041 C   0  0  2  0  0  0  0  0  0  0  0  0
    4.5201   -4.1810    1.5673 C   0  0  2  0  0  0  0  0  0  0  0  0
    3.8888   -3.1539    2.4502 C   0  0  1  0  0  0  0  0  0  0  0  0
    4.8979   -2.3410    3.2513 C   0  0  0  0  0  0  0  0  0  0  0  0
    5.0564   -1.5162    1.9690 C   0  0  2  0  0  0  0  0  0  0  0  0
    3.5853   -1.8310    1.7046 C   0  0  1  0  0  0  0  0  0  0  0  0
    5.7176   -2.0191    0.6807 C   0  0  2  0  0  0  0  0  0  0  0  0
    7.0581   -1.5913    0.5949 O   0  0  0  0  0  0  0  0  0  0  0  0
    5.5649   -3.5715    0.6545 C   0  0  2  0  0  0  0  0  0  0  0  0
    3.2097   -3.1466   -2.0174 C   0  0  1  0  0  0  0  0  0  0  0  0
    2.1454   -0.8669   -2.0764 H   0  0  0  0  0  0  0  0  0  0  0  0
    2.8974   -2.9825   -4.3601 H   0  0  0  0  0  0  0  0  0  0  0  0
    4.5228   -2.1880   -4.6001 H   0  0  0  0  0  0  0  0  0  0  0  0
    4.5705   -4.5767   -3.1523 H   0  0  0  0  0  0  0  0  0  0  0  0
    6.2752   -3.3992   -1.6238 H   0  0  0  0  0  0  0  0  0  0  0  0
    6.4031   -2.6610   -3.1726 H   0  0  0  0  0  0  0  0  0  0  0  0
    5.5240   -0.6581   -2.3196 H   0  0  0  0  0  0  0  0  0  0  0  0
    4.8297   -0.2752   -0.2026 H   0  0  0  0  0  0  0  0  0  0  0  0
    2.6166   -1.1458   -0.1110 H   0  0  0  0  0  0  0  0  0  0  0  0
    2.2117   -3.6286   -0.1304 H   0  0  0  0  0  0  0  0  0  0  0  0
    4.3500   -5.1326   -0.3865 H   0  0  0  0  0  0  0  0  0  0  0  0
    4.7767   -5.1253    2.0351 H   0  0  0  0  0  0  0  0  0  0  0  0
    3.0468   -3.4871    3.0544 H   0  0  0  0  0  0  0  0  0  0  0  0
    4.4641   -1.7873    4.0857 H   0  0  0  0  0  0  0  0  0  0  0  0
    5.7885   -2.9026    3.5233 H   0  0  0  0  0  0  0  0  0  0  0  0
    5.1842   -0.4509    2.1797 H   0  0  0  0  0  0  0  0  0  0  0  0
    2.9121   -1.1783    2.2585 H   0  0  0  0  0  0  0  0  0  0  0  0
    7.5009   -1.9267    1.3539 H   0  0  0  0  0  0  0  0  0  0  0  0
    6.4797   -4.1371    0.5531 H   0  0  0  0  0  0  0  0  0  0  0  0
    2.2735   -3.5055   -2.4441 H   0  0  0  0  0  0  0  0  0  0  0  0
  2  1  1  6
  1 20  1  0
  2  6  1  0
  2 19  1  0
  2  3  1  0
  3  4  1  0
  3 21  1  0
  3 22  1  0
  4 19  1  0
  4  5  1  0
  4 23  1  6
  5  6  1  0
  5 24  1  0
  5 25  1  0
  6  7  1  0
  6 26  1  6
  7 16  1  0
  7  8  1  0
  7 27  1  6
  8 15  1  0
  8  9  1  0
  8 28  1  1
  9 10  1  0
  9 19  1  0
  9 29  1  6
 10 18  1  0
 10 11  1  0
 10 30  1  6
 11 18  1  0
 11 12  1  0
 11 31  1  1
 12 15  1  0
 12 13  1  0
 12 32  1  1
 13 14  1  0
 13 33  1  0
 13 34  1  0
 14 15  1  0
 14 16  1  0
 14 35  1  1
 15 36  1  1
 16 17  1  6
 16 18  1  0
 17 37  1  0
 18 38  1  6
 19 39  1  6
M  END
>  <i_m_ct_stereo_status>  (132) 
1

>  <s_m_source_file>  (132) 
/var/tmp/pbs.5076255.sched01/tmpar858yha/42b8svm9_t.sdf

>  <i_m_source_file_index>  (132) 
10

>  <i_lp_mmshare_version>  (132) 
48012

>  <i_f3d_flags>  (132) 
0

>  <s_epik_input>  (132) 
W09IXVtDQF0xMltDQEhdM1tDQEhdNFtDQEhdNVtDQEBIXShbQ0BASF0yW0NAQEhdKFtDSDJdMSlbQ0gyXTMpW0NAQEhdNltDQEBIXTdbQ0BASF04W0NASF01W0NAQEhdKFtDSDJdOClbQ0BAXTQoW09IXSlbQ0BIXTY3

>  <s_epik_cmdline>  (132) 
J2VwaWtfcHl0aG9uJywgJy1waHQnLCAnMi4wJywgJy1waCcsICc3LjAnLCAnLXRuJywgJzgnLCAnLW1hJywgJzIwMCcsICctaW1hZScsICc8aW5maWxlLm1hZT4nLCAnLW9tYWUnLCAnPG91dGZpbGUubWFlPic=

>  <r_lp_tautomer_probability>  (132) 
1

>  <r_epik_Ionization_Penalty>  (132) 
8.73123e-06

>  <r_epik_Ionization_Penalty_Charging>  (132) 
0

>  <r_epik_Ionization_Penalty_Neutral>  (132) 
8.73123e-06

>  <r_epik_State_Penalty>  (132) 
-0

>  <r_epik_Charging_Adjusted_Penalty>  (132) 
0

>  <i_epik_Tot_Q>  (132) 
0

>  <i_epik_Tot_abs_Q>  (132) 
0

>  <s_lp_Force_Field>  (132) 
OPLS3e

>  <r_lp_Energy>  (132) 
104.706

>  <b_lp_Chiralities_Consistent>  (132) 
1

>  <s_lp_Variant>  (132) 
35:0-1

>  <s_i_glide_gridfile>  (132) 
pfpi4k_grid

>  <i_i_glide_lignum>  (132) 
10

>  <i_i_glide_rotatable_bonds>  (132) 
2

>  <r_i_docking_score>  (132) 
-3.82211

>  <r_i_glide_ligand_efficiency>  (132) 
-0.201164

>  <r_i_glide_ligand_efficiency_sa>  (132) 
-0.536786

>  <r_i_glide_ligand_efficiency_ln>  (132) 
-0.968987

>  <r_i_glide_gscore>  (132) 
-3.82211

>  <r_i_glide_lipo>  (132) 
-0.514043

>  <r_i_glide_hbond>  (132) 
-0.16

>  <r_i_glide_metal>  (132) 
-0

>  <r_i_glide_rewards>  (132) 
-1.66132

>  <r_i_glide_evdw>  (132) 
-22.2891

>  <r_i_glide_ecoul>  (132) 
-2.48196

>  <r_i_glide_erotb>  (132) 
0

>  <r_i_glide_esite>  (132) 
0

>  <r_i_glide_emodel>  (132) 
-30.8238

>  <r_i_glide_energy>  (132) 
-24.771

>  <r_i_glide_einternal>  (132) 
1.45669

>  <r_i_glide_intrahb_reward>  (132) 
-0

>  <i_i_glide_confnum>  (132) 
1

>  <i_i_glide_posenum>  (132) 
18

>  <r_i_glide_eff_state_penalty>  (132) 
0

>  <ligand_id>  (132) 
35

>  <original_smiles>  (132) 
OC12CC3CC1C1C4C(C5C6C7CC(C74)C1(O)C65)C32

>  <smiles>  (132) 
[H]OC12C([H])([H])C3([H])C([H])([H])C1([H])C1([H])C4([H])C([H])(C5([H])C6([H])C7([H])C([H])([H])C([H])(C74[H])C1(O[H])C65[H])C32[H]

$$$$
35:0:2
     RDKit          3D

 39 46  0  0  1  0  0  0  0  0999 V2000
    5.8131   -0.7105   -0.3226 O   0  0  0  0  0  0  0  0  0  0  0  0
    5.1579   -1.8251   -0.8959 C   0  0  1  0  0  0  0  0  0  0  0  0
    4.6122   -1.6313   -2.3182 C   0  0  0  0  0  0  0  0  0  0  0  0
    3.9147   -2.9067   -1.8578 C   0  0  1  0  0  0  0  0  0  0  0  0
    5.0060   -3.9451   -1.6908 C   0  0  0  0  0  0  0  0  0  0  0  0
    5.8678   -3.1639   -0.6858 C   0  0  2  0  0  0  0  0  0  0  0  0
    5.7586   -3.5921    0.8217 C   0  0  1  0  0  0  0  0  0  0  0  0
    4.7057   -2.8130    1.6724 C   0  0  1  0  0  0  0  0  0  0  0  0
    3.4075   -2.8006    0.8148 C   0  0  2  0  0  0  0  0  0  0  0  0
    2.9346   -4.2519    0.6636 C   0  0  2  0  0  0  0  0  0  0  0  0
    2.8507   -5.1158    1.8727 C   0  0  2  0  0  0  0  0  0  0  0  0
    3.4341   -4.6442    3.1740 C   0  0  1  0  0  0  0  0  0  0  0  0
    4.4814   -5.6015    3.7315 C   0  0  0  0  0  0  0  0  0  0  0  0
    5.4429   -4.8936    2.7687 C   0  0  2  0  0  0  0  0  0  0  0  0
    4.5975   -3.6395    2.9841 C   0  0  1  0  0  0  0  0  0  0  0  0
    5.4020   -5.0464    1.2440 C   0  0  2  0  0  0  0  0  0  0  0  0
    6.3469   -5.9994    0.8190 O   0  0  0  0  0  0  0  0  0  0  0  0
    3.9369   -5.3997    0.8486 C   0  0  2  0  0  0  0  0  0  0  0  0
    3.6831   -2.0995   -0.5451 C   0  0  1  0  0  0  0  0  0  0  0  0
    5.2467    0.0300   -0.4415 H   0  0  0  0  0  0  0  0  0  0  0  0
    3.9890   -0.7535   -2.5151 H   0  0  0  0  0  0  0  0  0  0  0  0
    5.3510   -1.8075   -3.1042 H   0  0  0  0  0  0  0  0  0  0  0  0
    3.0226   -3.1671   -2.4259 H   0  0  0  0  0  0  0  0  0  0  0  0
    4.6388   -4.9170   -1.3978 H   0  0  0  0  0  0  0  0  0  0  0  0
    5.5329   -4.1012   -2.6302 H   0  0  0  0  0  0  0  0  0  0  0  0
    6.9050   -3.1380   -1.0203 H   0  0  0  0  0  0  0  0  0  0  0  0
    6.7348   -3.3593    1.2521 H   0  0  0  0  0  0  0  0  0  0  0  0
    5.0353   -1.7922    1.8887 H   0  0  0  0  0  0  0  0  0  0  0  0
    2.6258   -2.2573    1.3548 H   0  0  0  0  0  0  0  0  0  0  0  0
    2.1592   -4.4123   -0.0745 H   0  0  0  0  0  0  0  0  0  0  0  0
    2.0464   -5.8396    1.9430 H   0  0  0  0  0  0  0  0  0  0  0  0
    2.7143   -4.3179    3.9236 H   0  0  0  0  0  0  0  0  0  0  0  0
    4.7162   -5.4462    4.7877 H   0  0  0  0  0  0  0  0  0  0  0  0
    4.3186   -6.6508    3.4860 H   0  0  0  0  0  0  0  0  0  0  0  0
    6.4408   -4.7861    3.1948 H   0  0  0  0  0  0  0  0  0  0  0  0
    4.8607   -3.1110    3.9037 H   0  0  0  0  0  0  0  0  0  0  0  0
    6.2157   -6.1424   -0.1027 H   0  0  0  0  0  0  0  0  0  0  0  0
    3.8039   -6.3050    0.2679 H   0  0  0  0  0  0  0  0  0  0  0  0
    3.0386   -1.2275   -0.6755 H   0  0  0  0  0  0  0  0  0  0  0  0
  2  1  1  1
  1 20  1  0
  2  6  1  0
  2 19  1  0
  2  3  1  0
  3  4  1  0
  3 21  1  0
  3 22  1  0
  4 19  1  0
  4  5  1  0
  4 23  1  6
  5  6  1  0
  5 24  1  0
  5 25  1  0
  6  7  1  0
  6 26  1  6
  7 16  1  0
  7  8  1  0
  7 27  1  1
  8 15  1  0
  8  9  1  0
  8 28  1  1
  9 10  1  0
  9 19  1  0
  9 29  1  1
 10 18  1  0
 10 11  1  0
 10 30  1  6
 11 18  1  0
 11 12  1  0
 11 31  1  1
 12 15  1  0
 12 13  1  0
 12 32  1  1
 13 14  1  0
 13 33  1  0
 13 34  1  0
 14 15  1  0
 14 16  1  0
 14 35  1  1
 15 36  1  1
 16 17  1  6
 16 18  1  0
 17 37  1  0
 18 38  1  6
 19 39  1  6
M  END
>  <i_m_ct_stereo_status>  (133) 
1

>  <s_m_source_file>  (133) 
/var/tmp/pbs.5076255.sched01/tmpar858yha/42b8svm9_t.sdf

>  <i_m_source_file_index>  (133) 
10

>  <i_lp_mmshare_version>  (133) 
48012

>  <i_f3d_flags>  (133) 
0

>  <s_epik_input>  (133) 
W09IXVtDQF0xMltDQEhdM1tDQEhdNFtDQEhdNVtDQEBIXShbQ0BASF0yW0NAQEhdKFtDSDJdMSlbQ0gyXTMpW0NAQEhdNltDQEBIXTdbQ0BASF04W0NASF01W0NAQEhdKFtDSDJdOClbQ0BAXTQoW09IXSlbQ0BIXTY3

>  <s_epik_cmdline>  (133) 
J2VwaWtfcHl0aG9uJywgJy1waHQnLCAnMi4wJywgJy1waCcsICc3LjAnLCAnLXRuJywgJzgnLCAnLW1hJywgJzIwMCcsICctaW1hZScsICc8aW5maWxlLm1hZT4nLCAnLW9tYWUnLCAnPG91dGZpbGUubWFlPic=

>  <r_lp_tautomer_probability>  (133) 
1

>  <r_epik_Ionization_Penalty>  (133) 
8.73123e-06

>  <r_epik_Ionization_Penalty_Charging>  (133) 
0

>  <r_epik_Ionization_Penalty_Neutral>  (133) 
8.73123e-06

>  <r_epik_State_Penalty>  (133) 
-0

>  <r_epik_Charging_Adjusted_Penalty>  (133) 
0

>  <i_epik_Tot_Q>  (133) 
0

>  <i_epik_Tot_abs_Q>  (133) 
0

>  <s_lp_Force_Field>  (133) 
OPLS3e

>  <r_lp_Energy>  (133) 
104.706

>  <b_lp_Chiralities_Consistent>  (133) 
1

>  <s_lp_Variant>  (133) 
35:0-1

>  <s_i_glide_gridfile>  (133) 
pfpi4k_grid

>  <i_i_glide_lignum>  (133) 
10

>  <i_i_glide_rotatable_bonds>  (133) 
2

>  <r_i_docking_score>  (133) 
-3.47411

>  <r_i_glide_ligand_efficiency>  (133) 
-0.182848

>  <r_i_glide_ligand_efficiency_sa>  (133) 
-0.487912

>  <r_i_glide_ligand_efficiency_ln>  (133) 
-0.880763

>  <r_i_glide_gscore>  (133) 
-3.47411

>  <r_i_glide_lipo>  (133) 
-0.265542

>  <r_i_glide_hbond>  (133) 
-0.195995

>  <r_i_glide_metal>  (133) 
-0

>  <r_i_glide_rewards>  (133) 
-1.66132

>  <r_i_glide_evdw>  (133) 
-19.2691

>  <r_i_glide_ecoul>  (133) 
-2.58534

>  <r_i_glide_erotb>  (133) 
0

>  <r_i_glide_esite>  (133) 
0

>  <r_i_glide_emodel>  (133) 
-27.9876

>  <r_i_glide_energy>  (133) 
-21.8544

>  <r_i_glide_einternal>  (133) 
0.0345466

>  <r_i_glide_intrahb_reward>  (133) 
-0

>  <i_i_glide_confnum>  (133) 
1

>  <i_i_glide_posenum>  (133) 
5

>  <r_i_glide_eff_state_penalty>  (133) 
0

>  <ligand_id>  (133) 
35

>  <original_smiles>  (133) 
OC12CC3CC1C1C4C(C5C6C7CC(C74)C1(O)C65)C32

>  <smiles>  (133) 
[H]OC12C([H])([H])C3([H])C([H])([H])C1([H])C1([H])C4([H])C([H])(C5([H])C6([H])C7([H])C([H])([H])C([H])(C74[H])C1(O[H])C65[H])C32[H]

$$$$
36:0:0
     RDKit          3D

 59 65  0  0  1  0  0  0  0  0999 V2000
    2.4681   -0.0443    2.5625 C   0  0  0  0  0  0  0  0  0  0  0  0
    1.6002   -1.2505    3.0434 C   0  0  0  0  0  0  0  0  0  0  0  0
    1.8270   -2.5894    2.2949 C   0  0  0  0  0  0  0  0  0  0  0  0
    3.1056   -3.4083    2.6728 C   0  0  2  0  0  0  0  0  0  0  0  0
    4.3875   -2.6394    2.6507 C   0  0  2  0  0  0  0  0  0  0  0  0
    4.7148   -2.2241    1.1405 C   0  0  0  0  0  0  0  0  0  0  0  0
    3.8535   -2.7372   -0.0356 C   0  0  0  0  0  0  0  0  0  0  0  0
    3.0371   -3.8601   -0.1969 C   0  0  0  0  0  0  0  0  0  0  0  0
    2.4532   -3.8103   -1.4502 N   0  0  0  0  0  0  0  0  0  0  0  0
    2.9192   -2.7415   -2.1861 C   0  0  0  0  0  0  0  0  0  0  0  0
    2.6991   -2.3284   -3.5191 C   0  0  0  0  0  0  0  0  0  0  0  0
    3.2702   -1.1351   -3.9946 C   0  0  0  0  0  0  0  0  0  0  0  0
    4.0908   -0.3856   -3.1351 C   0  0  0  0  0  0  0  0  0  0  0  0
    4.3600   -0.8555   -1.8276 C   0  0  0  0  0  0  0  0  0  0  0  0
    3.7802   -2.0342   -1.3048 C   0  0  0  0  0  0  0  0  0  0  0  0
    2.8408   -5.0636    0.7021 C   0  0  2  0  0  0  0  0  0  0  0  0
    1.4905   -5.5413    0.9578 O   0  0  0  0  0  0  0  0  0  0  0  0
    1.5135   -6.0174    2.2326 C   0  0  0  0  0  0  0  0  0  0  0  0
    0.5184   -6.7104    2.9718 C   0  0  0  0  0  0  0  0  0  0  0  0
   -0.6828   -6.9930    2.3888 O   0  0  0  0  0  0  0  0  0  0  0  0
    0.7804   -7.1024    4.3161 C   0  0  0  0  0  0  0  0  0  0  0  0
    1.9837   -6.7678    4.9773 C   0  0  0  0  0  0  0  0  0  0  0  0
    2.9796   -6.0128    4.3029 C   0  0  0  0  0  0  0  0  0  0  0  0
    2.6658   -5.7284    2.9546 C   0  0  0  0  0  0  0  0  0  0  0  0
    3.4475   -4.8323    2.0759 C   0  0  2  0  0  0  0  0  0  0  0  0
    4.9378   -5.3520    1.9082 C   0  0  0  0  0  0  0  0  0  0  0  0
    6.0527   -4.5325    2.5557 C   0  0  0  0  0  0  0  0  0  0  0  0
    5.4121   -3.4922    3.4397 C   0  0  2  0  0  0  0  0  0  0  0  0
    4.9117   -4.1026    4.7969 C   0  0  0  0  0  0  0  0  0  0  0  0
    4.3635   -5.5856    4.8529 C   0  0  0  0  0  0  0  0  0  0  0  0
    1.9862   -4.6103   -1.8666 H   0  0  0  0  0  0  0  0  0  0  0  0
    2.1690    0.8576    3.1037 H   0  0  0  0  0  0  0  0  0  0  0  0
    2.2972    0.1161    1.4891 H   0  0  0  0  0  0  0  0  0  0  0  0
    3.5309   -0.1504    2.7576 H   0  0  0  0  0  0  0  0  0  0  0  0
    1.6925   -1.4260    4.1144 H   0  0  0  0  0  0  0  0  0  0  0  0
    0.5683   -0.9907    2.8997 H   0  0  0  0  0  0  0  0  0  0  0  0
    0.9881   -3.2455    2.5529 H   0  0  0  0  0  0  0  0  0  0  0  0
    1.6826   -2.3791    1.2406 H   0  0  0  0  0  0  0  0  0  0  0  0
    2.8585   -3.5218    3.7259 H   0  0  0  0  0  0  0  0  0  0  0  0
    4.3036   -1.7928    3.3132 H   0  0  0  0  0  0  0  0  0  0  0  0
    4.5938   -1.1418    1.1223 H   0  0  0  0  0  0  0  0  0  0  0  0
    5.7718   -2.3048    0.9115 H   0  0  0  0  0  0  0  0  0  0  0  0
    2.0427   -2.9042   -4.1482 H   0  0  0  0  0  0  0  0  0  0  0  0
    3.0365   -0.7731   -4.9864 H   0  0  0  0  0  0  0  0  0  0  0  0
    4.4921    0.5649   -3.4556 H   0  0  0  0  0  0  0  0  0  0  0  0
    4.9771   -0.2769   -1.1623 H   0  0  0  0  0  0  0  0  0  0  0  0
    3.2666   -5.9429    0.2086 H   0  0  0  0  0  0  0  0  0  0  0  0
   -1.1075   -7.7091    2.8232 H   0  0  0  0  0  0  0  0  0  0  0  0
    0.0358   -7.6429    4.8615 H   0  0  0  0  0  0  0  0  0  0  0  0
    2.1571   -7.0758    6.0034 H   0  0  0  0  0  0  0  0  0  0  0  0
    5.0177   -6.3899    2.2376 H   0  0  0  0  0  0  0  0  0  0  0  0
    5.2095   -5.3955    0.8504 H   0  0  0  0  0  0  0  0  0  0  0  0
    6.7433   -5.1583    3.1194 H   0  0  0  0  0  0  0  0  0  0  0  0
    6.6522   -4.0439    1.7859 H   0  0  0  0  0  0  0  0  0  0  0  0
    6.1698   -2.7555    3.6934 H   0  0  0  0  0  0  0  0  0  0  0  0
    5.7875   -4.0888    5.4477 H   0  0  0  0  0  0  0  0  0  0  0  0
    4.2335   -3.4106    5.3065 H   0  0  0  0  0  0  0  0  0  0  0  0
    4.2786   -5.7676    5.9140 H   0  0  0  0  0  0  0  0  0  0  0  0
    5.1453   -6.2805    4.5360 H   0  0  0  0  0  0  0  0  0  0  0  0
  1  2  1  0
  1 32  1  0
  1 33  1  0
  1 34  1  0
  2  3  1  0
  2 35  1  0
  2 36  1  0
  3  4  1  0
  3 37  1  0
  3 38  1  0
  4 25  1  0
  4  5  1  0
  4 39  1  1
  5 28  1  0
  5  6  1  0
  5 40  1  1
  6  7  1  0
  6 41  1  0
  6 42  1  0
  7 15  1  0
  7  8  2  0
  8  9  1  0
  8 16  1  0
  9 31  1  0
  9 10  1  0
 10 15  2  0
 10 11  1  0
 11 12  2  0
 11 43  1  0
 12 13  1  0
 12 44  1  0
 13 14  2  0
 13 45  1  0
 14 15  1  0
 14 46  1  0
 16 25  1  0
 16 17  1  0
 16 47  1  6
 17 18  1  0
 18 24  2  0
 18 19  1  0
 19 20  1  0
 19 21  2  0
 20 48  1  0
 21 22  1  0
 21 49  1  0
 22 23  2  0
 22 50  1  0
 23 30  1  0
 23 24  1  0
 24 25  1  0
 25 26  1  6
 26 27  1  0
 26 51  1  0
 26 52  1  0
 27 28  1  0
 27 53  1  0
 27 54  1  0
 28 29  1  0
 28 55  1  1
 29 30  1  0
 29 56  1  0
 29 57  1  0
 30 58  1  0
 30 59  1  0
M  END
>  <i_m_ct_stereo_status>  (134) 
1

>  <s_m_source_file>  (134) 
/var/tmp/pbs.5076255.sched01/tmpar858yha/42b8svm9_t.sdf

>  <i_m_source_file_index>  (134) 
11

>  <i_lp_mmshare_version>  (134) 
48012

>  <i_f3d_flags>  (134) 
0

>  <s_epik_input>  (134) 
W2NIXTFbY0hdW2NIXVtjSF1jKFtuSF0yKWMxYyhjMltDQEhdM1tDQEBdNDU2KVtDSDJdW0NAQEhdKFtDQEhdNFtDSDJdW0NIMl1bQ0gzXSlbQ0BIXShbQ0gyXVtDSDJdNilbQ0gyXVtDSDJdYzdjNWMoTzMpYyhbT0hdKVtjSF1bY0hdNw==

>  <s_epik_cmdline>  (134) 
J2VwaWtfcHl0aG9uJywgJy1waHQnLCAnMi4wJywgJy1waCcsICc3LjAnLCAnLXRuJywgJzgnLCAnLW1hJywgJzIwMCcsICctaW1hZScsICc8aW5maWxlLm1hZT4nLCAnLW9tYWUnLCAnPG91dGZpbGUubWFlPic=

>  <r_lp_tautomer_probability>  (134) 
1

>  <r_epik_Ionization_Penalty>  (134) 
0.00126162

>  <r_epik_Ionization_Penalty_Charging>  (134) 
0

>  <r_epik_Ionization_Penalty_Neutral>  (134) 
0.00126162

>  <r_epik_State_Penalty>  (134) 
0.000835401

>  <r_epik_Charging_Adjusted_Penalty>  (134) 
0.000835401

>  <i_epik_Tot_Q>  (134) 
0

>  <i_epik_Tot_abs_Q>  (134) 
0

>  <s_lp_Force_Field>  (134) 
OPLS3e

>  <r_lp_Energy>  (134) 
102.789

>  <b_lp_Chiralities_Consistent>  (134) 
1

>  <s_lp_Variant>  (134) 
36:0-1

>  <s_i_glide_gridfile>  (134) 
pfpi4k_grid

>  <i_i_glide_lignum>  (134) 
11

>  <i_i_glide_rotatable_bonds>  (134) 
3

>  <r_i_docking_score>  (134) 
-3.7213

>  <r_i_glide_ligand_efficiency>  (134) 
-0.124043

>  <r_i_glide_ligand_efficiency_sa>  (134) 
-0.385431

>  <r_i_glide_ligand_efficiency_ln>  (134) 
-0.845519

>  <r_i_glide_gscore>  (134) 
-3.7213

>  <r_i_glide_lipo>  (134) 
-0.709129

>  <r_i_glide_hbond>  (134) 
-0.276815

>  <r_i_glide_metal>  (134) 
-0

>  <r_i_glide_rewards>  (134) 
-0.685059

>  <r_i_glide_evdw>  (134) 
-21.5435

>  <r_i_glide_ecoul>  (134) 
-7.28243

>  <r_i_glide_erotb>  (134) 
0.122762

>  <r_i_glide_esite>  (134) 
-0.00351432

>  <r_i_glide_emodel>  (134) 
-32.5646

>  <r_i_glide_energy>  (134) 
-28.826

>  <r_i_glide_einternal>  (134) 
1.47197

>  <r_i_glide_intrahb_reward>  (134) 
-0

>  <i_i_glide_confnum>  (134) 
3

>  <i_i_glide_posenum>  (134) 
22

>  <r_i_glide_eff_state_penalty>  (134) 
0

>  <ligand_id>  (134) 
36

>  <original_smiles>  (134) 
CCCC1C2Cc3c([nH]c4ccccc34)C3Oc4c(O)ccc5c4C31CCC2CC5

>  <smiles>  (134) 
[H]Oc1c([H])c([H])c2c3c1OC1([H])c4c(c5c([H])c([H])c([H])c([H])c5n4[H])C([H])([H])C4([H])C([H])(C([H])([H])C2([H])[H])C([H])([H])C([H])([H])C31C4([H])C([H])([H])C([H])([H])C([H])([H])[H]

$$$$
36:0:1
     RDKit          3D

 59 65  0  0  1  0  0  0  0  0999 V2000
    0.7959   -2.3594    5.3870 C   0  0  0  0  0  0  0  0  0  0  0  0
    1.2980   -1.9462    3.9962 C   0  0  0  0  0  0  0  0  0  0  0  0
    1.6188   -3.1341    3.0585 C   0  0  0  0  0  0  0  0  0  0  0  0
    2.8512   -4.0089    3.5045 C   0  0  2  0  0  0  0  0  0  0  0  0
    4.1565   -3.3057    3.6383 C   0  0  2  0  0  0  0  0  0  0  0  0
    4.6664   -2.8447    2.2189 C   0  0  0  0  0  0  0  0  0  0  0  0
    3.9132   -3.2605    0.9297 C   0  0  0  0  0  0  0  0  0  0  0  0
    3.0533   -4.3115    0.6305 C   0  0  0  0  0  0  0  0  0  0  0  0
    2.6468   -4.1971   -0.6920 N   0  0  0  0  0  0  0  0  0  0  0  0
    3.2158   -3.1059   -1.2965 C   0  0  0  0  0  0  0  0  0  0  0  0
    3.1435   -2.6132   -2.6086 C   0  0  0  0  0  0  0  0  0  0  0  0
    3.8386   -1.4434   -2.9633 C   0  0  0  0  0  0  0  0  0  0  0  0
    4.6254   -0.7920   -1.9819 C   0  0  0  0  0  0  0  0  0  0  0  0
    4.7128   -1.3146   -0.6711 C   0  0  0  0  0  0  0  0  0  0  0  0
    4.0106   -2.4890   -0.2881 C   0  0  0  0  0  0  0  0  0  0  0  0
    2.6793   -5.5380    1.4381 C   0  0  2  0  0  0  0  0  0  0  0  0
    1.2585   -5.8319    1.5530 O   0  0  0  0  0  0  0  0  0  0  0  0
    1.1385   -6.4478    2.7693 C   0  0  0  0  0  0  0  0  0  0  0  0
    0.0298   -7.1232    3.3717 C   0  0  0  0  0  0  0  0  0  0  0  0
   -1.1207   -7.2859    2.6597 O   0  0  0  0  0  0  0  0  0  0  0  0
    0.1207   -7.6091    4.7037 C   0  0  0  0  0  0  0  0  0  0  0  0
    1.2827   -7.3948    5.4943 C   0  0  0  0  0  0  0  0  0  0  0  0
    2.3970   -6.6940    4.9831 C   0  0  0  0  0  0  0  0  0  0  0  0
    2.2281   -6.3079    3.6248 C   0  0  0  0  0  0  0  0  0  0  0  0
    3.1560   -5.4303    2.8755 C   0  0  2  0  0  0  0  0  0  0  0  0
    4.6182   -6.0290    2.8436 C   0  0  0  0  0  0  0  0  0  0  0  0
    5.6976   -5.3111    3.6473 C   0  0  0  0  0  0  0  0  0  0  0  0
    5.0601   -4.2439    4.5125 C   0  0  2  0  0  0  0  0  0  0  0  0
    4.3750   -4.9221    5.7718 C   0  0  0  0  0  0  0  0  0  0  0  0
    3.7386   -6.3649    5.6784 C   0  0  0  0  0  0  0  0  0  0  0  0
    2.1450   -4.9178   -1.1902 H   0  0  0  0  0  0  0  0  0  0  0  0
    0.5634   -1.4837    5.9899 H   0  0  0  0  0  0  0  0  0  0  0  0
    1.5406   -2.9269    5.9440 H   0  0  0  0  0  0  0  0  0  0  0  0
   -0.1032   -2.9709    5.3080 H   0  0  0  0  0  0  0  0  0  0  0  0
    0.5248   -1.3380    3.5195 H   0  0  0  0  0  0  0  0  0  0  0  0
    2.1527   -1.2773    4.0829 H   0  0  0  0  0  0  0  0  0  0  0  0
    0.7266   -3.7523    3.0074 H   0  0  0  0  0  0  0  0  0  0  0  0
    1.7259   -2.7066    2.0679 H   0  0  0  0  0  0  0  0  0  0  0  0
    2.5110   -4.1880    4.5055 H   0  0  0  0  0  0  0  0  0  0  0  0
    4.0117   -2.4128    4.2442 H   0  0  0  0  0  0  0  0  0  0  0  0
    4.6065   -1.7555    2.2600 H   0  0  0  0  0  0  0  0  0  0  0  0
    5.7349   -3.0148    2.1066 H   0  0  0  0  0  0  0  0  0  0  0  0
    2.5325   -3.1233   -3.3374 H   0  0  0  0  0  0  0  0  0  0  0  0
    3.7587   -1.0284   -3.9475 H   0  0  0  0  0  0  0  0  0  0  0  0
    5.1325    0.1180   -2.2363 H   0  0  0  0  0  0  0  0  0  0  0  0
    5.3118   -0.8072    0.0661 H   0  0  0  0  0  0  0  0  0  0  0  0
    3.0733   -6.4300    0.9539 H   0  0  0  0  0  0  0  0  0  0  0  0
   -1.6481   -7.9703    3.0264 H   0  0  0  0  0  0  0  0  0  0  0  0
   -0.7103   -8.1350    5.1388 H   0  0  0  0  0  0  0  0  0  0  0  0
    1.3127   -7.7663    6.5045 H   0  0  0  0  0  0  0  0  0  0  0  0
    4.5930   -7.0895    3.1149 H   0  0  0  0  0  0  0  0  0  0  0  0
    5.0009   -6.0557    1.8202 H   0  0  0  0  0  0  0  0  0  0  0  0
    6.2797   -6.0146    4.2373 H   0  0  0  0  0  0  0  0  0  0  0  0
    6.4145   -4.8619    2.9593 H   0  0  0  0  0  0  0  0  0  0  0  0
    5.8677   -3.6184    4.9009 H   0  0  0  0  0  0  0  0  0  0  0  0
    5.1748   -5.0269    6.5011 H   0  0  0  0  0  0  0  0  0  0  0  0
    3.6919   -4.2307    6.2610 H   0  0  0  0  0  0  0  0  0  0  0  0
    3.5199   -6.6229    6.7238 H   0  0  0  0  0  0  0  0  0  0  0  0
    4.4799   -7.1115    5.4034 H   0  0  0  0  0  0  0  0  0  0  0  0
  1  2  1  0
  1 32  1  0
  1 33  1  0
  1 34  1  0
  2  3  1  0
  2 35  1  0
  2 36  1  0
  3  4  1  0
  3 37  1  0
  3 38  1  0
  4 25  1  0
  4  5  1  0
  4 39  1  1
  5 28  1  0
  5  6  1  0
  5 40  1  1
  6  7  1  0
  6 41  1  0
  6 42  1  0
  7 15  1  0
  7  8  2  0
  8  9  1  0
  8 16  1  0
  9 31  1  0
  9 10  1  0
 10 15  2  0
 10 11  1  0
 11 12  2  0
 11 43  1  0
 12 13  1  0
 12 44  1  0
 13 14  2  0
 13 45  1  0
 14 15  1  0
 14 46  1  0
 16 25  1  0
 16 17  1  0
 16 47  1  6
 17 18  1  0
 18 24  2  0
 18 19  1  0
 19 20  1  0
 19 21  2  0
 20 48  1  0
 21 22  1  0
 21 49  1  0
 22 23  2  0
 22 50  1  0
 23 30  1  0
 23 24  1  0
 24 25  1  0
 25 26  1  6
 26 27  1  0
 26 51  1  0
 26 52  1  0
 27 28  1  0
 27 53  1  0
 27 54  1  0
 28 29  1  0
 28 55  1  1
 29 30  1  0
 29 56  1  0
 29 57  1  0
 30 58  1  0
 30 59  1  0
M  END
>  <i_m_ct_stereo_status>  (135) 
1

>  <s_m_source_file>  (135) 
/var/tmp/pbs.5076255.sched01/tmpar858yha/42b8svm9_t.sdf

>  <i_m_source_file_index>  (135) 
11

>  <i_lp_mmshare_version>  (135) 
48012

>  <i_f3d_flags>  (135) 
0

>  <s_epik_input>  (135) 
W2NIXTFbY0hdW2NIXVtjSF1jKFtuSF0yKWMxYyhjMltDQEhdM1tDQEBdNDU2KVtDSDJdW0NAQEhdKFtDQEhdNFtDSDJdW0NIMl1bQ0gzXSlbQ0BIXShbQ0gyXVtDSDJdNilbQ0gyXVtDSDJdYzdjNWMoTzMpYyhbT0hdKVtjSF1bY0hdNw==

>  <s_epik_cmdline>  (135) 
J2VwaWtfcHl0aG9uJywgJy1waHQnLCAnMi4wJywgJy1waCcsICc3LjAnLCAnLXRuJywgJzgnLCAnLW1hJywgJzIwMCcsICctaW1hZScsICc8aW5maWxlLm1hZT4nLCAnLW9tYWUnLCAnPG91dGZpbGUubWFlPic=

>  <r_lp_tautomer_probability>  (135) 
1

>  <r_epik_Ionization_Penalty>  (135) 
0.00126162

>  <r_epik_Ionization_Penalty_Charging>  (135) 
0

>  <r_epik_Ionization_Penalty_Neutral>  (135) 
0.00126162

>  <r_epik_State_Penalty>  (135) 
0.000835401

>  <r_epik_Charging_Adjusted_Penalty>  (135) 
0.000835401

>  <i_epik_Tot_Q>  (135) 
0

>  <i_epik_Tot_abs_Q>  (135) 
0

>  <s_lp_Force_Field>  (135) 
OPLS3e

>  <r_lp_Energy>  (135) 
102.789

>  <b_lp_Chiralities_Consistent>  (135) 
1

>  <s_lp_Variant>  (135) 
36:0-1

>  <s_i_glide_gridfile>  (135) 
pfpi4k_grid

>  <i_i_glide_lignum>  (135) 
11

>  <i_i_glide_rotatable_bonds>  (135) 
3

>  <r_i_docking_score>  (135) 
-2.91353

>  <r_i_glide_ligand_efficiency>  (135) 
-0.0971176

>  <r_i_glide_ligand_efficiency_sa>  (135) 
-0.301767

>  <r_i_glide_ligand_efficiency_ln>  (135) 
-0.661985

>  <r_i_glide_gscore>  (135) 
-2.91353

>  <r_i_glide_lipo>  (135) 
-0.0916794

>  <r_i_glide_hbond>  (135) 
-0.298095

>  <r_i_glide_metal>  (135) 
-0

>  <r_i_glide_rewards>  (135) 
-0.685059

>  <r_i_glide_evdw>  (135) 
-24.0813

>  <r_i_glide_ecoul>  (135) 
-4.69519

>  <r_i_glide_erotb>  (135) 
0.122762

>  <r_i_glide_esite>  (135) 
-0.053115

>  <r_i_glide_emodel>  (135) 
-33.1693

>  <r_i_glide_energy>  (135) 
-28.7764

>  <r_i_glide_einternal>  (135) 
1.24944

>  <r_i_glide_intrahb_reward>  (135) 
-0

>  <i_i_glide_confnum>  (135) 
1

>  <i_i_glide_posenum>  (135) 
2

>  <r_i_glide_eff_state_penalty>  (135) 
0

>  <ligand_id>  (135) 
36

>  <original_smiles>  (135) 
CCCC1C2Cc3c([nH]c4ccccc34)C3Oc4c(O)ccc5c4C31CCC2CC5

>  <smiles>  (135) 
[H]Oc1c([H])c([H])c2c3c1OC1([H])c4c(c5c([H])c([H])c([H])c([H])c5n4[H])C([H])([H])C4([H])C([H])(C([H])([H])C2([H])[H])C([H])([H])C([H])([H])C31C4([H])C([H])([H])C([H])([H])C([H])([H])[H]

$$$$
36:0:2
     RDKit          3D

 59 65  0  0  1  0  0  0  0  0999 V2000
    0.8669   -3.9318    5.5357 C   0  0  0  0  0  0  0  0  0  0  0  0
    0.7863   -3.7802    4.0121 C   0  0  0  0  0  0  0  0  0  0  0  0
    2.1371   -3.5708    3.2802 C   0  0  0  0  0  0  0  0  0  0  0  0
    3.2129   -4.7232    3.3960 C   0  0  2  0  0  0  0  0  0  0  0  0
    4.6417   -4.2814    3.4102 C   0  0  2  0  0  0  0  0  0  0  0  0
    5.0402   -3.7014    2.0033 C   0  0  0  0  0  0  0  0  0  0  0  0
    4.0561   -3.7635    0.8185 C   0  0  0  0  0  0  0  0  0  0  0  0
    2.9724   -4.6070    0.5156 C   0  0  0  0  0  0  0  0  0  0  0  0
    2.4171   -4.1987   -0.6839 N   0  0  0  0  0  0  0  0  0  0  0  0
    3.1132   -3.1495   -1.2276 C   0  0  0  0  0  0  0  0  0  0  0  0
    2.9637   -2.4507   -2.4462 C   0  0  0  0  0  0  0  0  0  0  0  0
    3.8267   -1.3806   -2.7389 C   0  0  0  0  0  0  0  0  0  0  0  0
    4.8416   -1.0505   -1.8330 C   0  0  0  0  0  0  0  0  0  0  0  0
    5.0003   -1.7733   -0.6275 C   0  0  0  0  0  0  0  0  0  0  0  0
    4.1351   -2.8479   -0.2961 C   0  0  0  0  0  0  0  0  0  0  0  0
    2.4897   -5.8651    1.2090 C   0  0  2  0  0  0  0  0  0  0  0  0
    1.0804   -5.9551    1.4833 O   0  0  0  0  0  0  0  0  0  0  0  0
    1.0041   -6.7801    2.6186 C   0  0  0  0  0  0  0  0  0  0  0  0
   -0.1109   -7.2893    3.2963 C   0  0  0  0  0  0  0  0  0  0  0  0
   -1.3635   -7.1017    2.7914 O   0  0  0  0  0  0  0  0  0  0  0  0
    0.0483   -7.9571    4.5495 C   0  0  0  0  0  0  0  0  0  0  0  0
    1.3221   -8.0608    5.1728 C   0  0  0  0  0  0  0  0  0  0  0  0
    2.4643   -7.4906    4.5734 C   0  0  0  0  0  0  0  0  0  0  0  0
    2.2080   -6.8932    3.3157 C   0  0  0  0  0  0  0  0  0  0  0  0
    3.1598   -6.0679    2.5604 C   0  0  2  0  0  0  0  0  0  0  0  0
    4.4644   -6.8902    2.2083 C   0  0  0  0  0  0  0  0  0  0  0  0
    5.7605   -6.5013    2.9135 C   0  0  0  0  0  0  0  0  0  0  0  0
    5.4686   -5.4857    4.0006 C   0  0  2  0  0  0  0  0  0  0  0  0
    4.8505   -6.2279    5.2560 C   0  0  0  0  0  0  0  0  0  0  0  0
    3.9358   -7.5076    5.0912 C   0  0  0  0  0  0  0  0  0  0  0  0
    1.7090   -4.7215   -1.1717 H   0  0  0  0  0  0  0  0  0  0  0  0
   -0.1249   -4.1378    5.9325 H   0  0  0  0  0  0  0  0  0  0  0  0
    1.2535   -3.0242    5.9947 H   0  0  0  0  0  0  0  0  0  0  0  0
    1.4854   -4.7696    5.8558 H   0  0  0  0  0  0  0  0  0  0  0  0
    0.2320   -4.6238    3.6292 H   0  0  0  0  0  0  0  0  0  0  0  0
    0.1391   -2.9379    3.7624 H   0  0  0  0  0  0  0  0  0  0  0  0
    1.8856   -3.2585    2.2735 H   0  0  0  0  0  0  0  0  0  0  0  0
    2.5942   -2.6770    3.7030 H   0  0  0  0  0  0  0  0  0  0  0  0
    3.0494   -4.9633    4.4263 H   0  0  0  0  0  0  0  0  0  0  0  0
    4.7291   -3.4728    4.1356 H   0  0  0  0  0  0  0  0  0  0  0  0
    5.2112   -2.6394    2.1933 H   0  0  0  0  0  0  0  0  0  0  0  0
    6.0297   -4.0417    1.6949 H   0  0  0  0  0  0  0  0  0  0  0  0
    2.1645   -2.7123   -3.1120 H   0  0  0  0  0  0  0  0  0  0  0  0
    3.6817   -0.7949   -3.6416 H   0  0  0  0  0  0  0  0  0  0  0  0
    5.4812   -0.2061   -2.0382 H   0  0  0  0  0  0  0  0  0  0  0  0
    5.7785   -1.5029    0.0659 H   0  0  0  0  0  0  0  0  0  0  0  0
    2.6546   -6.7200    0.5503 H   0  0  0  0  0  0  0  0  0  0  0  0
   -1.9853   -7.6935    3.1956 H   0  0  0  0  0  0  0  0  0  0  0  0
   -0.8164   -8.3515    5.0657 H   0  0  0  0  0  0  0  0  0  0  0  0
    1.4011   -8.5570    6.1212 H   0  0  0  0  0  0  0  0  0  0  0  0
    4.2664   -7.9570    2.3359 H   0  0  0  0  0  0  0  0  0  0  0  0
    4.6889   -6.8135    1.1407 H   0  0  0  0  0  0  0  0  0  0  0  0
    6.2617   -7.3839    3.3053 H   0  0  0  0  0  0  0  0  0  0  0  0
    6.4519   -6.0846    2.1843 H   0  0  0  0  0  0  0  0  0  0  0  0
    6.4312   -5.0835    4.3225 H   0  0  0  0  0  0  0  0  0  0  0  0
    5.7078   -6.5892    5.8196 H   0  0  0  0  0  0  0  0  0  0  0  0
    4.3961   -5.5194    5.9451 H   0  0  0  0  0  0  0  0  0  0  0  0
    3.8148   -7.8799    6.1041 H   0  0  0  0  0  0  0  0  0  0  0  0
    4.4651   -8.3131    4.5896 H   0  0  0  0  0  0  0  0  0  0  0  0
  1  2  1  0
  1 32  1  0
  1 33  1  0
  1 34  1  0
  2  3  1  0
  2 35  1  0
  2 36  1  0
  3  4  1  0
  3 37  1  0
  3 38  1  0
  4 25  1  0
  4  5  1  0
  4 39  1  1
  5 28  1  0
  5  6  1  0
  5 40  1  1
  6  7  1  0
  6 41  1  0
  6 42  1  0
  7 15  1  0
  7  8  2  0
  8  9  1  0
  8 16  1  0
  9 31  1  0
  9 10  1  0
 10 15  2  0
 10 11  1  0
 11 12  2  0
 11 43  1  0
 12 13  1  0
 12 44  1  0
 13 14  2  0
 13 45  1  0
 14 15  1  0
 14 46  1  0
 16 25  1  0
 16 17  1  0
 16 47  1  6
 17 18  1  0
 18 24  2  0
 18 19  1  0
 19 20  1  0
 19 21  2  0
 20 48  1  0
 21 22  1  0
 21 49  1  0
 22 23  2  0
 22 50  1  0
 23 30  1  0
 23 24  1  0
 24 25  1  0
 25 26  1  6
 26 27  1  0
 26 51  1  0
 26 52  1  0
 27 28  1  0
 27 53  1  0
 27 54  1  0
 28 29  1  0
 28 55  1  1
 29 30  1  0
 29 56  1  0
 29 57  1  0
 30 58  1  0
 30 59  1  0
M  END
>  <i_m_ct_stereo_status>  (136) 
1

>  <s_m_source_file>  (136) 
/var/tmp/pbs.5076255.sched01/tmpar858yha/42b8svm9_t.sdf

>  <i_m_source_file_index>  (136) 
11

>  <i_lp_mmshare_version>  (136) 
48012

>  <i_f3d_flags>  (136) 
0

>  <s_epik_input>  (136) 
W2NIXTFbY0hdW2NIXVtjSF1jKFtuSF0yKWMxYyhjMltDQEhdM1tDQEBdNDU2KVtDSDJdW0NAQEhdKFtDQEhdNFtDSDJdW0NIMl1bQ0gzXSlbQ0BIXShbQ0gyXVtDSDJdNilbQ0gyXVtDSDJdYzdjNWMoTzMpYyhbT0hdKVtjSF1bY0hdNw==

>  <s_epik_cmdline>  (136) 
J2VwaWtfcHl0aG9uJywgJy1waHQnLCAnMi4wJywgJy1waCcsICc3LjAnLCAnLXRuJywgJzgnLCAnLW1hJywgJzIwMCcsICctaW1hZScsICc8aW5maWxlLm1hZT4nLCAnLW9tYWUnLCAnPG91dGZpbGUubWFlPic=

>  <r_lp_tautomer_probability>  (136) 
1

>  <r_epik_Ionization_Penalty>  (136) 
0.00126162

>  <r_epik_Ionization_Penalty_Charging>  (136) 
0

>  <r_epik_Ionization_Penalty_Neutral>  (136) 
0.00126162

>  <r_epik_State_Penalty>  (136) 
0.000835401

>  <r_epik_Charging_Adjusted_Penalty>  (136) 
0.000835401

>  <i_epik_Tot_Q>  (136) 
0

>  <i_epik_Tot_abs_Q>  (136) 
0

>  <s_lp_Force_Field>  (136) 
OPLS3e

>  <r_lp_Energy>  (136) 
102.789

>  <b_lp_Chiralities_Consistent>  (136) 
1

>  <s_lp_Variant>  (136) 
36:0-1

>  <s_i_glide_gridfile>  (136) 
pfpi4k_grid

>  <i_i_glide_lignum>  (136) 
11

>  <i_i_glide_rotatable_bonds>  (136) 
3

>  <r_i_docking_score>  (136) 
-2.71216

>  <r_i_glide_ligand_efficiency>  (136) 
-0.0904053

>  <r_i_glide_ligand_efficiency_sa>  (136) 
-0.28091

>  <r_i_glide_ligand_efficiency_ln>  (136) 
-0.616232

>  <r_i_glide_gscore>  (136) 
-2.71216

>  <r_i_glide_lipo>  (136) 
-0.131697

>  <r_i_glide_hbond>  (136) 
-0.157846

>  <r_i_glide_metal>  (136) 
-0

>  <r_i_glide_rewards>  (136) 
-0.685059

>  <r_i_glide_evdw>  (136) 
-24.5706

>  <r_i_glide_ecoul>  (136) 
-3.80074

>  <r_i_glide_erotb>  (136) 
0.122762

>  <r_i_glide_esite>  (136) 
-0.0616778

>  <r_i_glide_emodel>  (136) 
-31.6622

>  <r_i_glide_energy>  (136) 
-28.3713

>  <r_i_glide_einternal>  (136) 
2.64115

>  <r_i_glide_intrahb_reward>  (136) 
-0

>  <i_i_glide_confnum>  (136) 
1

>  <i_i_glide_posenum>  (136) 
10

>  <r_i_glide_eff_state_penalty>  (136) 
0

>  <ligand_id>  (136) 
36

>  <original_smiles>  (136) 
CCCC1C2Cc3c([nH]c4ccccc34)C3Oc4c(O)ccc5c4C31CCC2CC5

>  <smiles>  (136) 
[H]Oc1c([H])c([H])c2c3c1OC1([H])c4c(c5c([H])c([H])c([H])c([H])c5n4[H])C([H])([H])C4([H])C([H])(C([H])([H])C2([H])[H])C([H])([H])C([H])([H])C31C4([H])C([H])([H])C([H])([H])C([H])([H])[H]

$$$$
37:0:0
     RDKit          3D

 64 69  0  0  1  0  0  0  0  0999 V2000
    1.5190   -7.0985    2.6137 C   0  0  0  0  0  0  0  0  0  0  0  0
    1.6505   -7.3129    1.0835 C   0  0  0  0  0  0  0  0  0  0  0  0
    2.4786   -6.2870    0.4799 O   0  0  0  0  0  0  0  0  0  0  0  0
    3.8965   -6.5093    0.4981 C   0  0  2  0  0  0  0  0  0  0  0  0
    4.4027   -7.3521    1.7342 C   0  0  1  0  0  0  0  0  0  0  0  0
    5.4895   -8.1760    1.3921 O   0  0  0  0  0  0  0  0  0  0  0  0
    4.7222   -6.5850    3.1061 C   0  0  1  0  0  0  0  0  0  0  0  0
    4.9833   -7.5702    4.0936 O   0  0  0  0  0  0  0  0  0  0  0  0
    5.7756   -5.4262    3.2082 C   0  0  1  0  0  0  0  0  0  0  0  0
    7.0336   -5.9280    2.7631 O   0  0  0  0  0  0  0  0  0  0  0  0
    5.3732   -3.9958    2.5813 C   0  0  1  0  0  0  0  0  0  0  0  0
    4.9737   -3.0280    3.7418 C   0  0  0  0  0  0  0  0  0  0  0  0
    4.5672   -1.7431    3.2965 O   0  0  0  0  0  0  0  0  0  0  0  0
    6.4771   -3.3286    1.6995 C   0  0  0  0  0  0  0  0  0  0  0  0
    6.3279   -3.4414    0.1396 C   0  0  2  0  0  0  0  0  0  0  0  0
    6.6912   -2.1794   -0.4114 O   0  0  0  0  0  0  0  0  0  0  0  0
    6.0407   -1.9108   -1.6316 C   0  0  1  0  0  0  0  0  0  0  0  0
    6.1239   -3.2059   -2.4884 C   0  0  0  0  0  0  0  0  0  0  0  0
    4.7966   -3.8316   -2.0764 C   0  0  2  0  0  0  0  0  0  0  0  0
    3.8564   -2.5604   -2.3713 C   0  0  0  0  0  0  0  0  0  0  0  0
    3.9485   -2.0249   -3.8490 C   0  0  0  0  0  0  0  0  0  0  0  0
    2.3143   -2.7501   -2.2379 C   0  0  0  0  0  0  0  0  0  0  0  0
    4.5303   -1.5534   -1.3745 C   0  0  1  0  0  0  0  0  0  0  0  0
    4.0857   -1.6074    0.1862 C   0  0  1  0  0  0  0  0  0  0  0  0
    3.0177   -0.6928    0.3395 O   0  0  0  0  0  0  0  0  0  0  0  0
    3.5640   -2.9734    0.8531 C   0  0  1  0  0  0  0  0  0  0  0  0
    3.6749   -3.7789   -0.2258 O   0  0  0  0  0  0  0  0  0  0  0  0
    5.0035   -4.1303   -0.5155 C   0  0  2  0  0  0  0  0  0  0  0  0
    4.7102   -5.2059    0.5087 C   0  0  1  0  0  0  0  0  0  0  0  0
    4.2135   -4.1984    1.6092 C   0  0  1  0  0  0  0  0  0  0  0  0
    0.8642   -7.8557    3.0422 H   0  0  0  0  0  0  0  0  0  0  0  0
    1.0965   -6.1166    2.8116 H   0  0  0  0  0  0  0  0  0  0  0  0
    2.4163   -7.2141    3.1160 H   0  0  0  0  0  0  0  0  0  0  0  0
    2.0840   -8.2933    0.8966 H   0  0  0  0  0  0  0  0  0  0  0  0
    0.6953   -7.3086    0.6069 H   0  0  0  0  0  0  0  0  0  0  0  0
    4.1493   -7.0574   -0.4124 H   0  0  0  0  0  0  0  0  0  0  0  0
    3.6604   -8.0959    1.9612 H   0  0  0  0  0  0  0  0  0  0  0  0
    5.3643   -9.0027    1.8367 H   0  0  0  0  0  0  0  0  0  0  0  0
    3.8305   -6.1142    3.4916 H   0  0  0  0  0  0  0  0  0  0  0  0
    5.7870   -8.0098    3.8663 H   0  0  0  0  0  0  0  0  0  0  0  0
    5.9141   -5.2567    4.2826 H   0  0  0  0  0  0  0  0  0  0  0  0
    6.9344   -6.2027    1.8671 H   0  0  0  0  0  0  0  0  0  0  0  0
    4.1716   -3.4468    4.3484 H   0  0  0  0  0  0  0  0  0  0  0  0
    5.8178   -2.8823    4.4143 H   0  0  0  0  0  0  0  0  0  0  0  0
    4.4298   -1.1808    4.0372 H   0  0  0  0  0  0  0  0  0  0  0  0
    6.5205   -2.2627    1.9218 H   0  0  0  0  0  0  0  0  0  0  0  0
    7.4659   -3.6762    1.9859 H   0  0  0  0  0  0  0  0  0  0  0  0
    7.1611   -4.0854   -0.1553 H   0  0  0  0  0  0  0  0  0  0  0  0
    6.5432   -1.0948   -2.1239 H   0  0  0  0  0  0  0  0  0  0  0  0
    6.1859   -3.0307   -3.5529 H   0  0  0  0  0  0  0  0  0  0  0  0
    6.9992   -3.8258   -2.2936 H   0  0  0  0  0  0  0  0  0  0  0  0
    4.5792   -4.6911   -2.6896 H   0  0  0  0  0  0  0  0  0  0  0  0
    3.1665   -1.3011   -4.0899 H   0  0  0  0  0  0  0  0  0  0  0  0
    3.8436   -2.8429   -4.5625 H   0  0  0  0  0  0  0  0  0  0  0  0
    4.8650   -1.4799   -4.0755 H   0  0  0  0  0  0  0  0  0  0  0  0
    1.8241   -1.8565   -2.6066 H   0  0  0  0  0  0  0  0  0  0  0  0
    1.9062   -2.8722   -1.2408 H   0  0  0  0  0  0  0  0  0  0  0  0
    1.9572   -3.5989   -2.8208 H   0  0  0  0  0  0  0  0  0  0  0  0
    4.3797   -0.5328   -1.7304 H   0  0  0  0  0  0  0  0  0  0  0  0
    4.8646   -1.1603    0.7965 H   0  0  0  0  0  0  0  0  0  0  0  0
    2.2890   -0.9611   -0.2241 H   0  0  0  0  0  0  0  0  0  0  0  0
    2.5068   -2.8937    1.1151 H   0  0  0  0  0  0  0  0  0  0  0  0
    5.7064   -5.6146    0.6670 H   0  0  0  0  0  0  0  0  0  0  0  0
    3.3679   -4.6162    2.1469 H   0  0  0  0  0  0  0  0  0  0  0  0
  1  2  1  0
  1 31  1  0
  1 32  1  0
  1 33  1  0
  2  3  1  0
  2 34  1  0
  2 35  1  0
  3  4  1  0
  4 29  1  0
  4  5  1  0
  4 36  1  6
  5  6  1  0
  5  7  1  0
  5 37  1  1
  6 38  1  0
  7  8  1  0
  7  9  1  0
  7 39  1  1
  8 40  1  0
  9 10  1  0
  9 11  1  0
  9 41  1  1
 10 42  1  0
 11 30  1  0
 11 12  1  1
 11 14  1  0
 12 13  1  0
 12 43  1  0
 12 44  1  0
 13 45  1  0
 14 15  1  0
 14 46  1  0
 14 47  1  0
 15 28  1  0
 15 16  1  0
 15 48  1  6
 16 17  1  0
 17 23  1  0
 17 18  1  0
 17 49  1  6
 18 19  1  0
 18 50  1  0
 18 51  1  0
 19 28  1  0
 19 20  1  0
 19 52  1  6
 20 21  1  0
 20 22  1  0
 20 23  1  0
 21 53  1  0
 21 54  1  0
 21 55  1  0
 22 56  1  0
 22 57  1  0
 22 58  1  0
 23 24  1  0
 23 59  1  6
 24 25  1  0
 24 26  1  0
 24 60  1  1
 25 61  1  0
 26 30  1  0
 26 27  1  0
 26 62  1  1
 28 27  1  1
 28 29  1  0
 29 30  1  0
 29 63  1  1
 30 64  1  1
M  END
>  <i_m_ct_stereo_status>  (137) 
1

>  <s_m_source_file>  (137) 
/var/tmp/pbs.5076255.sched01/tmpar858yha/42b8svm9_t.sdf

>  <i_m_source_file_index>  (137) 
12

>  <i_lp_mmshare_version>  (137) 
48012

>  <i_f3d_flags>  (137) 
0

>  <s_epik_input>  (137) 
W09IXVtDQEBIXTFbQ0BIXShbT0hdKVtDQEhdKFtPSF0pW0NAQEhdKE9bQ0gyXVtDSDNdKVtDQEBIXTJbQ0BASF0oW0NAXTEoW0NIMl1bT0hdKVtDSDJdW0NASF0zW0NAXTI0NSlbQ0BIXShPNSlbQ0BIXShbT0hdKVtDQEhdNltDQEBIXShPMylbQ0gyXVtDQEBIXTRDNihbQ0gzXSlbQ0gzXQ==

>  <s_epik_cmdline>  (137) 
J2VwaWtfcHl0aG9uJywgJy1waHQnLCAnMi4wJywgJy1waCcsICc3LjAnLCAnLXRuJywgJzgnLCAnLW1hJywgJzIwMCcsICctaW1hZScsICc8aW5maWxlLm1hZT4nLCAnLW9tYWUnLCAnPG91dGZpbGUubWFlPic=

>  <r_lp_tautomer_probability>  (137) 
1

>  <r_epik_Ionization_Penalty>  (137) 
3.05328e-07

>  <r_epik_Ionization_Penalty_Charging>  (137) 
0

>  <r_epik_Ionization_Penalty_Neutral>  (137) 
3.05328e-07

>  <r_epik_State_Penalty>  (137) 
-0

>  <r_epik_Charging_Adjusted_Penalty>  (137) 
0

>  <i_epik_Tot_Q>  (137) 
0

>  <i_epik_Tot_abs_Q>  (137) 
0

>  <s_lp_Force_Field>  (137) 
OPLS3e

>  <r_lp_Energy>  (137) 
199.637

>  <b_lp_Chiralities_Consistent>  (137) 
1

>  <s_lp_Variant>  (137) 
37:0-1

>  <s_i_glide_gridfile>  (137) 
pfpi4k_grid

>  <i_i_glide_lignum>  (137) 
12

>  <i_i_glide_rotatable_bonds>  (137) 
8

>  <r_i_docking_score>  (137) 
-2.52594

>  <r_i_glide_ligand_efficiency>  (137) 
-0.084198

>  <r_i_glide_ligand_efficiency_sa>  (137) 
-0.261623

>  <r_i_glide_ligand_efficiency_ln>  (137) 
-0.573921

>  <r_i_glide_gscore>  (137) 
-2.52594

>  <r_i_glide_lipo>  (137) 
-0.871696

>  <r_i_glide_hbond>  (137) 
-0.059326

>  <r_i_glide_metal>  (137) 
-0

>  <r_i_glide_rewards>  (137) 
-0.501133

>  <r_i_glide_evdw>  (137) 
-18.1298

>  <r_i_glide_ecoul>  (137) 
-3.838

>  <r_i_glide_erotb>  (137) 
0.218212

>  <r_i_glide_esite>  (137) 
0

>  <r_i_glide_emodel>  (137) 
-11.0043

>  <r_i_glide_energy>  (137) 
-21.9678

>  <r_i_glide_einternal>  (137) 
19.2741

>  <r_i_glide_intrahb_reward>  (137) 
-0

>  <i_i_glide_confnum>  (137) 
6

>  <i_i_glide_posenum>  (137) 
30

>  <r_i_glide_eff_state_penalty>  (137) 
0

>  <ligand_id>  (137) 
37

>  <original_smiles>  (137) 
CCOC1C(O)C(O)C(O)C2(CO)CC3OC4CC5C(C)(C)C4C(O)C4OC35C1C42

>  <smiles>  (137) 
[H]OC([H])([H])C12C([H])([H])C3([H])OC4([H])C([H])([H])C5([H])C36OC([H])(C([H])(O[H])C4([H])C5(C([H])([H])[H])C([H])([H])[H])C1([H])C6([H])C([H])(OC([H])([H])C([H])([H])[H])C([H])(O[H])C([H])(O[H])C2([H])O[H]

$$$$
37:0:1
     RDKit          3D

 64 69  0  0  1  0  0  0  0  0999 V2000
    0.9102   -5.5265   -0.4834 C   0  0  0  0  0  0  0  0  0  0  0  0
    2.0159   -4.9824    0.4001 C   0  0  0  0  0  0  0  0  0  0  0  0
    2.6201   -5.9947    1.1614 O   0  0  0  0  0  0  0  0  0  0  0  0
    3.7933   -6.5318    0.5985 C   0  0  2  0  0  0  0  0  0  0  0  0
    3.9931   -7.9414    1.2416 C   0  0  1  0  0  0  0  0  0  0  0  0
    4.6269   -8.7314    0.2793 O   0  0  0  0  0  0  0  0  0  0  0  0
    4.8212   -8.1109    2.5600 C   0  0  1  0  0  0  0  0  0  0  0  0
    4.7908   -9.4912    2.8850 O   0  0  0  0  0  0  0  0  0  0  0  0
    6.3068   -7.5525    2.6425 C   0  0  1  0  0  0  0  0  0  0  0  0
    7.1200   -8.1324    1.6409 O   0  0  0  0  0  0  0  0  0  0  0  0
    6.5123   -5.9724    2.7491 C   0  0  1  0  0  0  0  0  0  0  0  0
    6.6818   -5.6437    4.2515 C   0  0  0  0  0  0  0  0  0  0  0  0
    8.0028   -5.8787    4.6935 O   0  0  0  0  0  0  0  0  0  0  0  0
    7.6213   -5.3344    1.8156 C   0  0  0  0  0  0  0  0  0  0  0  0
    7.1256   -4.5808    0.5248 C   0  0  2  0  0  0  0  0  0  0  0  0
    7.8563   -3.3814    0.4003 O   0  0  0  0  0  0  0  0  0  0  0  0
    7.1714   -2.3673   -0.3030 C   0  0  1  0  0  0  0  0  0  0  0  0
    6.5373   -3.0266   -1.5548 C   0  0  0  0  0  0  0  0  0  0  0  0
    5.1788   -3.4285   -0.9618 C   0  0  2  0  0  0  0  0  0  0  0  0
    4.8043   -1.9577   -0.4140 C   0  0  0  0  0  0  0  0  0  0  0  0
    4.8004   -0.8467   -1.5155 C   0  0  0  0  0  0  0  0  0  0  0  0
    3.3838   -1.7052    0.1972 C   0  0  0  0  0  0  0  0  0  0  0  0
    6.0087   -1.7698    0.5659 C   0  0  1  0  0  0  0  0  0  0  0  0
    5.8741   -2.4190    2.0480 C   0  0  1  0  0  0  0  0  0  0  0  0
    5.3316   -1.4027    2.8725 O   0  0  0  0  0  0  0  0  0  0  0  0
    5.0203   -3.7409    2.3584 C   0  0  1  0  0  0  0  0  0  0  0  0
    4.5888   -3.8755    1.0876 O   0  0  0  0  0  0  0  0  0  0  0  0
    5.5448   -4.4429    0.2174 C   0  0  2  0  0  0  0  0  0  0  0  0
    5.0512   -5.7262    0.8003 C   0  0  1  0  0  0  0  0  0  0  0  0
    5.2359   -5.3007    2.2842 C   0  0  1  0  0  0  0  0  0  0  0  0
    0.5221   -4.7334   -1.1202 H   0  0  0  0  0  0  0  0  0  0  0  0
    0.0797   -6.0026    0.0456 H   0  0  0  0  0  0  0  0  0  0  0  0
    1.3859   -6.2662   -1.0923 H   0  0  0  0  0  0  0  0  0  0  0  0
    2.6834   -4.4537   -0.2739 H   0  0  0  0  0  0  0  0  0  0  0  0
    1.7509   -4.3070    1.1949 H   0  0  0  0  0  0  0  0  0  0  0  0
    3.6655   -6.6167   -0.4785 H   0  0  0  0  0  0  0  0  0  0  0  0
    3.0005   -8.3769    1.3728 H   0  0  0  0  0  0  0  0  0  0  0  0
    4.3153   -9.6195    0.4020 H   0  0  0  0  0  0  0  0  0  0  0  0
    4.2453   -7.6666    3.3722 H   0  0  0  0  0  0  0  0  0  0  0  0
    5.2516   -9.9598    2.2035 H   0  0  0  0  0  0  0  0  0  0  0  0
    6.7162   -7.9837    3.5556 H   0  0  0  0  0  0  0  0  0  0  0  0
    6.8089   -7.8455    0.7924 H   0  0  0  0  0  0  0  0  0  0  0  0
    6.3236   -4.6337    4.4891 H   0  0  0  0  0  0  0  0  0  0  0  0
    6.0220   -6.2966    4.8402 H   0  0  0  0  0  0  0  0  0  0  0  0
    8.6155   -5.3891    4.1249 H   0  0  0  0  0  0  0  0  0  0  0  0
    8.2159   -4.6625    2.4235 H   0  0  0  0  0  0  0  0  0  0  0  0
    8.3655   -6.0589    1.5204 H   0  0  0  0  0  0  0  0  0  0  0  0
    7.5217   -5.2174   -0.2790 H   0  0  0  0  0  0  0  0  0  0  0  0
    7.8871   -1.6029   -0.5662 H   0  0  0  0  0  0  0  0  0  0  0  0
    6.4509   -2.3765   -2.4062 H   0  0  0  0  0  0  0  0  0  0  0  0
    7.1516   -3.8354   -1.9758 H   0  0  0  0  0  0  0  0  0  0  0  0
    4.4754   -3.8158   -1.6950 H   0  0  0  0  0  0  0  0  0  0  0  0
    4.3737    0.0818   -1.1578 H   0  0  0  0  0  0  0  0  0  0  0  0
    4.2182   -1.1557   -2.3819 H   0  0  0  0  0  0  0  0  0  0  0  0
    5.7859   -0.5311   -1.8452 H   0  0  0  0  0  0  0  0  0  0  0  0
    3.1924   -0.6480    0.4004 H   0  0  0  0  0  0  0  0  0  0  0  0
    3.1444   -2.1735    1.1473 H   0  0  0  0  0  0  0  0  0  0  0  0
    2.6286   -2.0379   -0.5195 H   0  0  0  0  0  0  0  0  0  0  0  0
    6.2029   -0.7052    0.6981 H   0  0  0  0  0  0  0  0  0  0  0  0
    6.8716   -2.6074    2.3896 H   0  0  0  0  0  0  0  0  0  0  0  0
    4.4723   -1.1866    2.5447 H   0  0  0  0  0  0  0  0  0  0  0  0
    4.1318   -3.5123    2.9682 H   0  0  0  0  0  0  0  0  0  0  0  0
    5.7743   -6.4428    0.4229 H   0  0  0  0  0  0  0  0  0  0  0  0
    4.4110   -5.6690    2.8939 H   0  0  0  0  0  0  0  0  0  0  0  0
  1  2  1  0
  1 31  1  0
  1 32  1  0
  1 33  1  0
  2  3  1  0
  2 34  1  0
  2 35  1  0
  3  4  1  0
  4 29  1  0
  4  5  1  0
  4 36  1  6
  5  6  1  0
  5  7  1  0
  5 37  1  1
  6 38  1  0
  7  8  1  0
  7  9  1  0
  7 39  1  1
  8 40  1  0
  9 10  1  0
  9 11  1  0
  9 41  1  1
 10 42  1  0
 11 30  1  0
 11 12  1  1
 11 14  1  0
 12 13  1  0
 12 43  1  0
 12 44  1  0
 13 45  1  0
 14 15  1  0
 14 46  1  0
 14 47  1  0
 15 28  1  0
 15 16  1  0
 15 48  1  6
 16 17  1  0
 17 23  1  0
 17 18  1  0
 17 49  1  6
 18 19  1  0
 18 50  1  0
 18 51  1  0
 19 28  1  0
 19 20  1  0
 19 52  1  6
 20 21  1  0
 20 22  1  0
 20 23  1  0
 21 53  1  0
 21 54  1  0
 21 55  1  0
 22 56  1  0
 22 57  1  0
 22 58  1  0
 23 24  1  0
 23 59  1  1
 24 25  1  0
 24 26  1  0
 24 60  1  1
 25 61  1  0
 26 30  1  0
 26 27  1  0
 26 62  1  1
 28 27  1  1
 28 29  1  0
 29 30  1  0
 29 63  1  6
 30 64  1  1
M  END
>  <i_m_ct_stereo_status>  (138) 
1

>  <s_m_source_file>  (138) 
/var/tmp/pbs.5076255.sched01/tmpar858yha/42b8svm9_t.sdf

>  <i_m_source_file_index>  (138) 
12

>  <i_lp_mmshare_version>  (138) 
48012

>  <i_f3d_flags>  (138) 
0

>  <s_epik_input>  (138) 
W09IXVtDQEBIXTFbQ0BIXShbT0hdKVtDQEhdKFtPSF0pW0NAQEhdKE9bQ0gyXVtDSDNdKVtDQEBIXTJbQ0BASF0oW0NAXTEoW0NIMl1bT0hdKVtDSDJdW0NASF0zW0NAXTI0NSlbQ0BIXShPNSlbQ0BIXShbT0hdKVtDQEhdNltDQEBIXShPMylbQ0gyXVtDQEBIXTRDNihbQ0gzXSlbQ0gzXQ==

>  <s_epik_cmdline>  (138) 
J2VwaWtfcHl0aG9uJywgJy1waHQnLCAnMi4wJywgJy1waCcsICc3LjAnLCAnLXRuJywgJzgnLCAnLW1hJywgJzIwMCcsICctaW1hZScsICc8aW5maWxlLm1hZT4nLCAnLW9tYWUnLCAnPG91dGZpbGUubWFlPic=

>  <r_lp_tautomer_probability>  (138) 
1

>  <r_epik_Ionization_Penalty>  (138) 
3.05328e-07

>  <r_epik_Ionization_Penalty_Charging>  (138) 
0

>  <r_epik_Ionization_Penalty_Neutral>  (138) 
3.05328e-07

>  <r_epik_State_Penalty>  (138) 
-0

>  <r_epik_Charging_Adjusted_Penalty>  (138) 
0

>  <i_epik_Tot_Q>  (138) 
0

>  <i_epik_Tot_abs_Q>  (138) 
0

>  <s_lp_Force_Field>  (138) 
OPLS3e

>  <r_lp_Energy>  (138) 
199.637

>  <b_lp_Chiralities_Consistent>  (138) 
1

>  <s_lp_Variant>  (138) 
37:0-1

>  <s_i_glide_gridfile>  (138) 
pfpi4k_grid

>  <i_i_glide_lignum>  (138) 
12

>  <i_i_glide_rotatable_bonds>  (138) 
8

>  <r_i_docking_score>  (138) 
-2.01818

>  <r_i_glide_ligand_efficiency>  (138) 
-0.0672726

>  <r_i_glide_ligand_efficiency_sa>  (138) 
-0.209032

>  <r_i_glide_ligand_efficiency_ln>  (138) 
-0.458552

>  <r_i_glide_gscore>  (138) 
-2.01818

>  <r_i_glide_lipo>  (138) 
-0.790781

>  <r_i_glide_hbond>  (138) 
0

>  <r_i_glide_metal>  (138) 
-0

>  <r_i_glide_rewards>  (138) 
-0.501133

>  <r_i_glide_evdw>  (138) 
-13.2772

>  <r_i_glide_ecoul>  (138) 
-1.87077

>  <r_i_glide_erotb>  (138) 
0.218212

>  <r_i_glide_esite>  (138) 
0

>  <r_i_glide_emodel>  (138) 
-13.7606

>  <r_i_glide_energy>  (138) 
-15.148

>  <r_i_glide_einternal>  (138) 
3.32155

>  <r_i_glide_intrahb_reward>  (138) 
-0

>  <i_i_glide_confnum>  (138) 
3

>  <i_i_glide_posenum>  (138) 
23

>  <r_i_glide_eff_state_penalty>  (138) 
0

>  <ligand_id>  (138) 
37

>  <original_smiles>  (138) 
CCOC1C(O)C(O)C(O)C2(CO)CC3OC4CC5C(C)(C)C4C(O)C4OC35C1C42

>  <smiles>  (138) 
[H]OC([H])([H])C12C([H])([H])C3([H])OC4([H])C([H])([H])C5([H])C36OC([H])(C([H])(O[H])C4([H])C5(C([H])([H])[H])C([H])([H])[H])C1([H])C6([H])C([H])(OC([H])([H])C([H])([H])[H])C([H])(O[H])C([H])(O[H])C2([H])O[H]

$$$$
37:0:2
     RDKit          3D

 64 69  0  0  1  0  0  0  0  0999 V2000
    1.3770   -7.9271    1.5832 C   0  0  0  0  0  0  0  0  0  0  0  0
    1.1421   -6.6677    0.7515 C   0  0  0  0  0  0  0  0  0  0  0  0
    2.1864   -5.6845    0.9238 O   0  0  0  0  0  0  0  0  0  0  0  0
    3.5418   -6.1484    0.8189 C   0  0  2  0  0  0  0  0  0  0  0  0
    4.0727   -6.9444    2.0774 C   0  0  1  0  0  0  0  0  0  0  0  0
    4.8228   -8.0742    1.6996 O   0  0  0  0  0  0  0  0  0  0  0  0
    4.4852   -6.2536    3.4049 C   0  0  1  0  0  0  0  0  0  0  0  0
    4.6315   -7.2653    4.3984 O   0  0  0  0  0  0  0  0  0  0  0  0
    5.7457   -5.3369    3.3547 C   0  0  1  0  0  0  0  0  0  0  0  0
    6.8260   -6.1144    2.8674 O   0  0  0  0  0  0  0  0  0  0  0  0
    5.5985   -3.9007    2.6654 C   0  0  1  0  0  0  0  0  0  0  0  0
    5.5014   -2.8151    3.7885 C   0  0  0  0  0  0  0  0  0  0  0  0
    4.2143   -2.6714    4.3399 O   0  0  0  0  0  0  0  0  0  0  0  0
    6.7478   -3.5094    1.6873 C   0  0  0  0  0  0  0  0  0  0  0  0
    6.4627   -3.6298    0.1315 C   0  0  2  0  0  0  0  0  0  0  0  0
    7.0091   -2.4795   -0.5100 O   0  0  0  0  0  0  0  0  0  0  0  0
    6.3404   -2.1431   -1.7053 C   0  0  1  0  0  0  0  0  0  0  0  0
    6.0723   -3.4459   -2.5048 C   0  0  0  0  0  0  0  0  0  0  0  0
    4.7065   -3.8004   -1.9432 C   0  0  2  0  0  0  0  0  0  0  0  0
    4.0206   -2.3904   -2.2509 C   0  0  0  0  0  0  0  0  0  0  0  0
    4.0686   -1.9421   -3.7550 C   0  0  0  0  0  0  0  0  0  0  0  0
    2.5058   -2.2645   -1.9961 C   0  0  0  0  0  0  0  0  0  0  0  0
    4.9525   -1.4913   -1.3610 C   0  0  1  0  0  0  0  0  0  0  0  0
    4.6296   -1.3989    0.2312 C   0  0  1  0  0  0  0  0  0  0  0  0
    3.7722   -0.2901    0.3988 O   0  0  0  0  0  0  0  0  0  0  0  0
    3.9066   -2.6009    1.0165 C   0  0  1  0  0  0  0  0  0  0  0  0
    3.7812   -3.4614   -0.0221 O   0  0  0  0  0  0  0  0  0  0  0  0
    4.9861   -4.0673   -0.3941 C   0  0  2  0  0  0  0  0  0  0  0  0
    4.5742   -5.0204    0.7027 C   0  0  1  0  0  0  0  0  0  0  0  0
    4.3578   -3.9030    1.7823 C   0  0  1  0  0  0  0  0  0  0  0  0
    0.6288   -8.7186    1.5256 H   0  0  0  0  0  0  0  0  0  0  0  0
    1.3879   -7.6478    2.6276 H   0  0  0  0  0  0  0  0  0  0  0  0
    2.2644   -8.4271    1.2140 H   0  0  0  0  0  0  0  0  0  0  0  0
    1.0190   -6.9348   -0.2844 H   0  0  0  0  0  0  0  0  0  0  0  0
    0.1992   -6.2470    1.0740 H   0  0  0  0  0  0  0  0  0  0  0  0
    3.6176   -6.7742   -0.0782 H   0  0  0  0  0  0  0  0  0  0  0  0
    3.3006   -7.4544    2.6265 H   0  0  0  0  0  0  0  0  0  0  0  0
    4.6714   -8.7472    2.3500 H   0  0  0  0  0  0  0  0  0  0  0  0
    3.6216   -5.6994    3.7878 H   0  0  0  0  0  0  0  0  0  0  0  0
    5.3032   -7.8691    4.1197 H   0  0  0  0  0  0  0  0  0  0  0  0
    5.9954   -5.1887    4.4046 H   0  0  0  0  0  0  0  0  0  0  0  0
    6.6548   -6.3704    1.9712 H   0  0  0  0  0  0  0  0  0  0  0  0
    6.1905   -3.0413    4.6072 H   0  0  0  0  0  0  0  0  0  0  0  0
    5.7988   -1.8328    3.4255 H   0  0  0  0  0  0  0  0  0  0  0  0
    3.6302   -2.3986    3.6483 H   0  0  0  0  0  0  0  0  0  0  0  0
    6.9765   -2.4631    1.8242 H   0  0  0  0  0  0  0  0  0  0  0  0
    7.6951   -3.9804    1.9535 H   0  0  0  0  0  0  0  0  0  0  0  0
    7.1415   -4.4158   -0.1868 H   0  0  0  0  0  0  0  0  0  0  0  0
    6.9850   -1.4815   -2.2676 H   0  0  0  0  0  0  0  0  0  0  0  0
    6.1011   -3.3467   -3.5866 H   0  0  0  0  0  0  0  0  0  0  0  0
    6.8038   -4.1957   -2.3582 H   0  0  0  0  0  0  0  0  0  0  0  0
    4.2399   -4.6312   -2.4536 H   0  0  0  0  0  0  0  0  0  0  0  0
    3.4280   -1.0903   -3.9832 H   0  0  0  0  0  0  0  0  0  0  0  0
    3.7699   -2.7523   -4.4190 H   0  0  0  0  0  0  0  0  0  0  0  0
    5.0308   -1.5917   -4.0814 H   0  0  0  0  0  0  0  0  0  0  0  0
    2.1185   -1.3200   -2.3405 H   0  0  0  0  0  0  0  0  0  0  0  0
    2.2301   -2.2762   -0.9476 H   0  0  0  0  0  0  0  0  0  0  0  0
    1.9169   -3.0520   -2.4818 H   0  0  0  0  0  0  0  0  0  0  0  0
    4.9674   -0.4748   -1.7610 H   0  0  0  0  0  0  0  0  0  0  0  0
    5.5138   -1.0789    0.7768 H   0  0  0  0  0  0  0  0  0  0  0  0
    2.9202   -0.4960    0.0259 H   0  0  0  0  0  0  0  0  0  0  0  0
    2.9061   -2.3066    1.3395 H   0  0  0  0  0  0  0  0  0  0  0  0
    5.4726   -5.6177    0.8220 H   0  0  0  0  0  0  0  0  0  0  0  0
    3.4853   -4.1334    2.3937 H   0  0  0  0  0  0  0  0  0  0  0  0
  1  2  1  0
  1 31  1  0
  1 32  1  0
  1 33  1  0
  2  3  1  0
  2 34  1  0
  2 35  1  0
  3  4  1  0
  4 29  1  0
  4  5  1  0
  4 36  1  6
  5  6  1  0
  5  7  1  0
  5 37  1  1
  6 38  1  0
  7  8  1  0
  7  9  1  0
  7 39  1  1
  8 40  1  0
  9 10  1  0
  9 11  1  0
  9 41  1  1
 10 42  1  0
 11 30  1  0
 11 12  1  1
 11 14  1  0
 12 13  1  0
 12 43  1  0
 12 44  1  0
 13 45  1  0
 14 15  1  0
 14 46  1  0
 14 47  1  0
 15 28  1  0
 15 16  1  0
 15 48  1  6
 16 17  1  0
 17 23  1  0
 17 18  1  0
 17 49  1  6
 18 19  1  0
 18 50  1  0
 18 51  1  0
 19 28  1  0
 19 20  1  0
 19 52  1  6
 20 21  1  0
 20 22  1  0
 20 23  1  0
 21 53  1  0
 21 54  1  0
 21 55  1  0
 22 56  1  0
 22 57  1  0
 22 58  1  0
 23 24  1  0
 23 59  1  6
 24 25  1  0
 24 26  1  0
 24 60  1  1
 25 61  1  0
 26 30  1  0
 26 27  1  0
 26 62  1  1
 28 27  1  1
 28 29  1  0
 29 30  1  0
 29 63  1  1
 30 64  1  1
M  END
>  <i_m_ct_stereo_status>  (139) 
1

>  <s_m_source_file>  (139) 
/var/tmp/pbs.5076255.sched01/tmpar858yha/42b8svm9_t.sdf

>  <i_m_source_file_index>  (139) 
12

>  <i_lp_mmshare_version>  (139) 
48012

>  <i_f3d_flags>  (139) 
0

>  <s_epik_input>  (139) 
W09IXVtDQEBIXTFbQ0BIXShbT0hdKVtDQEhdKFtPSF0pW0NAQEhdKE9bQ0gyXVtDSDNdKVtDQEBIXTJbQ0BASF0oW0NAXTEoW0NIMl1bT0hdKVtDSDJdW0NASF0zW0NAXTI0NSlbQ0BIXShPNSlbQ0BIXShbT0hdKVtDQEhdNltDQEBIXShPMylbQ0gyXVtDQEBIXTRDNihbQ0gzXSlbQ0gzXQ==

>  <s_epik_cmdline>  (139) 
J2VwaWtfcHl0aG9uJywgJy1waHQnLCAnMi4wJywgJy1waCcsICc3LjAnLCAnLXRuJywgJzgnLCAnLW1hJywgJzIwMCcsICctaW1hZScsICc8aW5maWxlLm1hZT4nLCAnLW9tYWUnLCAnPG91dGZpbGUubWFlPic=

>  <r_lp_tautomer_probability>  (139) 
1

>  <r_epik_Ionization_Penalty>  (139) 
3.05328e-07

>  <r_epik_Ionization_Penalty_Charging>  (139) 
0

>  <r_epik_Ionization_Penalty_Neutral>  (139) 
3.05328e-07

>  <r_epik_State_Penalty>  (139) 
-0

>  <r_epik_Charging_Adjusted_Penalty>  (139) 
0

>  <i_epik_Tot_Q>  (139) 
0

>  <i_epik_Tot_abs_Q>  (139) 
0

>  <s_lp_Force_Field>  (139) 
OPLS3e

>  <r_lp_Energy>  (139) 
199.637

>  <b_lp_Chiralities_Consistent>  (139) 
1

>  <s_lp_Variant>  (139) 
37:0-1

>  <s_i_glide_gridfile>  (139) 
pfpi4k_grid

>  <i_i_glide_lignum>  (139) 
12

>  <i_i_glide_rotatable_bonds>  (139) 
8

>  <r_i_docking_score>  (139) 
-1.29289

>  <r_i_glide_ligand_efficiency>  (139) 
-0.0430964

>  <r_i_glide_ligand_efficiency_sa>  (139) 
-0.133911

>  <r_i_glide_ligand_efficiency_ln>  (139) 
-0.293759

>  <r_i_glide_gscore>  (139) 
-1.29289

>  <r_i_glide_lipo>  (139) 
-0.831463

>  <r_i_glide_hbond>  (139) 
-0.0412539

>  <r_i_glide_metal>  (139) 
-0

>  <r_i_glide_rewards>  (139) 
-0.501133

>  <r_i_glide_evdw>  (139) 
-8.25118

>  <r_i_glide_ecoul>  (139) 
-0.800292

>  <r_i_glide_erotb>  (139) 
0.218212

>  <r_i_glide_esite>  (139) 
0

>  <r_i_glide_emodel>  (139) 
-2.70336

>  <r_i_glide_energy>  (139) 
-9.05147

>  <r_i_glide_einternal>  (139) 
5.73424

>  <r_i_glide_intrahb_reward>  (139) 
-0

>  <i_i_glide_confnum>  (139) 
6

>  <i_i_glide_posenum>  (139) 
1

>  <r_i_glide_eff_state_penalty>  (139) 
0

>  <ligand_id>  (139) 
37

>  <original_smiles>  (139) 
CCOC1C(O)C(O)C(O)C2(CO)CC3OC4CC5C(C)(C)C4C(O)C4OC35C1C42

>  <smiles>  (139) 
[H]OC([H])([H])C12C([H])([H])C3([H])OC4([H])C([H])([H])C5([H])C36OC([H])(C([H])(O[H])C4([H])C5(C([H])([H])[H])C([H])([H])[H])C1([H])C6([H])C([H])(OC([H])([H])C([H])([H])[H])C([H])(O[H])C([H])(O[H])C2([H])O[H]

$$$$
38:0:0
     RDKit          3D

 57 61  0  0  1  0  0  0  0  0999 V2000
    6.2104   -2.9990   -2.1876 C   0  0  0  0  0  0  0  0  0  0  0  0
    4.9484   -2.9646   -1.3021 C   0  0  0  0  0  0  0  0  0  0  0  0
    4.8236   -1.5626   -0.6497 C   0  0  0  0  0  0  0  0  0  0  0  0
    3.7014   -3.1097   -2.1945 C   0  0  0  0  0  0  0  0  0  0  0  0
    3.7570   -2.9109   -3.4100 O   0  0  0  0  0  0  0  0  0  0  0  0
    2.4576   -3.4536   -1.5144 C   0  0  0  0  0  0  0  0  0  0  0  0
    2.4714   -4.0607   -0.3150 C   0  0  0  0  0  0  0  0  0  0  0  0
    3.6865   -4.5091    0.4970 C   0  0  1  0  0  0  0  0  0  0  0  0
    3.5351   -6.0487    0.5531 C   0  0  0  0  0  0  0  0  0  0  0  0
    5.0152   -4.1511   -0.2650 C   0  0  2  0  0  0  0  0  0  0  0  0
    6.2402   -4.0409    0.6828 C   0  0  0  0  0  0  0  0  0  0  0  0
    6.1034   -4.8041    2.0019 C   0  0  0  0  0  0  0  0  0  0  0  0
    4.8852   -4.3745    2.8753 C   0  0  2  0  0  0  0  0  0  0  0  0
    5.3161   -3.1839    3.7723 C   0  0  0  0  0  0  0  0  0  0  0  0
    4.4449   -5.6061    3.7584 C   0  0  1  0  0  0  0  0  0  0  0  0
    5.5365   -6.2031    4.7158 C   0  0  0  0  0  0  0  0  0  0  0  0
    5.2211   -6.0682    6.2291 C   0  0  0  0  0  0  0  0  0  0  0  0
    3.7165   -5.9300    6.4813 C   0  0  2  0  0  0  0  0  0  0  0  0
    2.7700   -6.6192    5.4707 C   0  0  0  0  0  0  0  0  0  0  0  0
    3.0808   -5.4668    4.4821 C   0  0  2  0  0  0  0  0  0  0  0  0
    1.9708   -4.9813    3.5561 C   0  0  0  0  0  0  0  0  0  0  0  0
    2.3712   -3.7563    2.7241 C   0  0  0  0  0  0  0  0  0  0  0  0
    3.7163   -3.8724    1.9458 C   0  0  2  0  0  0  0  0  0  0  0  0
    3.2159   -4.6411    5.7933 C   0  0  0  0  0  0  0  0  0  0  0  0
    2.9167   -3.5052    6.1692 O   0  0  0  0  0  0  0  0  0  0  0  0
    7.1277   -2.8013   -1.6332 H   0  0  0  0  0  0  0  0  0  0  0  0
    6.1394   -2.2629   -2.9808 H   0  0  0  0  0  0  0  0  0  0  0  0
    6.3094   -3.9512   -2.7006 H   0  0  0  0  0  0  0  0  0  0  0  0
    5.6844   -1.2842   -0.0392 H   0  0  0  0  0  0  0  0  0  0  0  0
    3.9294   -1.4827   -0.0250 H   0  0  0  0  0  0  0  0  0  0  0  0
    4.7303   -0.7860   -1.4142 H   0  0  0  0  0  0  0  0  0  0  0  0
    1.5280   -3.2271   -2.0115 H   0  0  0  0  0  0  0  0  0  0  0  0
    1.5294   -4.3458    0.1047 H   0  0  0  0  0  0  0  0  0  0  0  0
    4.3963   -6.5869    0.9253 H   0  0  0  0  0  0  0  0  0  0  0  0
    3.4190   -6.4341   -0.4498 H   0  0  0  0  0  0  0  0  0  0  0  0
    2.6626   -6.3664    1.1187 H   0  0  0  0  0  0  0  0  0  0  0  0
    5.2243   -5.0260   -0.8832 H   0  0  0  0  0  0  0  0  0  0  0  0
    7.1224   -4.4072    0.1628 H   0  0  0  0  0  0  0  0  0  0  0  0
    6.4751   -3.0099    0.9177 H   0  0  0  0  0  0  0  0  0  0  0  0
    6.1091   -5.8738    1.7985 H   0  0  0  0  0  0  0  0  0  0  0  0
    7.0202   -4.6516    2.5529 H   0  0  0  0  0  0  0  0  0  0  0  0
    4.4804   -2.7006    4.2671 H   0  0  0  0  0  0  0  0  0  0  0  0
    5.8117   -2.4034    3.1955 H   0  0  0  0  0  0  0  0  0  0  0  0
    5.9953   -3.4941    4.5636 H   0  0  0  0  0  0  0  0  0  0  0  0
    4.2850   -6.4109    3.0470 H   0  0  0  0  0  0  0  0  0  0  0  0
    5.5776   -7.2721    4.5025 H   0  0  0  0  0  0  0  0  0  0  0  0
    6.5365   -5.8278    4.5027 H   0  0  0  0  0  0  0  0  0  0  0  0
    5.6070   -6.9451    6.7530 H   0  0  0  0  0  0  0  0  0  0  0  0
    5.7598   -5.2159    6.6453 H   0  0  0  0  0  0  0  0  0  0  0  0
    3.4046   -6.0254    7.5232 H   0  0  0  0  0  0  0  0  0  0  0  0
    3.1121   -7.5988    5.1377 H   0  0  0  0  0  0  0  0  0  0  0  0
    1.7322   -6.6609    5.7996 H   0  0  0  0  0  0  0  0  0  0  0  0
    1.6487   -5.7931    2.9116 H   0  0  0  0  0  0  0  0  0  0  0  0
    1.0878   -4.7270    4.1419 H   0  0  0  0  0  0  0  0  0  0  0  0
    1.5500   -3.4716    2.0780 H   0  0  0  0  0  0  0  0  0  0  0  0
    2.4508   -2.9131    3.4120 H   0  0  0  0  0  0  0  0  0  0  0  0
    3.9461   -2.8308    1.7309 H   0  0  0  0  0  0  0  0  0  0  0  0
  1  2  1  0
  1 26  1  0
  1 27  1  0
  1 28  1  0
  2 10  1  0
  2  3  1  0
  2  4  1  0
  3 29  1  0
  3 30  1  0
  3 31  1  0
  4  5  2  0
  4  6  1  0
  6  7  2  0
  6 32  1  0
  7  8  1  0
  7 33  1  0
  8 23  1  0
  8  9  1  1
  8 10  1  0
  9 34  1  0
  9 35  1  0
  9 36  1  0
 10 11  1  0
 10 37  1  6
 11 12  1  0
 11 38  1  0
 11 39  1  0
 12 13  1  0
 12 40  1  0
 12 41  1  0
 13 23  1  0
 13 14  1  1
 13 15  1  0
 14 42  1  0
 14 43  1  0
 14 44  1  0
 15 20  1  0
 15 16  1  0
 15 45  1  6
 16 17  1  0
 16 46  1  0
 16 47  1  0
 17 18  1  0
 17 48  1  0
 17 49  1  0
 18 24  1  0
 18 19  1  0
 18 50  1  1
 19 20  1  0
 19 51  1  0
 19 52  1  0
 20 21  1  6
 20 24  1  0
 21 22  1  0
 21 53  1  0
 21 54  1  0
 22 23  1  0
 22 55  1  0
 22 56  1  0
 23 57  1  6
 24 25  2  0
M  END
>  <i_m_ct_stereo_status>  (140) 
1

>  <s_m_source_file>  (140) 
/var/tmp/pbs.5076255.sched01/tmpar858yha/42b8svm9_t.sdf

>  <i_m_source_file_index>  (140) 
13

>  <i_lp_mmshare_version>  (140) 
48012

>  <i_f3d_flags>  (140) 
0

>  <s_epik_input>  (140) 
W0NIXTE9W0NIXUMoPU8pQyhbQ0gzXSkoW0NIM10pW0NAQEhdKFtDSDJdW0NIMl0yKVtDQEBdMShbQ0gzXSlbQ0BASF0oW0NIMl1bQ0gyXTMpW0NAQF0yKFtDSDNdKVtDQEhdKFtDQEBdMzQ1KVtDSDJdW0NIMl1bQ0BIXShbQ0gyXTQpQzU9Tw==

>  <s_epik_cmdline>  (140) 
J2VwaWtfcHl0aG9uJywgJy1waHQnLCAnMi4wJywgJy1waCcsICc3LjAnLCAnLXRuJywgJzgnLCAnLW1hJywgJzIwMCcsICctaW1hZScsICc8aW5maWxlLm1hZT4nLCAnLW9tYWUnLCAnPG91dGZpbGUubWFlPic=

>  <r_lp_tautomer_probability>  (140) 
1

>  <r_epik_Ionization_Penalty>  (140) 
2.42067e-14

>  <r_epik_Ionization_Penalty_Charging>  (140) 
0

>  <r_epik_Ionization_Penalty_Neutral>  (140) 
2.42067e-14

>  <r_epik_State_Penalty>  (140) 
-0

>  <r_epik_Charging_Adjusted_Penalty>  (140) 
0

>  <i_epik_Tot_Q>  (140) 
0

>  <i_epik_Tot_abs_Q>  (140) 
0

>  <s_lp_Force_Field>  (140) 
OPLS3e

>  <r_lp_Energy>  (140) 
64.9678

>  <b_lp_Chiralities_Consistent>  (140) 
1

>  <s_lp_Variant>  (140) 
38:0-1

>  <s_i_glide_gridfile>  (140) 
pfpi4k_grid

>  <i_i_glide_lignum>  (140) 
13

>  <i_i_glide_rotatable_bonds>  (140) 
0

>  <r_i_docking_score>  (140) 
-2.71142

>  <r_i_glide_ligand_efficiency>  (140) 
-0.108457

>  <r_i_glide_ligand_efficiency_sa>  (140) 
-0.317129

>  <r_i_glide_ligand_efficiency_ln>  (140) 
-0.642687

>  <r_i_glide_gscore>  (140) 
-2.71142

>  <r_i_glide_lipo>  (140) 
-0.489647

>  <r_i_glide_hbond>  (140) 
0

>  <r_i_glide_metal>  (140) 
-0

>  <r_i_glide_rewards>  (140) 
-1.08751

>  <r_i_glide_evdw>  (140) 
-18.0153

>  <r_i_glide_ecoul>  (140) 
-1.41841

>  <r_i_glide_erotb>  (140) 
0

>  <r_i_glide_esite>  (140) 
-0.0207375

>  <r_i_glide_emodel>  (140) 
-23.3301

>  <r_i_glide_energy>  (140) 
-19.4337

>  <r_i_glide_einternal>  (140) 
0

>  <r_i_glide_intrahb_reward>  (140) 
-0

>  <i_i_glide_confnum>  (140) 
2

>  <i_i_glide_posenum>  (140) 
19

>  <r_i_glide_eff_state_penalty>  (140) 
0

>  <ligand_id>  (140) 
38

>  <original_smiles>  (140) 
CC1(C)C(=O)C=CC2(C)C1CCC1(C)C3CCC4CC3(CCC21)C4=O

>  <smiles>  (140) 
[H]C1=C([H])C2(C([H])([H])[H])C([H])(C([H])([H])C([H])([H])C3(C([H])([H])[H])C4([H])C([H])([H])C([H])([H])C5([H])C(=O)C4(C([H])([H])C([H])([H])C23[H])C5([H])[H])C(C([H])([H])[H])(C([H])([H])[H])C1=O

$$$$
38:0:1
     RDKit          3D

 57 61  0  0  1  0  0  0  0  0999 V2000
    1.1365   -8.5522    3.4945 C   0  0  0  0  0  0  0  0  0  0  0  0
    2.3957   -7.6560    3.6564 C   0  0  0  0  0  0  0  0  0  0  0  0
    2.0690   -6.5181    4.6605 C   0  0  0  0  0  0  0  0  0  0  0  0
    3.5275   -8.4718    4.3078 C   0  0  0  0  0  0  0  0  0  0  0  0
    3.2882   -9.5198    4.9059 O   0  0  0  0  0  0  0  0  0  0  0  0
    4.8750   -7.9124    4.2413 C   0  0  0  0  0  0  0  0  0  0  0  0
    5.2036   -7.0098    3.3029 C   0  0  0  0  0  0  0  0  0  0  0  0
    4.3150   -6.5117    2.1584 C   0  0  1  0  0  0  0  0  0  0  0  0
    5.0220   -7.0675    0.8959 C   0  0  0  0  0  0  0  0  0  0  0  0
    2.8675   -7.1431    2.2455 C   0  0  2  0  0  0  0  0  0  0  0  0
    1.7793   -6.2765    1.5488 C   0  0  0  0  0  0  0  0  0  0  0  0
    2.3106   -5.3251    0.4770 C   0  0  0  0  0  0  0  0  0  0  0  0
    3.3811   -4.3088    0.9610 C   0  0  2  0  0  0  0  0  0  0  0  0
    2.6322   -3.0520    1.4790 C   0  0  0  0  0  0  0  0  0  0  0  0
    4.3240   -3.9411   -0.2522 C   0  0  1  0  0  0  0  0  0  0  0  0
    3.6305   -3.3298   -1.5188 C   0  0  0  0  0  0  0  0  0  0  0  0
    4.0255   -1.8656   -1.8432 C   0  0  0  0  0  0  0  0  0  0  0  0
    5.3956   -1.5108   -1.2538 C   0  0  2  0  0  0  0  0  0  0  0  0
    6.4194   -2.6614   -1.1229 C   0  0  0  0  0  0  0  0  0  0  0  0
    5.6132   -3.1550    0.1069 C   0  0  2  0  0  0  0  0  0  0  0  0
    6.3679   -3.7821    1.2726 C   0  0  0  0  0  0  0  0  0  0  0  0
    5.4704   -4.1077    2.4743 C   0  0  0  0  0  0  0  0  0  0  0  0
    4.1943   -4.9351    2.1542 C   0  0  2  0  0  0  0  0  0  0  0  0
    5.3195   -1.6382    0.2795 C   0  0  0  0  0  0  0  0  0  0  0  0
    5.2423   -0.8425    1.2160 O   0  0  0  0  0  0  0  0  0  0  0  0
    0.2781   -7.9957    3.1148 H   0  0  0  0  0  0  0  0  0  0  0  0
    0.8230   -8.9988    4.4413 H   0  0  0  0  0  0  0  0  0  0  0  0
    1.3262   -9.3767    2.8018 H   0  0  0  0  0  0  0  0  0  0  0  0
    1.2324   -5.8905    4.3563 H   0  0  0  0  0  0  0  0  0  0  0  0
    2.9267   -5.8666    4.8331 H   0  0  0  0  0  0  0  0  0  0  0  0
    1.7938   -6.9276    5.6341 H   0  0  0  0  0  0  0  0  0  0  0  0
    5.5943   -8.2463    4.9733 H   0  0  0  0  0  0  0  0  0  0  0  0
    6.2272   -6.6592    3.2952 H   0  0  0  0  0  0  0  0  0  0  0  0
    4.4507   -6.9741   -0.0208 H   0  0  0  0  0  0  0  0  0  0  0  0
    5.2168   -8.1366    1.0018 H   0  0  0  0  0  0  0  0  0  0  0  0
    5.9879   -6.5972    0.7324 H   0  0  0  0  0  0  0  0  0  0  0  0
    2.9214   -8.0521    1.6427 H   0  0  0  0  0  0  0  0  0  0  0  0
    1.0501   -6.9409    1.0863 H   0  0  0  0  0  0  0  0  0  0  0  0
    1.2095   -5.6883    2.2578 H   0  0  0  0  0  0  0  0  0  0  0  0
    2.6923   -5.9332   -0.3246 H   0  0  0  0  0  0  0  0  0  0  0  0
    1.4763   -4.8011    0.0191 H   0  0  0  0  0  0  0  0  0  0  0  0
    3.2848   -2.3685    2.0137 H   0  0  0  0  0  0  0  0  0  0  0  0
    1.8367   -3.3144    2.1764 H   0  0  0  0  0  0  0  0  0  0  0  0
    2.1807   -2.4799    0.6692 H   0  0  0  0  0  0  0  0  0  0  0  0
    4.6886   -4.8988   -0.6191 H   0  0  0  0  0  0  0  0  0  0  0  0
    3.9636   -3.9200   -2.3723 H   0  0  0  0  0  0  0  0  0  0  0  0
    2.5464   -3.4335   -1.5037 H   0  0  0  0  0  0  0  0  0  0  0  0
    4.0400   -1.7298   -2.9271 H   0  0  0  0  0  0  0  0  0  0  0  0
    3.2582   -1.1812   -1.4722 H   0  0  0  0  0  0  0  0  0  0  0  0
    5.8140   -0.5670   -1.6000 H   0  0  0  0  0  0  0  0  0  0  0  0
    6.4261   -3.3598   -1.9599 H   0  0  0  0  0  0  0  0  0  0  0  0
    7.4344   -2.3357   -0.8824 H   0  0  0  0  0  0  0  0  0  0  0  0
    6.8990   -4.6701    0.9402 H   0  0  0  0  0  0  0  0  0  0  0  0
    7.1522   -3.1028    1.6068 H   0  0  0  0  0  0  0  0  0  0  0  0
    6.0698   -4.5610    3.2571 H   0  0  0  0  0  0  0  0  0  0  0  0
    5.1647   -3.1589    2.9143 H   0  0  0  0  0  0  0  0  0  0  0  0
    3.5816   -4.7517    3.0345 H   0  0  0  0  0  0  0  0  0  0  0  0
  1  2  1  0
  1 26  1  0
  1 27  1  0
  1 28  1  0
  2 10  1  0
  2  3  1  0
  2  4  1  0
  3 29  1  0
  3 30  1  0
  3 31  1  0
  4  5  2  0
  4  6  1  0
  6  7  2  0
  6 32  1  0
  7  8  1  0
  7 33  1  0
  8 23  1  0
  8  9  1  6
  8 10  1  0
  9 34  1  0
  9 35  1  0
  9 36  1  0
 10 11  1  0
 10 37  1  6
 11 12  1  0
 11 38  1  0
 11 39  1  0
 12 13  1  0
 12 40  1  0
 12 41  1  0
 13 23  1  0
 13 14  1  1
 13 15  1  0
 14 42  1  0
 14 43  1  0
 14 44  1  0
 15 20  1  0
 15 16  1  0
 15 45  1  6
 16 17  1  0
 16 46  1  0
 16 47  1  0
 17 18  1  0
 17 48  1  0
 17 49  1  0
 18 24  1  0
 18 19  1  0
 18 50  1  1
 19 20  1  0
 19 51  1  0
 19 52  1  0
 20 21  1  1
 20 24  1  0
 21 22  1  0
 21 53  1  0
 21 54  1  0
 22 23  1  0
 22 55  1  0
 22 56  1  0
 23 57  1  1
 24 25  2  0
M  END
>  <i_m_ct_stereo_status>  (141) 
1

>  <s_m_source_file>  (141) 
/var/tmp/pbs.5076255.sched01/tmpar858yha/42b8svm9_t.sdf

>  <i_m_source_file_index>  (141) 
13

>  <i_lp_mmshare_version>  (141) 
48012

>  <i_f3d_flags>  (141) 
0

>  <s_epik_input>  (141) 
W0NIXTE9W0NIXUMoPU8pQyhbQ0gzXSkoW0NIM10pW0NAQEhdKFtDSDJdW0NIMl0yKVtDQEBdMShbQ0gzXSlbQ0BASF0oW0NIMl1bQ0gyXTMpW0NAQF0yKFtDSDNdKVtDQEhdKFtDQEBdMzQ1KVtDSDJdW0NIMl1bQ0BIXShbQ0gyXTQpQzU9Tw==

>  <s_epik_cmdline>  (141) 
J2VwaWtfcHl0aG9uJywgJy1waHQnLCAnMi4wJywgJy1waCcsICc3LjAnLCAnLXRuJywgJzgnLCAnLW1hJywgJzIwMCcsICctaW1hZScsICc8aW5maWxlLm1hZT4nLCAnLW9tYWUnLCAnPG91dGZpbGUubWFlPic=

>  <r_lp_tautomer_probability>  (141) 
1

>  <r_epik_Ionization_Penalty>  (141) 
2.42067e-14

>  <r_epik_Ionization_Penalty_Charging>  (141) 
0

>  <r_epik_Ionization_Penalty_Neutral>  (141) 
2.42067e-14

>  <r_epik_State_Penalty>  (141) 
-0

>  <r_epik_Charging_Adjusted_Penalty>  (141) 
0

>  <i_epik_Tot_Q>  (141) 
0

>  <i_epik_Tot_abs_Q>  (141) 
0

>  <s_lp_Force_Field>  (141) 
OPLS3e

>  <r_lp_Energy>  (141) 
64.9678

>  <b_lp_Chiralities_Consistent>  (141) 
1

>  <s_lp_Variant>  (141) 
38:0-1

>  <s_i_glide_gridfile>  (141) 
pfpi4k_grid

>  <i_i_glide_lignum>  (141) 
13

>  <i_i_glide_rotatable_bonds>  (141) 
0

>  <r_i_docking_score>  (141) 
-2.69959

>  <r_i_glide_ligand_efficiency>  (141) 
-0.107983

>  <r_i_glide_ligand_efficiency_sa>  (141) 
-0.315746

>  <r_i_glide_ligand_efficiency_ln>  (141) 
-0.639883

>  <r_i_glide_gscore>  (141) 
-2.69959

>  <r_i_glide_lipo>  (141) 
-0.282437

>  <r_i_glide_hbond>  (141) 
0

>  <r_i_glide_metal>  (141) 
-0

>  <r_i_glide_rewards>  (141) 
-1.14886

>  <r_i_glide_evdw>  (141) 
-26.2348

>  <r_i_glide_ecoul>  (141) 
0.29253

>  <r_i_glide_erotb>  (141) 
0

>  <r_i_glide_esite>  (141) 
-0.000428239

>  <r_i_glide_emodel>  (141) 
-29.8769

>  <r_i_glide_energy>  (141) 
-25.9422

>  <r_i_glide_einternal>  (141) 
0

>  <r_i_glide_intrahb_reward>  (141) 
-0

>  <i_i_glide_confnum>  (141) 
2

>  <i_i_glide_posenum>  (141) 
1

>  <r_i_glide_eff_state_penalty>  (141) 
0

>  <ligand_id>  (141) 
38

>  <original_smiles>  (141) 
CC1(C)C(=O)C=CC2(C)C1CCC1(C)C3CCC4CC3(CCC21)C4=O

>  <smiles>  (141) 
[H]C1=C([H])C2(C([H])([H])[H])C([H])(C([H])([H])C([H])([H])C3(C([H])([H])[H])C4([H])C([H])([H])C([H])([H])C5([H])C(=O)C4(C([H])([H])C([H])([H])C23[H])C5([H])[H])C(C([H])([H])[H])(C([H])([H])[H])C1=O

$$$$
38:0:2
     RDKit          3D

 57 61  0  0  1  0  0  0  0  0999 V2000
    3.7840   -1.3160    0.9131 C   0  0  0  0  0  0  0  0  0  0  0  0
    4.2450   -2.7860    0.7103 C   0  0  0  0  0  0  0  0  0  0  0  0
    3.4905   -3.3780   -0.5108 C   0  0  0  0  0  0  0  0  0  0  0  0
    5.7375   -2.8084    0.3267 C   0  0  0  0  0  0  0  0  0  0  0  0
    6.3056   -1.7976   -0.0979 O   0  0  0  0  0  0  0  0  0  0  0  0
    6.4253   -4.0938    0.4241 C   0  0  0  0  0  0  0  0  0  0  0  0
    5.9525   -5.0788    1.2059 C   0  0  0  0  0  0  0  0  0  0  0  0
    4.7469   -5.0074    2.1499 C   0  0  1  0  0  0  0  0  0  0  0  0
    5.3890   -5.1341    3.5555 C   0  0  0  0  0  0  0  0  0  0  0  0
    4.0297   -3.6020    2.0434 C   0  0  2  0  0  0  0  0  0  0  0  0
    2.5348   -3.6473    2.4745 C   0  0  0  0  0  0  0  0  0  0  0  0
    2.1524   -4.8059    3.4038 C   0  0  0  0  0  0  0  0  0  0  0  0
    2.4603   -6.2220    2.8314 C   0  0  2  0  0  0  0  0  0  0  0  0
    1.2168   -6.6777    2.0190 C   0  0  0  0  0  0  0  0  0  0  0  0
    2.7374   -7.2014    4.0381 C   0  0  1  0  0  0  0  0  0  0  0  0
    1.5900   -7.3435    5.0990 C   0  0  0  0  0  0  0  0  0  0  0  0
    0.9473   -8.7560    5.1841 C   0  0  0  0  0  0  0  0  0  0  0  0
    1.9027   -9.8403    4.6703 C   0  0  2  0  0  0  0  0  0  0  0  0
    3.4146   -9.5808    4.8539 C   0  0  0  0  0  0  0  0  0  0  0  0
    3.3278   -8.5874    3.6659 C   0  0  2  0  0  0  0  0  0  0  0  0
    4.5104   -8.4857    2.7079 C   0  0  0  0  0  0  0  0  0  0  0  0
    4.2423   -7.5671    1.5090 C   0  0  0  0  0  0  0  0  0  0  0  0
    3.6949   -6.1503    1.8522 C   0  0  2  0  0  0  0  0  0  0  0  0
    2.2138   -9.5522    3.1881 C   0  0  0  0  0  0  0  0  0  0  0  0
    1.8136   -9.9697    2.1051 O   0  0  0  0  0  0  0  0  0  0  0  0
    2.7097   -1.2438    1.0953 H   0  0  0  0  0  0  0  0  0  0  0  0
    3.9880   -0.6937    0.0388 H   0  0  0  0  0  0  0  0  0  0  0  0
    4.2950   -0.8556    1.7625 H   0  0  0  0  0  0  0  0  0  0  0  0
    2.4062   -3.3587   -0.4067 H   0  0  0  0  0  0  0  0  0  0  0  0
    3.7865   -4.4075   -0.7190 H   0  0  0  0  0  0  0  0  0  0  0  0
    3.7063   -2.8075   -1.4158 H   0  0  0  0  0  0  0  0  0  0  0  0
    7.3214   -4.2301   -0.1605 H   0  0  0  0  0  0  0  0  0  0  0  0
    6.5262   -5.9950    1.2457 H   0  0  0  0  0  0  0  0  0  0  0  0
    4.7122   -4.9205    4.3763 H   0  0  0  0  0  0  0  0  0  0  0  0
    6.2076   -4.4233    3.6688 H   0  0  0  0  0  0  0  0  0  0  0  0
    5.8181   -6.1184    3.7244 H   0  0  0  0  0  0  0  0  0  0  0  0
    4.5086   -2.9843    2.8054 H   0  0  0  0  0  0  0  0  0  0  0  0
    2.2793   -2.7108    2.9687 H   0  0  0  0  0  0  0  0  0  0  0  0
    1.8732   -3.6855    1.6190 H   0  0  0  0  0  0  0  0  0  0  0  0
    2.6206   -4.6480    4.3711 H   0  0  0  0  0  0  0  0  0  0  0  0
    1.0898   -4.7211    3.6233 H   0  0  0  0  0  0  0  0  0  0  0  0
    1.4060   -7.5707    1.4305 H   0  0  0  0  0  0  0  0  0  0  0  0
    0.9045   -5.9192    1.3036 H   0  0  0  0  0  0  0  0  0  0  0  0
    0.3625   -6.9013    2.6575 H   0  0  0  0  0  0  0  0  0  0  0  0
    3.5322   -6.7208    4.6036 H   0  0  0  0  0  0  0  0  0  0  0  0
    2.0461   -7.1591    6.0718 H   0  0  0  0  0  0  0  0  0  0  0  0
    0.8179   -6.5824    4.9962 H   0  0  0  0  0  0  0  0  0  0  0  0
    0.6692   -8.9658    6.2198 H   0  0  0  0  0  0  0  0  0  0  0  0
    0.0113   -8.7790    4.6212 H   0  0  0  0  0  0  0  0  0  0  0  0
    1.5972  -10.8685    4.8776 H   0  0  0  0  0  0  0  0  0  0  0  0
    3.6827   -9.1186    5.8047 H   0  0  0  0  0  0  0  0  0  0  0  0
    4.0386  -10.4568    4.6588 H   0  0  0  0  0  0  0  0  0  0  0  0
    5.3970   -8.1608    3.2456 H   0  0  0  0  0  0  0  0  0  0  0  0
    4.7653   -9.4777    2.3291 H   0  0  0  0  0  0  0  0  0  0  0  0
    5.1245   -7.5321    0.8770 H   0  0  0  0  0  0  0  0  0  0  0  0
    3.5095   -8.0745    0.8817 H   0  0  0  0  0  0  0  0  0  0  0  0
    3.2779   -5.8341    0.8981 H   0  0  0  0  0  0  0  0  0  0  0  0
  1  2  1  0
  1 26  1  0
  1 27  1  0
  1 28  1  0
  2 10  1  0
  2  3  1  0
  2  4  1  0
  3 29  1  0
  3 30  1  0
  3 31  1  0
  4  5  2  0
  4  6  1  0
  6  7  2  0
  6 32  1  0
  7  8  1  0
  7 33  1  0
  8 23  1  0
  8  9  1  1
  8 10  1  0
  9 34  1  0
  9 35  1  0
  9 36  1  0
 10 11  1  0
 10 37  1  1
 11 12  1  0
 11 38  1  0
 11 39  1  0
 12 13  1  0
 12 40  1  0
 12 41  1  0
 13 23  1  0
 13 14  1  6
 13 15  1  0
 14 42  1  0
 14 43  1  0
 14 44  1  0
 15 20  1  0
 15 16  1  0
 15 45  1  1
 16 17  1  0
 16 46  1  0
 16 47  1  0
 17 18  1  0
 17 48  1  0
 17 49  1  0
 18 24  1  0
 18 19  1  0
 18 50  1  6
 19 20  1  0
 19 51  1  0
 19 52  1  0
 20 21  1  6
 20 24  1  0
 21 22  1  0
 21 53  1  0
 21 54  1  0
 22 23  1  0
 22 55  1  0
 22 56  1  0
 23 57  1  6
 24 25  2  0
M  END
>  <i_m_ct_stereo_status>  (142) 
1

>  <s_m_source_file>  (142) 
/var/tmp/pbs.5076255.sched01/tmpar858yha/42b8svm9_t.sdf

>  <i_m_source_file_index>  (142) 
13

>  <i_lp_mmshare_version>  (142) 
48012

>  <i_f3d_flags>  (142) 
0

>  <s_epik_input>  (142) 
W0NIXTE9W0NIXUMoPU8pQyhbQ0gzXSkoW0NIM10pW0NAQEhdKFtDSDJdW0NIMl0yKVtDQEBdMShbQ0gzXSlbQ0BASF0oW0NIMl1bQ0gyXTMpW0NAQF0yKFtDSDNdKVtDQEhdKFtDQEBdMzQ1KVtDSDJdW0NIMl1bQ0BIXShbQ0gyXTQpQzU9Tw==

>  <s_epik_cmdline>  (142) 
J2VwaWtfcHl0aG9uJywgJy1waHQnLCAnMi4wJywgJy1waCcsICc3LjAnLCAnLXRuJywgJzgnLCAnLW1hJywgJzIwMCcsICctaW1hZScsICc8aW5maWxlLm1hZT4nLCAnLW9tYWUnLCAnPG91dGZpbGUubWFlPic=

>  <r_lp_tautomer_probability>  (142) 
1

>  <r_epik_Ionization_Penalty>  (142) 
2.42067e-14

>  <r_epik_Ionization_Penalty_Charging>  (142) 
0

>  <r_epik_Ionization_Penalty_Neutral>  (142) 
2.42067e-14

>  <r_epik_State_Penalty>  (142) 
-0

>  <r_epik_Charging_Adjusted_Penalty>  (142) 
0

>  <i_epik_Tot_Q>  (142) 
0

>  <i_epik_Tot_abs_Q>  (142) 
0

>  <s_lp_Force_Field>  (142) 
OPLS3e

>  <r_lp_Energy>  (142) 
64.9678

>  <b_lp_Chiralities_Consistent>  (142) 
1

>  <s_lp_Variant>  (142) 
38:0-1

>  <s_i_glide_gridfile>  (142) 
pfpi4k_grid

>  <i_i_glide_lignum>  (142) 
13

>  <i_i_glide_rotatable_bonds>  (142) 
0

>  <r_i_docking_score>  (142) 
-2.68897

>  <r_i_glide_ligand_efficiency>  (142) 
-0.107559

>  <r_i_glide_ligand_efficiency_sa>  (142) 
-0.314504

>  <r_i_glide_ligand_efficiency_ln>  (142) 
-0.637368

>  <r_i_glide_gscore>  (142) 
-2.68897

>  <r_i_glide_lipo>  (142) 
-0.345893

>  <r_i_glide_hbond>  (142) 
0

>  <r_i_glide_metal>  (142) 
-0

>  <r_i_glide_rewards>  (142) 
-1.15334

>  <r_i_glide_evdw>  (142) 
-24.0896

>  <r_i_glide_ecoul>  (142) 
0.105774

>  <r_i_glide_erotb>  (142) 
0

>  <r_i_glide_esite>  (142) 
-0.00113355

>  <r_i_glide_emodel>  (142) 
-27.9109

>  <r_i_glide_energy>  (142) 
-23.9838

>  <r_i_glide_einternal>  (142) 
0

>  <r_i_glide_intrahb_reward>  (142) 
-0

>  <i_i_glide_confnum>  (142) 
2

>  <i_i_glide_posenum>  (142) 
6

>  <r_i_glide_eff_state_penalty>  (142) 
0

>  <ligand_id>  (142) 
38

>  <original_smiles>  (142) 
CC1(C)C(=O)C=CC2(C)C1CCC1(C)C3CCC4CC3(CCC21)C4=O

>  <smiles>  (142) 
[H]C1=C([H])C2(C([H])([H])[H])C([H])(C([H])([H])C([H])([H])C3(C([H])([H])[H])C4([H])C([H])([H])C([H])([H])C5([H])C(=O)C4(C([H])([H])C([H])([H])C23[H])C5([H])[H])C(C([H])([H])[H])(C([H])([H])[H])C1=O

$$$$
39:0:0
     RDKit          3D

 72 76  0  0  1  0  0  0  0  0999 V2000
    2.6724   -3.1065   -1.6279 C   0  0  0  0  0  0  0  0  0  0  0  0
    3.7132   -2.2947   -1.9352 C   0  0  0  0  0  0  0  0  0  0  0  0
    4.3185   -1.2365   -0.9899 C   0  0  0  0  0  0  0  0  0  0  0  0
    3.5962   -1.1763    0.3842 C   0  0  0  0  0  0  0  0  0  0  0  0
    4.3240   -0.5843    1.6307 C   0  0  2  0  0  0  0  0  0  0  0  0
    5.7030   -1.2712    1.7975 C   0  0  0  0  0  0  0  0  0  0  0  0
    3.4357   -0.7453    2.9363 C   0  0  2  0  0  0  0  0  0  0  0  0
    2.5254   -2.0176    3.0283 C   0  0  0  0  0  0  0  0  0  0  0  0
    1.2437   -1.5647    3.7602 C   0  0  1  0  0  0  0  0  0  0  0  0
    0.7419   -2.6139    4.5595 O   0  0  0  0  0  0  0  0  0  0  0  0
    1.5789   -0.2488    4.4875 C   0  0  2  0  0  0  0  0  0  0  0  0
    2.3113   -0.5811    5.8181 C   0  0  0  0  0  0  0  0  0  0  0  0
    0.3294    0.6586    4.8471 C   0  0  2  0  0  0  0  0  0  0  0  0
   -0.8724   -0.1356    5.4116 C   0  0  0  0  0  0  0  0  0  0  0  0
   -1.9856    0.7384    5.8550 C   0  0  1  0  0  0  0  0  0  0  0  0
   -1.6232    1.7981    6.6949 O   0  0  0  0  0  0  0  0  0  0  0  0
   -2.1130    2.1964    5.4087 C   0  0  2  0  0  0  0  0  0  0  0  0
   -1.3202    3.4322    5.0843 C   0  0  0  0  0  0  0  0  0  0  0  0
   -1.4613    2.3762    4.0622 C   0  0  2  0  0  0  0  0  0  0  0  0
   -2.3824    2.6785    2.8564 C   0  0  0  0  0  0  0  0  0  0  0  0
   -3.6052    3.1747    3.3179 O   0  0  0  0  0  0  0  0  0  0  0  0
   -4.4998    3.5310    2.2883 C   0  0  0  0  0  0  0  0  0  0  0  0
   -0.1958    1.6225    3.7490 C   0  0  0  0  0  0  0  0  0  0  0  0
    0.4746    1.7412    2.6001 C   0  0  0  0  0  0  0  0  0  0  0  0
    1.7182    0.9752    2.2422 C   0  0  0  0  0  0  0  0  0  0  0  0
    2.5209    0.4235    3.4379 C   0  0  2  0  0  0  0  0  0  0  0  0
    3.3392    1.5898    4.0661 C   0  0  0  0  0  0  0  0  0  0  0  0
    4.4527   -2.3916   -3.2603 C   0  0  0  0  0  0  0  0  0  0  0  0
    4.0692   -1.2247   -4.1804 C   0  0  0  0  0  0  0  0  0  0  0  0
    4.2904   -3.7581   -3.9576 C   0  0  0  0  0  0  0  0  0  0  0  0
    2.1628   -3.0384   -0.6738 H   0  0  0  0  0  0  0  0  0  0  0  0
    2.3070   -3.8675   -2.3243 H   0  0  0  0  0  0  0  0  0  0  0  0
    5.3637   -1.5117   -0.8413 H   0  0  0  0  0  0  0  0  0  0  0  0
    4.3230   -0.2465   -1.4772 H   0  0  0  0  0  0  0  0  0  0  0  0
    2.6674   -0.6299    0.1877 H   0  0  0  0  0  0  0  0  0  0  0  0
    3.3840   -2.2002    0.6755 H   0  0  0  0  0  0  0  0  0  0  0  0
    4.5353    0.4766    1.4763 H   0  0  0  0  0  0  0  0  0  0  0  0
    5.5933   -2.3155    2.1039 H   0  0  0  0  0  0  0  0  0  0  0  0
    6.2877   -0.7880    2.5899 H   0  0  0  0  0  0  0  0  0  0  0  0
    6.2628   -1.2673    0.8612 H   0  0  0  0  0  0  0  0  0  0  0  0
    4.1762   -0.8516    3.7336 H   0  0  0  0  0  0  0  0  0  0  0  0
    2.1908   -2.4188    2.0793 H   0  0  0  0  0  0  0  0  0  0  0  0
    3.0386   -2.8138    3.6009 H   0  0  0  0  0  0  0  0  0  0  0  0
    0.4933   -1.3599    3.0057 H   0  0  0  0  0  0  0  0  0  0  0  0
    0.6184   -3.3541    3.9833 H   0  0  0  0  0  0  0  0  0  0  0  0
    2.6452    0.3135    6.3512 H   0  0  0  0  0  0  0  0  0  0  0  0
    3.1859   -1.2110    5.6712 H   0  0  0  0  0  0  0  0  0  0  0  0
    1.6671   -1.1261    6.5098 H   0  0  0  0  0  0  0  0  0  0  0  0
    0.6551    1.3318    5.6333 H   0  0  0  0  0  0  0  0  0  0  0  0
   -1.2543   -0.8357    4.6565 H   0  0  0  0  0  0  0  0  0  0  0  0
   -0.5647   -0.7273    6.2632 H   0  0  0  0  0  0  0  0  0  0  0  0
   -2.8739    0.2193    6.1770 H   0  0  0  0  0  0  0  0  0  0  0  0
   -1.8512    4.3782    4.9402 H   0  0  0  0  0  0  0  0  0  0  0  0
   -0.3880    3.4601    5.5871 H   0  0  0  0  0  0  0  0  0  0  0  0
   -1.8559    3.4007    2.2395 H   0  0  0  0  0  0  0  0  0  0  0  0
   -2.4896    1.7680    2.3043 H   0  0  0  0  0  0  0  0  0  0  0  0
   -5.4430    3.8762    2.7299 H   0  0  0  0  0  0  0  0  0  0  0  0
   -4.7345    2.6859    1.6326 H   0  0  0  0  0  0  0  0  0  0  0  0
   -4.1064    4.3575    1.6907 H   0  0  0  0  0  0  0  0  0  0  0  0
    0.1032    2.3956    1.8167 H   0  0  0  0  0  0  0  0  0  0  0  0
    1.3406    0.1779    1.6237 H   0  0  0  0  0  0  0  0  0  0  0  0
    2.3404    1.6027    1.6225 H   0  0  0  0  0  0  0  0  0  0  0  0
    2.6859    2.2514    4.6402 H   0  0  0  0  0  0  0  0  0  0  0  0
    3.8175    2.1917    3.3125 H   0  0  0  0  0  0  0  0  0  0  0  0
    4.1223    1.2418    4.7514 H   0  0  0  0  0  0  0  0  0  0  0  0
    5.5126   -2.3027   -3.0213 H   0  0  0  0  0  0  0  0  0  0  0  0
    4.2866   -0.2577   -3.7223 H   0  0  0  0  0  0  0  0  0  0  0  0
    3.0000   -1.2495   -4.3955 H   0  0  0  0  0  0  0  0  0  0  0  0
    4.6145   -1.2586   -5.1225 H   0  0  0  0  0  0  0  0  0  0  0  0
    4.6114   -4.5636   -3.2945 H   0  0  0  0  0  0  0  0  0  0  0  0
    4.8913   -3.8492   -4.8633 H   0  0  0  0  0  0  0  0  0  0  0  0
    3.2523   -3.9320   -4.2409 H   0  0  0  0  0  0  0  0  0  0  0  0
  1  2  2  0
  1 31  1  0
  1 32  1  0
  2  3  1  0
  2 28  1  0
  3  4  1  0
  3 33  1  0
  3 34  1  0
  4  5  1  0
  4 35  1  0
  4 36  1  0
  5  6  1  0
  5  7  1  0
  5 37  1  6
  6 38  1  0
  6 39  1  0
  6 40  1  0
  7 26  1  0
  7  8  1  0
  7 41  1  1
  8  9  1  0
  8 42  1  0
  8 43  1  0
  9 10  1  0
  9 11  1  0
  9 44  1  6
 10 45  1  0
 11 26  1  0
 11 12  1  1
 11 13  1  0
 12 46  1  0
 12 47  1  0
 12 48  1  0
 13 23  1  0
 13 14  1  0
 13 49  1  1
 14 15  1  0
 14 50  1  0
 14 51  1  0
 15 17  1  0
 15 16  1  0
 15 52  1  1
 17 16  1  1
 17 19  1  0
 17 18  1  0
 18 19  1  0
 18 53  1  0
 18 54  1  0
 19 20  1  6
 19 23  1  0
 20 21  1  0
 20 55  1  0
 20 56  1  0
 21 22  1  0
 22 57  1  0
 22 58  1  0
 22 59  1  0
 23 24  2  0
 24 25  1  0
 24 60  1  0
 25 26  1  0
 25 61  1  0
 25 62  1  0
 26 27  1  1
 27 63  1  0
 27 64  1  0
 27 65  1  0
 28 29  1  0
 28 30  1  0
 28 66  1  0
 29 67  1  0
 29 68  1  0
 29 69  1  0
 30 70  1  0
 30 71  1  0
 30 72  1  0
M  END
>  <i_m_ct_stereo_status>  (143) 
1

>  <s_m_source_file>  (143) 
/var/tmp/pbs.5076255.sched01/tmpar858yha/42b8svm9_t.sdf

>  <i_m_source_file_index>  (143) 
14

>  <i_lp_mmshare_version>  (143) 
48012

>  <i_f3d_flags>  (143) 
0

>  <s_epik_input>  (143) 
W0NIM11bQ0hdKFtDSDNdKUMoPVtDSDJdKVtDSDJdW0NIMl1bQ0BIXShbQ0gzXSlbQ0BIXShbQ0gyXVtDQEhdMVtPSF0pW0NAXShbQ0gzXSkoW0NAQF0xKFtDSDNdKVtDQEBIXTJbQ0gyXVtDQEBIXShPMylDMzQ1KVtDSDJdW0NIXT1DMltDQEBdNShbQ0gyXTQpW0NIMl1PW0NIM10=

>  <s_epik_cmdline>  (143) 
J2VwaWtfcHl0aG9uJywgJy1waHQnLCAnMi4wJywgJy1waCcsICc3LjAnLCAnLXRuJywgJzgnLCAnLW1hJywgJzIwMCcsICctaW1hZScsICc8aW5maWxlLm1hZT4nLCAnLW9tYWUnLCAnPG91dGZpbGUubWFlPic=

>  <r_lp_tautomer_probability>  (143) 
1

>  <r_epik_Ionization_Penalty>  (143) 
1.46261e-06

>  <r_epik_Ionization_Penalty_Charging>  (143) 
0

>  <r_epik_Ionization_Penalty_Neutral>  (143) 
1.46261e-06

>  <r_epik_State_Penalty>  (143) 
-0

>  <r_epik_Charging_Adjusted_Penalty>  (143) 
0

>  <i_epik_Tot_Q>  (143) 
0

>  <i_epik_Tot_abs_Q>  (143) 
0

>  <s_lp_Force_Field>  (143) 
OPLS3e

>  <r_lp_Energy>  (143) 
60.9943

>  <b_lp_Chiralities_Consistent>  (143) 
1

>  <s_lp_Variant>  (143) 
39:0-1

>  <s_i_glide_gridfile>  (143) 
pfpi4k_grid

>  <i_i_glide_lignum>  (143) 
14

>  <i_i_glide_rotatable_bonds>  (143) 
8

>  <r_i_docking_score>  (143) 
-2.5571

>  <r_i_glide_ligand_efficiency>  (143) 
-0.0852365

>  <r_i_glide_ligand_efficiency_sa>  (143) 
-0.26485

>  <r_i_glide_ligand_efficiency_ln>  (143) 
-0.581

>  <r_i_glide_gscore>  (143) 
-2.5571

>  <r_i_glide_lipo>  (143) 
-0.684003

>  <r_i_glide_hbond>  (143) 
0

>  <r_i_glide_metal>  (143) 
-0

>  <r_i_glide_rewards>  (143) 
-0.582132

>  <r_i_glide_evdw>  (143) 
-30.1799

>  <r_i_glide_ecoul>  (143) 
-3.13934

>  <r_i_glide_erotb>  (143) 
0.688937

>  <r_i_glide_esite>  (143) 
0

>  <r_i_glide_emodel>  (143) 
-32.3158

>  <r_i_glide_energy>  (143) 
-33.3192

>  <r_i_glide_einternal>  (143) 
8.88677

>  <r_i_glide_intrahb_reward>  (143) 
-0

>  <i_i_glide_confnum>  (143) 
6

>  <i_i_glide_posenum>  (143) 
1

>  <r_i_glide_eff_state_penalty>  (143) 
0

>  <ligand_id>  (143) 
39

>  <original_smiles>  (143) 
C=C(CCC(C)C1CC(O)C2(C)C3CC4OC45CC5(COC)C3=CCC12C)C(C)C

>  <smiles>  (143) 
[H]OC1([H])C([H])([H])C([H])(C([H])(C([H])([H])[H])C([H])([H])C([H])([H])C(=C([H])[H])C([H])(C([H])([H])[H])C([H])([H])[H])C2(C([H])([H])[H])C([H])([H])C([H])=C3C([H])(C([H])([H])C4([H])OC45C([H])([H])C35C([H])([H])OC([H])([H])[H])C12C([H])([H])[H]

$$$$
39:0:1
     RDKit          3D

 72 76  0  0  1  0  0  0  0  0999 V2000
    5.5519   -2.8276   -2.7173 C   0  0  0  0  0  0  0  0  0  0  0  0
    4.5398   -2.1523   -2.1611 C   0  0  0  0  0  0  0  0  0  0  0  0
    4.8363   -1.0800   -1.0975 C   0  0  0  0  0  0  0  0  0  0  0  0
    4.0509   -1.3502    0.2109 C   0  0  0  0  0  0  0  0  0  0  0  0
    4.6340   -0.8692    1.5668 C   0  0  2  0  0  0  0  0  0  0  0  0
    6.0223   -1.5408    1.7671 C   0  0  0  0  0  0  0  0  0  0  0  0
    3.6516   -1.1873    2.7742 C   0  0  2  0  0  0  0  0  0  0  0  0
    2.6813   -2.3991    2.5855 C   0  0  0  0  0  0  0  0  0  0  0  0
    1.3567   -2.0175    3.2782 C   0  0  1  0  0  0  0  0  0  0  0  0
    0.7346   -3.1452    3.8775 O   0  0  0  0  0  0  0  0  0  0  0  0
    1.6786   -0.8329    4.2304 C   0  0  2  0  0  0  0  0  0  0  0  0
    2.2954   -1.4139    5.5440 C   0  0  0  0  0  0  0  0  0  0  0  0
    0.4336    0.0608    4.6334 C   0  0  2  0  0  0  0  0  0  0  0  0
   -0.8245   -0.7536    4.9809 C   0  0  0  0  0  0  0  0  0  0  0  0
   -1.9434    0.1076    5.4749 C   0  0  1  0  0  0  0  0  0  0  0  0
   -1.6270    0.9794    6.5273 O   0  0  0  0  0  0  0  0  0  0  0  0
   -2.0098    1.6240    5.2599 C   0  0  2  0  0  0  0  0  0  0  0  0
   -1.1048    2.8503    5.1934 C   0  0  0  0  0  0  0  0  0  0  0  0
   -1.1802    1.9893    4.0066 C   0  0  2  0  0  0  0  0  0  0  0  0
   -2.0367    2.4873    2.8286 C   0  0  0  0  0  0  0  0  0  0  0  0
   -3.3079    2.9650    3.2770 O   0  0  0  0  0  0  0  0  0  0  0  0
   -4.1541    3.3741    2.2190 C   0  0  0  0  0  0  0  0  0  0  0  0
    0.0500    1.1971    3.6665 C   0  0  0  0  0  0  0  0  0  0  0  0
    0.8035    1.4679    2.5970 C   0  0  0  0  0  0  0  0  0  0  0  0
    2.0473    0.7146    2.2118 C   0  0  0  0  0  0  0  0  0  0  0  0
    2.7433   -0.0516    3.3717 C   0  0  2  0  0  0  0  0  0  0  0  0
    3.5387    0.9561    4.2448 C   0  0  0  0  0  0  0  0  0  0  0  0
    3.0549   -2.3919   -2.5446 C   0  0  0  0  0  0  0  0  0  0  0  0
    2.2331   -3.2104   -1.5140 C   0  0  0  0  0  0  0  0  0  0  0  0
    2.9087   -3.0461   -3.9379 C   0  0  0  0  0  0  0  0  0  0  0  0
    6.5769   -2.6497   -2.4157 H   0  0  0  0  0  0  0  0  0  0  0  0
    5.4214   -3.5869   -3.4823 H   0  0  0  0  0  0  0  0  0  0  0  0
    5.9163   -1.0929   -0.9124 H   0  0  0  0  0  0  0  0  0  0  0  0
    4.5857   -0.0899   -1.5162 H   0  0  0  0  0  0  0  0  0  0  0  0
    3.0670   -0.9014    0.0687 H   0  0  0  0  0  0  0  0  0  0  0  0
    3.8769   -2.4235    0.3064 H   0  0  0  0  0  0  0  0  0  0  0  0
    4.8077    0.2167    1.5311 H   0  0  0  0  0  0  0  0  0  0  0  0
    5.9121   -2.6109    1.9729 H   0  0  0  0  0  0  0  0  0  0  0  0
    6.5572   -1.0828    2.6033 H   0  0  0  0  0  0  0  0  0  0  0  0
    6.6613   -1.4491    0.8871 H   0  0  0  0  0  0  0  0  0  0  0  0
    4.3158   -1.4664    3.5941 H   0  0  0  0  0  0  0  0  0  0  0  0
    2.4326   -2.6074    1.5540 H   0  0  0  0  0  0  0  0  0  0  0  0
    3.1180   -3.3069    3.0174 H   0  0  0  0  0  0  0  0  0  0  0  0
    0.6753   -1.6491    2.5160 H   0  0  0  0  0  0  0  0  0  0  0  0
    1.3598   -3.5444    4.4605 H   0  0  0  0  0  0  0  0  0  0  0  0
    2.6169   -0.6296    6.2306 H   0  0  0  0  0  0  0  0  0  0  0  0
    3.1565   -2.0577    5.3668 H   0  0  0  0  0  0  0  0  0  0  0  0
    1.5745   -2.0208    6.0932 H   0  0  0  0  0  0  0  0  0  0  0  0
    0.7336    0.5847    5.5425 H   0  0  0  0  0  0  0  0  0  0  0  0
   -1.1769   -1.3035    4.1094 H   0  0  0  0  0  0  0  0  0  0  0  0
   -0.6206   -1.4856    5.7509 H   0  0  0  0  0  0  0  0  0  0  0  0
   -2.9097   -0.3805    5.5656 H   0  0  0  0  0  0  0  0  0  0  0  0
   -1.6041    3.8278    5.1792 H   0  0  0  0  0  0  0  0  0  0  0  0
   -0.1910    2.7900    5.7565 H   0  0  0  0  0  0  0  0  0  0  0  0
   -1.4783    3.2835    2.3417 H   0  0  0  0  0  0  0  0  0  0  0  0
   -2.1572    1.6605    2.1251 H   0  0  0  0  0  0  0  0  0  0  0  0
   -5.1034    3.7084    2.6297 H   0  0  0  0  0  0  0  0  0  0  0  0
   -4.3504    2.5653    1.5149 H   0  0  0  0  0  0  0  0  0  0  0  0
   -3.7423    4.2224    1.6799 H   0  0  0  0  0  0  0  0  0  0  0  0
    0.5237    2.2492    1.9089 H   0  0  0  0  0  0  0  0  0  0  0  0
    1.7254    0.0343    1.4293 H   0  0  0  0  0  0  0  0  0  0  0  0
    2.7519    1.3971    1.7405 H   0  0  0  0  0  0  0  0  0  0  0  0
    2.8618    1.5459    4.8622 H   0  0  0  0  0  0  0  0  0  0  0  0
    4.1117    1.6638    3.6507 H   0  0  0  0  0  0  0  0  0  0  0  0
    4.2450    0.4645    4.9168 H   0  0  0  0  0  0  0  0  0  0  0  0
    2.6075   -1.4025   -2.6176 H   0  0  0  0  0  0  0  0  0  0  0  0
    2.1773   -2.7104   -0.5591 H   0  0  0  0  0  0  0  0  0  0  0  0
    2.6881   -4.1823   -1.3310 H   0  0  0  0  0  0  0  0  0  0  0  0
    1.2209   -3.3970   -1.9061 H   0  0  0  0  0  0  0  0  0  0  0  0
    3.4106   -2.4538   -4.7060 H   0  0  0  0  0  0  0  0  0  0  0  0
    1.8575   -3.1315   -4.2187 H   0  0  0  0  0  0  0  0  0  0  0  0
    3.3224   -4.0561   -3.9502 H   0  0  0  0  0  0  0  0  0  0  0  0
  1  2  2  0
  1 31  1  0
  1 32  1  0
  2  3  1  0
  2 28  1  0
  3  4  1  0
  3 33  1  0
  3 34  1  0
  4  5  1  0
  4 35  1  0
  4 36  1  0
  5  6  1  0
  5  7  1  0
  5 37  1  6
  6 38  1  0
  6 39  1  0
  6 40  1  0
  7 26  1  0
  7  8  1  0
  7 41  1  1
  8  9  1  0
  8 42  1  0
  8 43  1  0
  9 10  1  0
  9 11  1  0
  9 44  1  6
 10 45  1  0
 11 26  1  0
 11 12  1  1
 11 13  1  0
 12 46  1  0
 12 47  1  0
 12 48  1  0
 13 23  1  0
 13 14  1  0
 13 49  1  1
 14 15  1  0
 14 50  1  0
 14 51  1  0
 15 17  1  0
 15 16  1  0
 15 52  1  1
 17 16  1  1
 17 19  1  0
 17 18  1  0
 18 19  1  0
 18 53  1  0
 18 54  1  0
 19 20  1  6
 19 23  1  0
 20 21  1  0
 20 55  1  0
 20 56  1  0
 21 22  1  0
 22 57  1  0
 22 58  1  0
 22 59  1  0
 23 24  2  0
 24 25  1  0
 24 60  1  0
 25 26  1  0
 25 61  1  0
 25 62  1  0
 26 27  1  1
 27 63  1  0
 27 64  1  0
 27 65  1  0
 28 29  1  0
 28 30  1  0
 28 66  1  0
 29 67  1  0
 29 68  1  0
 29 69  1  0
 30 70  1  0
 30 71  1  0
 30 72  1  0
M  END
>  <i_m_ct_stereo_status>  (144) 
1

>  <s_m_source_file>  (144) 
/var/tmp/pbs.5076255.sched01/tmpar858yha/42b8svm9_t.sdf

>  <i_m_source_file_index>  (144) 
14

>  <i_lp_mmshare_version>  (144) 
48012

>  <i_f3d_flags>  (144) 
0

>  <s_epik_input>  (144) 
W0NIM11bQ0hdKFtDSDNdKUMoPVtDSDJdKVtDSDJdW0NIMl1bQ0BIXShbQ0gzXSlbQ0BIXShbQ0gyXVtDQEhdMVtPSF0pW0NAXShbQ0gzXSkoW0NAQF0xKFtDSDNdKVtDQEBIXTJbQ0gyXVtDQEBIXShPMylDMzQ1KVtDSDJdW0NIXT1DMltDQEBdNShbQ0gyXTQpW0NIMl1PW0NIM10=

>  <s_epik_cmdline>  (144) 
J2VwaWtfcHl0aG9uJywgJy1waHQnLCAnMi4wJywgJy1waCcsICc3LjAnLCAnLXRuJywgJzgnLCAnLW1hJywgJzIwMCcsICctaW1hZScsICc8aW5maWxlLm1hZT4nLCAnLW9tYWUnLCAnPG91dGZpbGUubWFlPic=

>  <r_lp_tautomer_probability>  (144) 
1

>  <r_epik_Ionization_Penalty>  (144) 
1.46261e-06

>  <r_epik_Ionization_Penalty_Charging>  (144) 
0

>  <r_epik_Ionization_Penalty_Neutral>  (144) 
1.46261e-06

>  <r_epik_State_Penalty>  (144) 
-0

>  <r_epik_Charging_Adjusted_Penalty>  (144) 
0

>  <i_epik_Tot_Q>  (144) 
0

>  <i_epik_Tot_abs_Q>  (144) 
0

>  <s_lp_Force_Field>  (144) 
OPLS3e

>  <r_lp_Energy>  (144) 
60.9943

>  <b_lp_Chiralities_Consistent>  (144) 
1

>  <s_lp_Variant>  (144) 
39:0-1

>  <s_i_glide_gridfile>  (144) 
pfpi4k_grid

>  <i_i_glide_lignum>  (144) 
14

>  <i_i_glide_rotatable_bonds>  (144) 
8

>  <r_i_docking_score>  (144) 
-2.37388

>  <r_i_glide_ligand_efficiency>  (144) 
-0.0791294

>  <r_i_glide_ligand_efficiency_sa>  (144) 
-0.245874

>  <r_i_glide_ligand_efficiency_ln>  (144) 
-0.539372

>  <r_i_glide_gscore>  (144) 
-2.37388

>  <r_i_glide_lipo>  (144) 
-0.782849

>  <r_i_glide_hbond>  (144) 
-0.0659325

>  <r_i_glide_metal>  (144) 
-0

>  <r_i_glide_rewards>  (144) 
-0.582132

>  <r_i_glide_evdw>  (144) 
-31.9239

>  <r_i_glide_ecoul>  (144) 
-0.238093

>  <r_i_glide_erotb>  (144) 
0.688937

>  <r_i_glide_esite>  (144) 
0

>  <r_i_glide_emodel>  (144) 
-30.6282

>  <r_i_glide_energy>  (144) 
-32.1619

>  <r_i_glide_einternal>  (144) 
9.82144

>  <r_i_glide_intrahb_reward>  (144) 
-0

>  <i_i_glide_confnum>  (144) 
6

>  <i_i_glide_posenum>  (144) 
10

>  <r_i_glide_eff_state_penalty>  (144) 
0

>  <ligand_id>  (144) 
39

>  <original_smiles>  (144) 
C=C(CCC(C)C1CC(O)C2(C)C3CC4OC45CC5(COC)C3=CCC12C)C(C)C

>  <smiles>  (144) 
[H]OC1([H])C([H])([H])C([H])(C([H])(C([H])([H])[H])C([H])([H])C([H])([H])C(=C([H])[H])C([H])(C([H])([H])[H])C([H])([H])[H])C2(C([H])([H])[H])C([H])([H])C([H])=C3C([H])(C([H])([H])C4([H])OC45C([H])([H])C35C([H])([H])OC([H])([H])[H])C12C([H])([H])[H]

$$$$
39:0:2
     RDKit          3D

 72 76  0  0  1  0  0  0  0  0999 V2000
   -1.9414   -7.4456    3.7747 C   0  0  0  0  0  0  0  0  0  0  0  0
   -0.8131   -8.1603    3.9807 C   0  0  0  0  0  0  0  0  0  0  0  0
    0.1906   -7.7847    5.0757 C   0  0  0  0  0  0  0  0  0  0  0  0
    0.1531   -6.2836    5.4188 C   0  0  0  0  0  0  0  0  0  0  0  0
    1.3674   -5.7705    6.2380 C   0  0  2  0  0  0  0  0  0  0  0  0
    1.0709   -5.9975    7.7379 C   0  0  0  0  0  0  0  0  0  0  0  0
    1.7455   -4.2800    5.9157 C   0  0  2  0  0  0  0  0  0  0  0  0
    0.5357   -3.3313    5.7224 C   0  0  0  0  0  0  0  0  0  0  0  0
    0.9236   -2.3632    4.5949 C   0  0  1  0  0  0  0  0  0  0  0  0
    0.3716   -1.0895    4.8619 O   0  0  0  0  0  0  0  0  0  0  0  0
    2.4687   -2.4217    4.4668 C   0  0  2  0  0  0  0  0  0  0  0  0
    3.1014   -1.5358    5.5857 C   0  0  0  0  0  0  0  0  0  0  0  0
    3.0527   -1.9291    3.0874 C   0  0  2  0  0  0  0  0  0  0  0  0
    2.4056   -0.6293    2.5572 C   0  0  0  0  0  0  0  0  0  0  0  0
    3.0444   -0.1231    1.3143 C   0  0  1  0  0  0  0  0  0  0  0  0
    4.4484   -0.0061    1.3578 O   0  0  0  0  0  0  0  0  0  0  0  0
    3.9501   -0.9738    0.4073 C   0  0  2  0  0  0  0  0  0  0  0  0
    4.9880   -2.0755    0.4807 C   0  0  0  0  0  0  0  0  0  0  0  0
    3.5616   -2.4429    0.5848 C   0  0  2  0  0  0  0  0  0  0  0  0
    2.9029   -3.0868   -0.6504 C   0  0  0  0  0  0  0  0  0  0  0  0
    3.2716   -2.4018   -1.8291 O   0  0  0  0  0  0  0  0  0  0  0  0
    2.5376   -2.8116   -2.9695 C   0  0  0  0  0  0  0  0  0  0  0  0
    3.1239   -2.9533    1.9296 C   0  0  0  0  0  0  0  0  0  0  0  0
    2.7988   -4.2383    2.1553 C   0  0  0  0  0  0  0  0  0  0  0  0
    2.3054   -4.7762    3.4660 C   0  0  0  0  0  0  0  0  0  0  0  0
    2.7129   -3.9496    4.7177 C   0  0  2  0  0  0  0  0  0  0  0  0
    4.2015   -4.2467    5.0516 C   0  0  0  0  0  0  0  0  0  0  0  0
   -0.4713   -9.4069    3.1581 C   0  0  0  0  0  0  0  0  0  0  0  0
    0.9154   -9.3491    2.4781 C   0  0  0  0  0  0  0  0  0  0  0  0
   -1.5440   -9.7397    2.1078 C   0  0  0  0  0  0  0  0  0  0  0  0
   -2.1885   -6.5808    4.3725 H   0  0  0  0  0  0  0  0  0  0  0  0
   -2.6690   -7.6884    3.0147 H   0  0  0  0  0  0  0  0  0  0  0  0
    0.0171   -8.4177    5.9527 H   0  0  0  0  0  0  0  0  0  0  0  0
    1.2084   -7.9923    4.7489 H   0  0  0  0  0  0  0  0  0  0  0  0
    0.0942   -5.7759    4.4701 H   0  0  0  0  0  0  0  0  0  0  0  0
   -0.7687   -6.0575    5.9694 H   0  0  0  0  0  0  0  0  0  0  0  0
    2.2480   -6.3767    6.0138 H   0  0  0  0  0  0  0  0  0  0  0  0
    0.3156   -5.3032    8.1047 H   0  0  0  0  0  0  0  0  0  0  0  0
    1.9572   -5.8805    8.3603 H   0  0  0  0  0  0  0  0  0  0  0  0
    0.6846   -7.0020    7.9148 H   0  0  0  0  0  0  0  0  0  0  0  0
    2.2604   -3.9327    6.8124 H   0  0  0  0  0  0  0  0  0  0  0  0
   -0.3848   -3.8258    5.4237 H   0  0  0  0  0  0  0  0  0  0  0  0
    0.3052   -2.8204    6.6608 H   0  0  0  0  0  0  0  0  0  0  0  0
    0.4765   -2.7148    3.6616 H   0  0  0  0  0  0  0  0  0  0  0  0
    0.5967   -0.5181    4.1462 H   0  0  0  0  0  0  0  0  0  0  0  0
    4.1906   -1.5995    5.6008 H   0  0  0  0  0  0  0  0  0  0  0  0
    2.7556   -1.7894    6.5887 H   0  0  0  0  0  0  0  0  0  0  0  0
    2.8673   -0.4786    5.4525 H   0  0  0  0  0  0  0  0  0  0  0  0
    4.0986   -1.6929    3.2664 H   0  0  0  0  0  0  0  0  0  0  0  0
    1.3412   -0.7896    2.3446 H   0  0  0  0  0  0  0  0  0  0  0  0
    2.4616    0.1678    3.3022 H   0  0  0  0  0  0  0  0  0  0  0  0
    2.5328    0.7009    0.8461 H   0  0  0  0  0  0  0  0  0  0  0  0
    5.5258   -2.3218   -0.4400 H   0  0  0  0  0  0  0  0  0  0  0  0
    5.5532   -2.1430    1.3897 H   0  0  0  0  0  0  0  0  0  0  0  0
    3.2128   -4.1293   -0.7086 H   0  0  0  0  0  0  0  0  0  0  0  0
    1.8235   -3.0570   -0.4958 H   0  0  0  0  0  0  0  0  0  0  0  0
    2.8503   -2.2217   -3.8335 H   0  0  0  0  0  0  0  0  0  0  0  0
    1.4643   -2.6583   -2.8376 H   0  0  0  0  0  0  0  0  0  0  0  0
    2.7174   -3.8559   -3.2013 H   0  0  0  0  0  0  0  0  0  0  0  0
    2.8165   -4.9467    1.3374 H   0  0  0  0  0  0  0  0  0  0  0  0
    1.2448   -4.7704    3.3153 H   0  0  0  0  0  0  0  0  0  0  0  0
    2.6189   -5.8097    3.5704 H   0  0  0  0  0  0  0  0  0  0  0  0
    4.8598   -3.7539    4.3383 H   0  0  0  0  0  0  0  0  0  0  0  0
    4.4252   -5.3126    5.0038 H   0  0  0  0  0  0  0  0  0  0  0  0
    4.4937   -3.9032    6.0461 H   0  0  0  0  0  0  0  0  0  0  0  0
   -0.4585  -10.2408    3.8554 H   0  0  0  0  0  0  0  0  0  0  0  0
    1.7333   -9.2807    3.1964 H   0  0  0  0  0  0  0  0  0  0  0  0
    0.9938   -8.5068    1.7891 H   0  0  0  0  0  0  0  0  0  0  0  0
    1.1088  -10.2633    1.9104 H   0  0  0  0  0  0  0  0  0  0  0  0
   -2.5341   -9.8679    2.5447 H   0  0  0  0  0  0  0  0  0  0  0  0
   -1.3053  -10.6746    1.5942 H   0  0  0  0  0  0  0  0  0  0  0  0
   -1.6114   -8.9605    1.3398 H   0  0  0  0  0  0  0  0  0  0  0  0
  1  2  2  0
  1 31  1  0
  1 32  1  0
  2  3  1  0
  2 28  1  0
  3  4  1  0
  3 33  1  0
  3 34  1  0
  4  5  1  0
  4 35  1  0
  4 36  1  0
  5  6  1  0
  5  7  1  0
  5 37  1  6
  6 38  1  0
  6 39  1  0
  6 40  1  0
  7 26  1  0
  7  8  1  0
  7 41  1  1
  8  9  1  0
  8 42  1  0
  8 43  1  0
  9 10  1  0
  9 11  1  0
  9 44  1  6
 10 45  1  0
 11 26  1  0
 11 12  1  1
 11 13  1  0
 12 46  1  0
 12 47  1  0
 12 48  1  0
 13 23  1  0
 13 14  1  0
 13 49  1  1
 14 15  1  0
 14 50  1  0
 14 51  1  0
 15 17  1  0
 15 16  1  0
 15 52  1  6
 17 16  1  1
 17 19  1  0
 17 18  1  0
 18 19  1  0
 18 53  1  0
 18 54  1  0
 19 20  1  6
 19 23  1  0
 20 21  1  0
 20 55  1  0
 20 56  1  0
 21 22  1  0
 22 57  1  0
 22 58  1  0
 22 59  1  0
 23 24  2  0
 24 25  1  0
 24 60  1  0
 25 26  1  0
 25 61  1  0
 25 62  1  0
 26 27  1  1
 27 63  1  0
 27 64  1  0
 27 65  1  0
 28 29  1  0
 28 30  1  0
 28 66  1  0
 29 67  1  0
 29 68  1  0
 29 69  1  0
 30 70  1  0
 30 71  1  0
 30 72  1  0
M  END
>  <i_m_ct_stereo_status>  (145) 
1

>  <s_m_source_file>  (145) 
/var/tmp/pbs.5076255.sched01/tmpar858yha/42b8svm9_t.sdf

>  <i_m_source_file_index>  (145) 
14

>  <i_lp_mmshare_version>  (145) 
48012

>  <i_f3d_flags>  (145) 
0

>  <s_epik_input>  (145) 
W0NIM11bQ0hdKFtDSDNdKUMoPVtDSDJdKVtDSDJdW0NIMl1bQ0BIXShbQ0gzXSlbQ0BIXShbQ0gyXVtDQEhdMVtPSF0pW0NAXShbQ0gzXSkoW0NAQF0xKFtDSDNdKVtDQEBIXTJbQ0gyXVtDQEBIXShPMylDMzQ1KVtDSDJdW0NIXT1DMltDQEBdNShbQ0gyXTQpW0NIMl1PW0NIM10=

>  <s_epik_cmdline>  (145) 
J2VwaWtfcHl0aG9uJywgJy1waHQnLCAnMi4wJywgJy1waCcsICc3LjAnLCAnLXRuJywgJzgnLCAnLW1hJywgJzIwMCcsICctaW1hZScsICc8aW5maWxlLm1hZT4nLCAnLW9tYWUnLCAnPG91dGZpbGUubWFlPic=

>  <r_lp_tautomer_probability>  (145) 
1

>  <r_epik_Ionization_Penalty>  (145) 
1.46261e-06

>  <r_epik_Ionization_Penalty_Charging>  (145) 
0

>  <r_epik_Ionization_Penalty_Neutral>  (145) 
1.46261e-06

>  <r_epik_State_Penalty>  (145) 
-0

>  <r_epik_Charging_Adjusted_Penalty>  (145) 
0

>  <i_epik_Tot_Q>  (145) 
0

>  <i_epik_Tot_abs_Q>  (145) 
0

>  <s_lp_Force_Field>  (145) 
OPLS3e

>  <r_lp_Energy>  (145) 
60.9943

>  <b_lp_Chiralities_Consistent>  (145) 
1

>  <s_lp_Variant>  (145) 
39:0-1

>  <s_i_glide_gridfile>  (145) 
pfpi4k_grid

>  <i_i_glide_lignum>  (145) 
14

>  <i_i_glide_rotatable_bonds>  (145) 
8

>  <r_i_docking_score>  (145) 
-1.65162

>  <r_i_glide_ligand_efficiency>  (145) 
-0.055054

>  <r_i_glide_ligand_efficiency_sa>  (145) 
-0.171066

>  <r_i_glide_ligand_efficiency_ln>  (145) 
-0.375266

>  <r_i_glide_gscore>  (145) 
-1.65162

>  <r_i_glide_lipo>  (145) 
-0.269426

>  <r_i_glide_hbond>  (145) 
-0.0181094

>  <r_i_glide_metal>  (145) 
-0

>  <r_i_glide_rewards>  (145) 
-0.582132

>  <r_i_glide_evdw>  (145) 
-24.4714

>  <r_i_glide_ecoul>  (145) 
-1.6488

>  <r_i_glide_erotb>  (145) 
0.688937

>  <r_i_glide_esite>  (145) 
0

>  <r_i_glide_emodel>  (145) 
-24.8988

>  <r_i_glide_energy>  (145) 
-26.1202

>  <r_i_glide_einternal>  (145) 
8.15005

>  <r_i_glide_intrahb_reward>  (145) 
-0

>  <i_i_glide_confnum>  (145) 
6

>  <i_i_glide_posenum>  (145) 
18

>  <r_i_glide_eff_state_penalty>  (145) 
0

>  <ligand_id>  (145) 
39

>  <original_smiles>  (145) 
C=C(CCC(C)C1CC(O)C2(C)C3CC4OC45CC5(COC)C3=CCC12C)C(C)C

>  <smiles>  (145) 
[H]OC1([H])C([H])([H])C([H])(C([H])(C([H])([H])[H])C([H])([H])C([H])([H])C(=C([H])[H])C([H])(C([H])([H])[H])C([H])([H])[H])C2(C([H])([H])[H])C([H])([H])C([H])=C3C([H])(C([H])([H])C4([H])OC45C([H])([H])C35C([H])([H])OC([H])([H])[H])C12C([H])([H])[H]

$$$$
40:0:0
     RDKit          3D

 26 30  0  0  1  0  0  0  0  0999 V2000
    3.1938   -2.1009   -2.3341 C   0  0  0  0  0  0  0  0  0  0  0  0
    3.8562   -3.0482   -3.0233 C   0  0  0  0  0  0  0  0  0  0  0  0
    5.1631   -3.5896   -2.4678 C   0  0  2  0  0  0  0  0  0  0  0  0
    4.9939   -4.2937   -1.0955 C   0  0  2  0  0  0  0  0  0  0  0  0
    3.7351   -4.0505   -0.2726 C   0  0  0  0  0  0  0  0  0  0  0  0
    3.8740   -2.5687    0.1538 C   0  0  2  0  0  0  0  0  0  0  0  0
    3.7899   -1.5467   -1.0435 C   0  0  1  0  0  0  0  0  0  0  0  0
    5.2762   -1.2064   -1.2850 C   0  0  1  0  0  0  0  0  0  0  0  0
    5.7704   -1.0504    0.1495 C   0  0  0  0  0  0  0  0  0  0  0  0
    5.3782   -2.4670    0.5499 C   0  0  2  0  0  0  0  0  0  0  0  0
    6.0295   -3.3413   -0.5127 C   0  0  2  0  0  0  0  0  0  0  0  0
    5.9791   -2.4865   -1.7693 C   0  0  1  0  0  0  0  0  0  0  0  0
    2.2491   -1.6980   -2.6801 H   0  0  0  0  0  0  0  0  0  0  0  0
    3.4695   -3.4649   -3.9412 H   0  0  0  0  0  0  0  0  0  0  0  0
    5.7490   -4.1637   -3.1847 H   0  0  0  0  0  0  0  0  0  0  0  0
    5.3236   -5.3326   -1.1188 H   0  0  0  0  0  0  0  0  0  0  0  0
    2.8111   -4.2736   -0.8066 H   0  0  0  0  0  0  0  0  0  0  0  0
    3.7453   -4.6878    0.6139 H   0  0  0  0  0  0  0  0  0  0  0  0
    3.1923   -2.2990    0.9636 H   0  0  0  0  0  0  0  0  0  0  0  0
    3.2330   -0.6596   -0.7408 H   0  0  0  0  0  0  0  0  0  0  0  0
    5.4159   -0.3384   -1.9290 H   0  0  0  0  0  0  0  0  0  0  0  0
    6.8450   -0.8814    0.2118 H   0  0  0  0  0  0  0  0  0  0  0  0
    5.2516   -0.2713    0.7093 H   0  0  0  0  0  0  0  0  0  0  0  0
    5.6046   -2.7550    1.5760 H   0  0  0  0  0  0  0  0  0  0  0  0
    7.0081   -3.7732   -0.2996 H   0  0  0  0  0  0  0  0  0  0  0  0
    6.9671   -2.3454   -2.2062 H   0  0  0  0  0  0  0  0  0  0  0  0
  1  7  1  0
  1  2  2  0
  1 13  1  0
  2  3  1  0
  2 14  1  0
  3 12  1  0
  3  4  1  0
  3 15  1  6
  4 11  1  0
  4  5  1  0
  4 16  1  6
  5  6  1  0
  5 17  1  0
  5 18  1  0
  6 10  1  0
  6  7  1  0
  6 19  1  1
  7  8  1  0
  7 20  1  1
  8 12  1  0
  8  9  1  0
  8 21  1  6
  9 10  1  0
  9 22  1  0
  9 23  1  0
 10 11  1  0
 10 24  1  1
 11 12  1  0
 11 25  1  1
 12 26  1  6
M  END
>  <i_m_ct_stereo_status>  (146) 
1

>  <s_m_source_file>  (146) 
/var/tmp/pbs.5076255.sched01/tmpar858yha/42b8svm9_t.sdf

>  <i_m_source_file_index>  (146) 
15

>  <i_lp_mmshare_version>  (146) 
48012

>  <i_f3d_flags>  (146) 
0

>  <s_epik_input>  (146) 
W0NIXTE9W0NIXVtDQEhdKFtDQEBIXShbQ0gyXTIpW0NASF0zNClbQ0BASF0oW0NIMl01KVtDQEhdMltDQEhdNFtDQEBIXTVbQ0BASF0xMw==

>  <s_epik_cmdline>  (146) 
J2VwaWtfcHl0aG9uJywgJy1waHQnLCAnMi4wJywgJy1waCcsICc3LjAnLCAnLXRuJywgJzgnLCAnLW1hJywgJzIwMCcsICctaW1hZScsICc8aW5maWxlLm1hZT4nLCAnLW9tYWUnLCAnPG91dGZpbGUubWFlPic=

>  <r_lp_tautomer_probability>  (146) 
1

>  <r_epik_Ionization_Penalty>  (146) 
0

>  <r_epik_Ionization_Penalty_Charging>  (146) 
0

>  <r_epik_Ionization_Penalty_Neutral>  (146) 
0

>  <r_epik_State_Penalty>  (146) 
-0

>  <r_epik_Charging_Adjusted_Penalty>  (146) 
0

>  <i_epik_Tot_Q>  (146) 
0

>  <i_epik_Tot_abs_Q>  (146) 
0

>  <s_lp_Force_Field>  (146) 
OPLS3e

>  <r_lp_Energy>  (146) 
57.7141

>  <b_lp_Chiralities_Consistent>  (146) 
1

>  <s_lp_Variant>  (146) 
40:0-1

>  <s_i_glide_gridfile>  (146) 
pfpi4k_grid

>  <i_i_glide_lignum>  (146) 
15

>  <i_i_glide_rotatable_bonds>  (146) 
0

>  <r_i_docking_score>  (146) 
-3.49844

>  <r_i_glide_ligand_efficiency>  (146) 
-0.291536

>  <r_i_glide_ligand_efficiency_sa>  (146) 
-0.667452

>  <r_i_glide_ligand_efficiency_ln>  (146) 
-1.00388

>  <r_i_glide_gscore>  (146) 
-3.49844

>  <r_i_glide_lipo>  (146) 
-0.318719

>  <r_i_glide_hbond>  (146) 
0

>  <r_i_glide_metal>  (146) 
-0

>  <r_i_glide_rewards>  (146) 
-2.25

>  <r_i_glide_evdw>  (146) 
-18.1078

>  <r_i_glide_ecoul>  (146) 
-0.162183

>  <r_i_glide_erotb>  (146) 
0

>  <r_i_glide_esite>  (146) 
0

>  <r_i_glide_emodel>  (146) 
-22.1528

>  <r_i_glide_energy>  (146) 
-18.27

>  <r_i_glide_einternal>  (146) 
0

>  <r_i_glide_intrahb_reward>  (146) 
-0

>  <i_i_glide_confnum>  (146) 
2

>  <i_i_glide_posenum>  (146) 
39

>  <r_i_glide_eff_state_penalty>  (146) 
0

>  <ligand_id>  (146) 
40

>  <original_smiles>  (146) 
C1=CC2C3CC4C1C1CC4C3C21

>  <smiles>  (146) 
[H]C1=C([H])C2([H])C3([H])C([H])([H])C4([H])C1([H])C1([H])C([H])([H])C4([H])C3([H])C21[H]

$$$$
40:0:1
     RDKit          3D

 26 30  0  0  1  0  0  0  0  0999 V2000
    3.2018   -2.5533   -2.4373 C   0  0  0  0  0  0  0  0  0  0  0  0
    2.6427   -3.3507   -1.5092 C   0  0  0  0  0  0  0  0  0  0  0  0
    3.4725   -3.8294   -0.3271 C   0  0  2  0  0  0  0  0  0  0  0  0
    3.9785   -2.6696    0.5704 C   0  0  2  0  0  0  0  0  0  0  0  0
    3.9795   -1.2444    0.0301 C   0  0  0  0  0  0  0  0  0  0  0  0
    5.0537   -1.2770   -1.0835 C   0  0  2  0  0  0  0  0  0  0  0  0
    4.6766   -2.1786   -2.3219 C   0  0  1  0  0  0  0  0  0  0  0  0
    5.4897   -3.4633   -2.0331 C   0  0  1  0  0  0  0  0  0  0  0  0
    6.8198   -2.8756   -1.5737 C   0  0  0  0  0  0  0  0  0  0  0  0
    6.1959   -2.1008   -0.4189 C   0  0  2  0  0  0  0  0  0  0  0  0
    5.4039   -3.1578    0.3436 C   0  0  2  0  0  0  0  0  0  0  0  0
    4.9293   -4.1041   -0.7485 C   0  0  1  0  0  0  0  0  0  0  0  0
    2.6351   -2.1908   -3.2841 H   0  0  0  0  0  0  0  0  0  0  0  0
    1.6054   -3.6486   -1.5726 H   0  0  0  0  0  0  0  0  0  0  0  0
    3.0310   -4.6578    0.2269 H   0  0  0  0  0  0  0  0  0  0  0  0
    3.6429   -2.7726    1.6033 H   0  0  0  0  0  0  0  0  0  0  0  0
    3.0096   -0.9078   -0.3227 H   0  0  0  0  0  0  0  0  0  0  0  0
    4.2835   -0.5473    0.8141 H   0  0  0  0  0  0  0  0  0  0  0  0
    5.3574   -0.2761   -1.3942 H   0  0  0  0  0  0  0  0  0  0  0  0
    5.0090   -1.7178   -3.2539 H   0  0  0  0  0  0  0  0  0  0  0  0
    5.5515   -4.1480   -2.8792 H   0  0  0  0  0  0  0  0  0  0  0  0
    7.5245   -3.6350   -1.2358 H   0  0  0  0  0  0  0  0  0  0  0  0
    7.3060   -2.2556   -2.3221 H   0  0  0  0  0  0  0  0  0  0  0  0
    6.8833   -1.5205    0.1986 H   0  0  0  0  0  0  0  0  0  0  0  0
    5.8855   -3.6503    1.1887 H   0  0  0  0  0  0  0  0  0  0  0  0
    5.2449   -5.1336   -0.5708 H   0  0  0  0  0  0  0  0  0  0  0  0
  1  7  1  0
  1  2  2  0
  1 13  1  0
  2  3  1  0
  2 14  1  0
  3 12  1  0
  3  4  1  0
  3 15  1  1
  4 11  1  0
  4  5  1  0
  4 16  1  1
  5  6  1  0
  5 17  1  0
  5 18  1  0
  6 10  1  0
  6  7  1  0
  6 19  1  6
  7  8  1  0
  7 20  1  6
  8 12  1  0
  8  9  1  0
  8 21  1  6
  9 10  1  0
  9 22  1  0
  9 23  1  0
 10 11  1  0
 10 24  1  1
 11 12  1  0
 11 25  1  1
 12 26  1  1
M  END
>  <i_m_ct_stereo_status>  (147) 
1

>  <s_m_source_file>  (147) 
/var/tmp/pbs.5076255.sched01/tmpar858yha/42b8svm9_t.sdf

>  <i_m_source_file_index>  (147) 
15

>  <i_lp_mmshare_version>  (147) 
48012

>  <i_f3d_flags>  (147) 
0

>  <s_epik_input>  (147) 
W0NIXTE9W0NIXVtDQEhdKFtDQEBIXShbQ0gyXTIpW0NASF0zNClbQ0BASF0oW0NIMl01KVtDQEhdMltDQEhdNFtDQEBIXTVbQ0BASF0xMw==

>  <s_epik_cmdline>  (147) 
J2VwaWtfcHl0aG9uJywgJy1waHQnLCAnMi4wJywgJy1waCcsICc3LjAnLCAnLXRuJywgJzgnLCAnLW1hJywgJzIwMCcsICctaW1hZScsICc8aW5maWxlLm1hZT4nLCAnLW9tYWUnLCAnPG91dGZpbGUubWFlPic=

>  <r_lp_tautomer_probability>  (147) 
1

>  <r_epik_Ionization_Penalty>  (147) 
0

>  <r_epik_Ionization_Penalty_Charging>  (147) 
0

>  <r_epik_Ionization_Penalty_Neutral>  (147) 
0

>  <r_epik_State_Penalty>  (147) 
-0

>  <r_epik_Charging_Adjusted_Penalty>  (147) 
0

>  <i_epik_Tot_Q>  (147) 
0

>  <i_epik_Tot_abs_Q>  (147) 
0

>  <s_lp_Force_Field>  (147) 
OPLS3e

>  <r_lp_Energy>  (147) 
57.7141

>  <b_lp_Chiralities_Consistent>  (147) 
1

>  <s_lp_Variant>  (147) 
40:0-1

>  <s_i_glide_gridfile>  (147) 
pfpi4k_grid

>  <i_i_glide_lignum>  (147) 
15

>  <i_i_glide_rotatable_bonds>  (147) 
0

>  <r_i_docking_score>  (147) 
-3.48754

>  <r_i_glide_ligand_efficiency>  (147) 
-0.290629

>  <r_i_glide_ligand_efficiency_sa>  (147) 
-0.665373

>  <r_i_glide_ligand_efficiency_ln>  (147) 
-1.00076

>  <r_i_glide_gscore>  (147) 
-3.48754

>  <r_i_glide_lipo>  (147) 
-0.39226

>  <r_i_glide_hbond>  (147) 
0

>  <r_i_glide_metal>  (147) 
-0

>  <r_i_glide_rewards>  (147) 
-2.25

>  <r_i_glide_evdw>  (147) 
-18.2425

>  <r_i_glide_ecoul>  (147) 
0.44562

>  <r_i_glide_erotb>  (147) 
0

>  <r_i_glide_esite>  (147) 
0

>  <r_i_glide_emodel>  (147) 
-21.664

>  <r_i_glide_energy>  (147) 
-17.7969

>  <r_i_glide_einternal>  (147) 
0

>  <r_i_glide_intrahb_reward>  (147) 
-0

>  <i_i_glide_confnum>  (147) 
1

>  <i_i_glide_posenum>  (147) 
7

>  <r_i_glide_eff_state_penalty>  (147) 
0

>  <ligand_id>  (147) 
40

>  <original_smiles>  (147) 
C1=CC2C3CC4C1C1CC4C3C21

>  <smiles>  (147) 
[H]C1=C([H])C2([H])C3([H])C([H])([H])C4([H])C1([H])C1([H])C([H])([H])C4([H])C3([H])C21[H]

$$$$
40:0:2
     RDKit          3D

 26 30  0  0  1  0  0  0  0  0999 V2000
    3.8495   -1.2284   -2.3818 C   0  0  0  0  0  0  0  0  0  0  0  0
    2.9889   -2.2529   -2.2836 C   0  0  0  0  0  0  0  0  0  0  0  0
    3.2753   -3.3856   -1.3130 C   0  0  2  0  0  0  0  0  0  0  0  0
    3.3621   -2.9324    0.1656 C   0  0  2  0  0  0  0  0  0  0  0  0
    3.5558   -1.4572    0.4948 C   0  0  0  0  0  0  0  0  0  0  0  0
    4.9887   -1.1631   -0.0177 C   0  0  2  0  0  0  0  0  0  0  0  0
    5.1487   -1.2626   -1.5849 C   0  0  1  0  0  0  0  0  0  0  0  0
    5.7984   -2.6612   -1.7560 C   0  0  1  0  0  0  0  0  0  0  0  0
    6.8266   -2.6449   -0.6313 C   0  0  0  0  0  0  0  0  0  0  0  0
    5.7837   -2.4150    0.4593 C   0  0  2  0  0  0  0  0  0  0  0  0
    4.7643   -3.5264    0.2266 C   0  0  2  0  0  0  0  0  0  0  0  0
    4.7773   -3.7138   -1.2827 C   0  0  1  0  0  0  0  0  0  0  0  0
    3.6561   -0.3830   -3.0313 H   0  0  0  0  0  0  0  0  0  0  0  0
    2.0527   -2.2695   -2.8260 H   0  0  0  0  0  0  0  0  0  0  0  0
    2.6411   -4.2562   -1.4569 H   0  0  0  0  0  0  0  0  0  0  0  0
    2.6453   -3.4562    0.7993 H   0  0  0  0  0  0  0  0  0  0  0  0
    2.7915   -0.8049    0.0722 H   0  0  0  0  0  0  0  0  0  0  0  0
    3.5171   -1.3105    1.5765 H   0  0  0  0  0  0  0  0  0  0  0  0
    5.3842   -0.2229    0.3713 H   0  0  0  0  0  0  0  0  0  0  0  0
    5.8100   -0.4767   -1.9501 H   0  0  0  0  0  0  0  0  0  0  0  0
    6.1990   -2.8471   -2.7522 H   0  0  0  0  0  0  0  0  0  0  0  0
    7.3423   -3.5986   -0.5269 H   0  0  0  0  0  0  0  0  0  0  0  0
    7.5659   -1.8507   -0.7091 H   0  0  0  0  0  0  0  0  0  0  0  0
    6.1631   -2.3574    1.4815 H   0  0  0  0  0  0  0  0  0  0  0  0
    4.8713   -4.4515    0.7929 H   0  0  0  0  0  0  0  0  0  0  0  0
    5.0010   -4.7430   -1.5699 H   0  0  0  0  0  0  0  0  0  0  0  0
  1  7  1  0
  1  2  2  0
  1 13  1  0
  2  3  1  0
  2 14  1  0
  3 12  1  0
  3  4  1  0
  3 15  1  1
  4 11  1  0
  4  5  1  0
  4 16  1  1
  5  6  1  0
  5 17  1  0
  5 18  1  0
  6 10  1  0
  6  7  1  0
  6 19  1  1
  7  8  1  0
  7 20  1  6
  8 12  1  0
  8  9  1  0
  8 21  1  6
  9 10  1  0
  9 22  1  0
  9 23  1  0
 10 11  1  0
 10 24  1  1
 11 12  1  0
 11 25  1  1
 12 26  1  1
M  END
>  <i_m_ct_stereo_status>  (148) 
1

>  <s_m_source_file>  (148) 
/var/tmp/pbs.5076255.sched01/tmpar858yha/42b8svm9_t.sdf

>  <i_m_source_file_index>  (148) 
15

>  <i_lp_mmshare_version>  (148) 
48012

>  <i_f3d_flags>  (148) 
0

>  <s_epik_input>  (148) 
W0NIXTE9W0NIXVtDQEhdKFtDQEBIXShbQ0gyXTIpW0NASF0zNClbQ0BASF0oW0NIMl01KVtDQEhdMltDQEhdNFtDQEBIXTVbQ0BASF0xMw==

>  <s_epik_cmdline>  (148) 
J2VwaWtfcHl0aG9uJywgJy1waHQnLCAnMi4wJywgJy1waCcsICc3LjAnLCAnLXRuJywgJzgnLCAnLW1hJywgJzIwMCcsICctaW1hZScsICc8aW5maWxlLm1hZT4nLCAnLW9tYWUnLCAnPG91dGZpbGUubWFlPic=

>  <r_lp_tautomer_probability>  (148) 
1

>  <r_epik_Ionization_Penalty>  (148) 
0

>  <r_epik_Ionization_Penalty_Charging>  (148) 
0

>  <r_epik_Ionization_Penalty_Neutral>  (148) 
0

>  <r_epik_State_Penalty>  (148) 
-0

>  <r_epik_Charging_Adjusted_Penalty>  (148) 
0

>  <i_epik_Tot_Q>  (148) 
0

>  <i_epik_Tot_abs_Q>  (148) 
0

>  <s_lp_Force_Field>  (148) 
OPLS3e

>  <r_lp_Energy>  (148) 
57.7141

>  <b_lp_Chiralities_Consistent>  (148) 
1

>  <s_lp_Variant>  (148) 
40:0-1

>  <s_i_glide_gridfile>  (148) 
pfpi4k_grid

>  <i_i_glide_lignum>  (148) 
15

>  <i_i_glide_rotatable_bonds>  (148) 
0

>  <r_i_docking_score>  (148) 
-3.27871

>  <r_i_glide_ligand_efficiency>  (148) 
-0.273226

>  <r_i_glide_ligand_efficiency_sa>  (148) 
-0.625531

>  <r_i_glide_ligand_efficiency_ln>  (148) 
-0.940832

>  <r_i_glide_gscore>  (148) 
-3.27871

>  <r_i_glide_lipo>  (148) 
-0.171921

>  <r_i_glide_hbond>  (148) 
0

>  <r_i_glide_metal>  (148) 
-0

>  <r_i_glide_rewards>  (148) 
-2.25

>  <r_i_glide_evdw>  (148) 
-17.4843

>  <r_i_glide_ecoul>  (148) 
0.116148

>  <r_i_glide_erotb>  (148) 
0

>  <r_i_glide_esite>  (148) 
0

>  <r_i_glide_emodel>  (148) 
-20.9993

>  <r_i_glide_energy>  (148) 
-17.3681

>  <r_i_glide_einternal>  (148) 
0

>  <r_i_glide_intrahb_reward>  (148) 
-0

>  <i_i_glide_confnum>  (148) 
1

>  <i_i_glide_posenum>  (148) 
3

>  <r_i_glide_eff_state_penalty>  (148) 
0

>  <ligand_id>  (148) 
40

>  <original_smiles>  (148) 
C1=CC2C3CC4C1C1CC4C3C21

>  <smiles>  (148) 
[H]C1=C([H])C2([H])C3([H])C([H])([H])C4([H])C1([H])C1([H])C([H])([H])C4([H])C3([H])C21[H]

$$$$
41:0:0
     RDKit          3D

 12 13  0  0  1  0  0  0  0  0999 V2000
   -0.1852    4.9265    5.5981 S   0  0  0  0  0  0  0  0  0  0  0  0
   -0.9424    3.4162    6.0463 C   0  0  0  0  0  0  0  0  0  0  0  0
   -1.6254    3.3569    7.2759 C   0  0  0  0  0  0  0  0  0  0  0  0
   -2.2264    2.1419    7.6527 C   0  0  0  0  0  0  0  0  0  0  0  0
   -2.1863    1.0187    6.9001 N   0  0  0  0  0  0  0  0  0  0  0  0
   -1.5391    1.0607    5.7131 C   0  0  0  0  0  0  0  0  0  0  0  0
   -1.4360    0.0143    4.8823 N   0  0  0  0  0  0  0  0  0  0  0  0
   -0.5540    0.5783    3.5686 S   0  0  0  0  0  0  0  0  0  0  0  0
   -0.2914    2.1552    4.0618 N   0  0  0  0  0  0  0  0  0  0  0  0
   -0.9052    2.2370    5.2507 C   0  0  0  0  0  0  0  0  0  0  0  0
   -1.6857    4.2124    7.9350 H   0  0  0  0  0  0  0  0  0  0  0  0
   -2.7532    2.0687    8.5918 H   0  0  0  0  0  0  0  0  0  0  0  0
  1  2  1  0
  2 10  1  0
  2  3  2  0
  3  4  1  0
  3 11  1  0
  4  5  2  0
  4 12  1  0
  5  6  1  0
  6 10  1  0
  6  7  2  0
  7  8  1  0
  8  9  1  0
  9 10  2  0
M  CHG  1   1  -1
M  END
>  <i_m_ct_stereo_status>  (149) 
1

>  <s_m_source_file>  (149) 
/var/tmp/pbs.5076255.sched01/tmpar858yha/42b8svm9_t.sdf

>  <i_m_source_file_index>  (149) 
16

>  <i_lp_mmshare_version>  (149) 
48012

>  <i_f3d_flags>  (149) 
0

>  <s_epik_input>  (149) 
bjFbY0hdW2NIXWMoW1NIXSljKGMxMiluc24y

>  <s_epik_cmdline>  (149) 
J2VwaWtfcHl0aG9uJywgJy1waHQnLCAnMi4wJywgJy1waCcsICc3LjAnLCAnLXRuJywgJzgnLCAnLW1hJywgJzIwMCcsICctaW1hZScsICc8aW5maWxlLm1hZT4nLCAnLW9tYWUnLCAnPG91dGZpbGUubWFlPic=

>  <r_lp_tautomer_probability>  (149) 
1

>  <r_epik_Ionization_Penalty>  (149) 
8.6481e-06

>  <r_epik_Ionization_Penalty_Charging>  (149) 
5.19723e-06

>  <r_epik_Ionization_Penalty_Neutral>  (149) 
3.45087e-06

>  <r_epik_State_Penalty>  (149) 
-0

>  <r_epik_Charging_Adjusted_Penalty>  (149) 
5.19723e-06

>  <i_epik_Tot_Q>  (149) 
-1

>  <i_epik_Tot_abs_Q>  (149) 
1

>  <s_lp_Force_Field>  (149) 
OPLS3e

>  <r_lp_Energy>  (149) 
16.1933

>  <b_lp_Chiralities_Consistent>  (149) 
1

>  <s_lp_Variant>  (149) 
41:0-1

>  <s_i_glide_gridfile>  (149) 
pfpi4k_grid

>  <i_i_glide_lignum>  (149) 
16

>  <i_i_glide_rotatable_bonds>  (149) 
0

>  <r_i_docking_score>  (149) 
-3.56176

>  <r_i_glide_ligand_efficiency>  (149) 
-0.356176

>  <r_i_glide_ligand_efficiency_sa>  (149) 
-0.767357

>  <r_i_glide_ligand_efficiency_ln>  (149) 
-1.07848

>  <r_i_glide_gscore>  (149) 
-3.56176

>  <r_i_glide_lipo>  (149) 
-0.0388163

>  <r_i_glide_hbond>  (149) 
-0.16

>  <r_i_glide_metal>  (149) 
-0

>  <r_i_glide_rewards>  (149) 
-2.25

>  <r_i_glide_evdw>  (149) 
-11.6037

>  <r_i_glide_ecoul>  (149) 
-3.30675

>  <r_i_glide_erotb>  (149) 
0

>  <r_i_glide_esite>  (149) 
-0.0367413

>  <r_i_glide_emodel>  (149) 
-20.1579

>  <r_i_glide_energy>  (149) 
-14.9105

>  <r_i_glide_einternal>  (149) 
0

>  <r_i_glide_intrahb_reward>  (149) 
-0

>  <i_i_glide_confnum>  (149) 
2

>  <i_i_glide_posenum>  (149) 
9

>  <r_i_glide_eff_state_penalty>  (149) 
0

>  <ligand_id>  (149) 
41

>  <original_smiles>  (149) 
Sc1ccnc2nsnc12

>  <smiles>  (149) 
[H]c1nc2nsnc2c([S-])c1[H]

$$$$
41:0:1
     RDKit          3D

 12 13  0  0  1  0  0  0  0  0999 V2000
   -2.1843    3.4564    3.4841 S   0  0  0  0  0  0  0  0  0  0  0  0
   -2.0046    2.4714    4.9086 C   0  0  0  0  0  0  0  0  0  0  0  0
   -2.5338    2.9561    6.1189 C   0  0  0  0  0  0  0  0  0  0  0  0
   -2.4014    2.1697    7.2763 C   0  0  0  0  0  0  0  0  0  0  0  0
   -1.8021    0.9591    7.2801 N   0  0  0  0  0  0  0  0  0  0  0  0
   -1.2797    0.4827    6.1308 C   0  0  0  0  0  0  0  0  0  0  0  0
   -0.6730   -0.7062    6.0304 N   0  0  0  0  0  0  0  0  0  0  0  0
   -0.1996   -0.8240    4.4259 S   0  0  0  0  0  0  0  0  0  0  0  0
   -0.8254    0.6131    3.8427 N   0  0  0  0  0  0  0  0  0  0  0  0
   -1.3635    1.2015    4.9197 C   0  0  0  0  0  0  0  0  0  0  0  0
   -3.0356    3.9087    6.1686 H   0  0  0  0  0  0  0  0  0  0  0  0
   -2.8018    2.5171    8.2180 H   0  0  0  0  0  0  0  0  0  0  0  0
  1  2  1  0
  2 10  1  0
  2  3  2  0
  3  4  1  0
  3 11  1  0
  4  5  2  0
  4 12  1  0
  5  6  1  0
  6 10  1  0
  6  7  2  0
  7  8  1  0
  8  9  1  0
  9 10  2  0
M  CHG  1   1  -1
M  END
>  <i_m_ct_stereo_status>  (150) 
1

>  <s_m_source_file>  (150) 
/var/tmp/pbs.5076255.sched01/tmpar858yha/42b8svm9_t.sdf

>  <i_m_source_file_index>  (150) 
16

>  <i_lp_mmshare_version>  (150) 
48012

>  <i_f3d_flags>  (150) 
0

>  <s_epik_input>  (150) 
bjFbY0hdW2NIXWMoW1NIXSljKGMxMiluc24y

>  <s_epik_cmdline>  (150) 
J2VwaWtfcHl0aG9uJywgJy1waHQnLCAnMi4wJywgJy1waCcsICc3LjAnLCAnLXRuJywgJzgnLCAnLW1hJywgJzIwMCcsICctaW1hZScsICc8aW5maWxlLm1hZT4nLCAnLW9tYWUnLCAnPG91dGZpbGUubWFlPic=

>  <r_lp_tautomer_probability>  (150) 
1

>  <r_epik_Ionization_Penalty>  (150) 
8.6481e-06

>  <r_epik_Ionization_Penalty_Charging>  (150) 
5.19723e-06

>  <r_epik_Ionization_Penalty_Neutral>  (150) 
3.45087e-06

>  <r_epik_State_Penalty>  (150) 
-0

>  <r_epik_Charging_Adjusted_Penalty>  (150) 
5.19723e-06

>  <i_epik_Tot_Q>  (150) 
-1

>  <i_epik_Tot_abs_Q>  (150) 
1

>  <s_lp_Force_Field>  (150) 
OPLS3e

>  <r_lp_Energy>  (150) 
16.1933

>  <b_lp_Chiralities_Consistent>  (150) 
1

>  <s_lp_Variant>  (150) 
41:0-1

>  <s_i_glide_gridfile>  (150) 
pfpi4k_grid

>  <i_i_glide_lignum>  (150) 
16

>  <i_i_glide_rotatable_bonds>  (150) 
0

>  <r_i_docking_score>  (150) 
-3.51378

>  <r_i_glide_ligand_efficiency>  (150) 
-0.351378

>  <r_i_glide_ligand_efficiency_sa>  (150) 
-0.75702

>  <r_i_glide_ligand_efficiency_ln>  (150) 
-1.06395

>  <r_i_glide_gscore>  (150) 
-3.51378

>  <r_i_glide_lipo>  (150) 
-0.101754

>  <r_i_glide_hbond>  (150) 
-0.16

>  <r_i_glide_metal>  (150) 
-0

>  <r_i_glide_rewards>  (150) 
-2.25

>  <r_i_glide_evdw>  (150) 
-11.5938

>  <r_i_glide_ecoul>  (150) 
-2.42097

>  <r_i_glide_erotb>  (150) 
0

>  <r_i_glide_esite>  (150) 
-0.0591896

>  <r_i_glide_emodel>  (150) 
-19.1911

>  <r_i_glide_energy>  (150) 
-14.0147

>  <r_i_glide_einternal>  (150) 
0

>  <r_i_glide_intrahb_reward>  (150) 
-0

>  <i_i_glide_confnum>  (150) 
2

>  <i_i_glide_posenum>  (150) 
29

>  <r_i_glide_eff_state_penalty>  (150) 
0

>  <ligand_id>  (150) 
41

>  <original_smiles>  (150) 
Sc1ccnc2nsnc12

>  <smiles>  (150) 
[H]c1nc2nsnc2c([S-])c1[H]

$$$$
41:0:2
     RDKit          3D

 12 13  0  0  1  0  0  0  0  0999 V2000
    4.8993   -8.4794    2.0288 S   0  0  0  0  0  0  0  0  0  0  0  0
    3.4446   -7.5979    1.6335 C   0  0  0  0  0  0  0  0  0  0  0  0
    2.1988   -8.1667    1.9708 C   0  0  0  0  0  0  0  0  0  0  0  0
    1.0217   -7.4680    1.6420 C   0  0  0  0  0  0  0  0  0  0  0  0
    1.0157   -6.2686    1.0156 N   0  0  0  0  0  0  0  0  0  0  0  0
    2.2073   -5.7126    0.6863 C   0  0  0  0  0  0  0  0  0  0  0  0
    2.3264   -4.5323    0.0708 N   0  0  0  0  0  0  0  0  0  0  0  0
    3.9736   -4.2791   -0.1125 S   0  0  0  0  0  0  0  0  0  0  0  0
    4.5477   -5.6808    0.5951 N   0  0  0  0  0  0  0  0  0  0  0  0
    3.4397   -6.3371    0.9747 C   0  0  0  0  0  0  0  0  0  0  0  0
    2.1350   -9.1287    2.4628 H   0  0  0  0  0  0  0  0  0  0  0  0
    0.0567   -7.8902    1.8840 H   0  0  0  0  0  0  0  0  0  0  0  0
  1  2  1  0
  2 10  1  0
  2  3  2  0
  3  4  1  0
  3 11  1  0
  4  5  2  0
  4 12  1  0
  5  6  1  0
  6 10  1  0
  6  7  2  0
  7  8  1  0
  8  9  1  0
  9 10  2  0
M  CHG  1   1  -1
M  END
>  <i_m_ct_stereo_status>  (151) 
1

>  <s_m_source_file>  (151) 
/var/tmp/pbs.5076255.sched01/tmpar858yha/42b8svm9_t.sdf

>  <i_m_source_file_index>  (151) 
16

>  <i_lp_mmshare_version>  (151) 
48012

>  <i_f3d_flags>  (151) 
0

>  <s_epik_input>  (151) 
bjFbY0hdW2NIXWMoW1NIXSljKGMxMiluc24y

>  <s_epik_cmdline>  (151) 
J2VwaWtfcHl0aG9uJywgJy1waHQnLCAnMi4wJywgJy1waCcsICc3LjAnLCAnLXRuJywgJzgnLCAnLW1hJywgJzIwMCcsICctaW1hZScsICc8aW5maWxlLm1hZT4nLCAnLW9tYWUnLCAnPG91dGZpbGUubWFlPic=

>  <r_lp_tautomer_probability>  (151) 
1

>  <r_epik_Ionization_Penalty>  (151) 
8.6481e-06

>  <r_epik_Ionization_Penalty_Charging>  (151) 
5.19723e-06

>  <r_epik_Ionization_Penalty_Neutral>  (151) 
3.45087e-06

>  <r_epik_State_Penalty>  (151) 
-0

>  <r_epik_Charging_Adjusted_Penalty>  (151) 
5.19723e-06

>  <i_epik_Tot_Q>  (151) 
-1

>  <i_epik_Tot_abs_Q>  (151) 
1

>  <s_lp_Force_Field>  (151) 
OPLS3e

>  <r_lp_Energy>  (151) 
16.1933

>  <b_lp_Chiralities_Consistent>  (151) 
1

>  <s_lp_Variant>  (151) 
41:0-1

>  <s_i_glide_gridfile>  (151) 
pfpi4k_grid

>  <i_i_glide_lignum>  (151) 
16

>  <i_i_glide_rotatable_bonds>  (151) 
0

>  <r_i_docking_score>  (151) 
-3.48832

>  <r_i_glide_ligand_efficiency>  (151) 
-0.348832

>  <r_i_glide_ligand_efficiency_sa>  (151) 
-0.751536

>  <r_i_glide_ligand_efficiency_ln>  (151) 
-1.05624

>  <r_i_glide_gscore>  (151) 
-3.48832

>  <r_i_glide_lipo>  (151) 
-0.0684347

>  <r_i_glide_hbond>  (151) 
-0.16

>  <r_i_glide_metal>  (151) 
-0

>  <r_i_glide_rewards>  (151) 
-2.25

>  <r_i_glide_evdw>  (151) 
-12.4733

>  <r_i_glide_ecoul>  (151) 
-2.2702

>  <r_i_glide_erotb>  (151) 
0

>  <r_i_glide_esite>  (151) 
-0.0456915

>  <r_i_glide_emodel>  (151) 
-19.883

>  <r_i_glide_energy>  (151) 
-14.7435

>  <r_i_glide_einternal>  (151) 
0

>  <r_i_glide_intrahb_reward>  (151) 
-0

>  <i_i_glide_confnum>  (151) 
2

>  <i_i_glide_posenum>  (151) 
13

>  <r_i_glide_eff_state_penalty>  (151) 
0

>  <ligand_id>  (151) 
41

>  <original_smiles>  (151) 
Sc1ccnc2nsnc12

>  <smiles>  (151) 
[H]c1nc2nsnc2c([S-])c1[H]

$$$$
42:0:0
     RDKit          3D

 64 68  0  0  1  0  0  0  0  0999 V2000
    1.4495   -5.5841    2.0162 C   0  0  0  0  0  0  0  0  0  0  0  0
    2.3862   -6.5979    2.7027 C   0  0  0  0  0  0  0  0  0  0  0  0
    1.5881   -7.2650    3.8421 C   0  0  0  0  0  0  0  0  0  0  0  0
    2.6910   -7.6844    1.6810 C   0  0  0  0  0  0  0  0  0  0  0  0
    3.9191   -8.0444    1.2838 C   0  0  0  0  0  0  0  0  0  0  0  0
    5.1788   -7.4157    1.8226 C   0  0  0  0  0  0  0  0  0  0  0  0
    4.9666   -5.9933    2.3878 C   0  0  1  0  0  0  0  0  0  0  0  0
    6.2171   -5.6847    3.2474 C   0  0  0  0  0  0  0  0  0  0  0  0
    4.7940   -4.9385    1.2486 C   0  0  2  0  0  0  0  0  0  0  0  0
    5.9769   -4.6163    0.3489 C   0  0  0  0  0  0  0  0  0  0  0  0
    5.5928   -3.3087   -0.3727 C   0  0  1  0  0  0  0  0  0  0  0  0
    6.7018   -2.6071   -1.1955 C   0  0  1  0  0  0  0  0  0  0  0  0
    8.0500   -2.8608   -0.8544 O   0  0  0  0  0  0  0  0  0  0  0  0
    6.1554   -3.2683   -2.4512 C   0  0  0  0  0  0  0  0  0  0  0  0
    4.8339   -3.5089   -1.7268 C   0  0  2  0  0  0  0  0  0  0  0  0
    3.5942   -2.6557   -2.0525 C   0  0  0  0  0  0  0  0  0  0  0  0
    3.4736   -2.3130   -3.5509 C   0  0  0  0  0  0  0  0  0  0  0  0
    2.3113   -3.4239   -1.6616 C   0  0  0  0  0  0  0  0  0  0  0  0
    3.6804   -1.3443   -1.2535 C   0  0  0  0  0  0  0  0  0  0  0  0
    3.7245   -1.5818    0.2685 C   0  0  0  0  0  0  0  0  0  0  0  0
    4.8821   -2.4973    0.7638 C   0  0  2  0  0  0  0  0  0  0  0  0
    5.8957   -1.6075    1.5150 C   0  0  0  0  0  0  0  0  0  0  0  0
    4.3791   -3.5774    1.7330 C   0  0  0  0  0  0  0  0  0  0  0  0
    3.7947   -3.3860    2.9307 C   0  0  0  0  0  0  0  0  0  0  0  0
    3.4787   -4.5254    3.8981 C   0  0  0  0  0  0  0  0  0  0  0  0
    3.6953   -5.9481    3.3008 C   0  0  1  0  0  0  0  0  0  0  0  0
    1.0473   -4.8390    2.7038 H   0  0  0  0  0  0  0  0  0  0  0  0
    0.5969   -6.0950    1.5673 H   0  0  0  0  0  0  0  0  0  0  0  0
    1.9519   -5.0486    1.2134 H   0  0  0  0  0  0  0  0  0  0  0  0
    1.3273   -6.5566    4.6291 H   0  0  0  0  0  0  0  0  0  0  0  0
    2.1692   -8.0696    4.2987 H   0  0  0  0  0  0  0  0  0  0  0  0
    0.6628   -7.7126    3.4742 H   0  0  0  0  0  0  0  0  0  0  0  0
    1.8324   -8.1911    1.2649 H   0  0  0  0  0  0  0  0  0  0  0  0
    4.0464   -8.8448    0.5719 H   0  0  0  0  0  0  0  0  0  0  0  0
    5.5510   -8.0846    2.6018 H   0  0  0  0  0  0  0  0  0  0  0  0
    5.9354   -7.4068    1.0375 H   0  0  0  0  0  0  0  0  0  0  0  0
    6.2214   -4.6561    3.5982 H   0  0  0  0  0  0  0  0  0  0  0  0
    7.1437   -5.8541    2.6986 H   0  0  0  0  0  0  0  0  0  0  0  0
    6.2594   -6.3216    4.1341 H   0  0  0  0  0  0  0  0  0  0  0  0
    4.0028   -5.2807    0.5826 H   0  0  0  0  0  0  0  0  0  0  0  0
    6.8879   -4.4625    0.9299 H   0  0  0  0  0  0  0  0  0  0  0  0
    6.1711   -5.4461   -0.3253 H   0  0  0  0  0  0  0  0  0  0  0  0
    6.5424   -1.5326   -1.2560 H   0  0  0  0  0  0  0  0  0  0  0  0
    8.5147   -3.0519   -1.6540 H   0  0  0  0  0  0  0  0  0  0  0  0
    6.1069   -2.6568   -3.3414 H   0  0  0  0  0  0  0  0  0  0  0  0
    6.6467   -4.1879   -2.7190 H   0  0  0  0  0  0  0  0  0  0  0  0
    4.6126   -4.5685   -1.8690 H   0  0  0  0  0  0  0  0  0  0  0  0
    2.5240   -1.8173   -3.7554 H   0  0  0  0  0  0  0  0  0  0  0  0
    3.5120   -3.2079   -4.1660 H   0  0  0  0  0  0  0  0  0  0  0  0
    4.2519   -1.6297   -3.8806 H   0  0  0  0  0  0  0  0  0  0  0  0
    1.4464   -2.7736   -1.7354 H   0  0  0  0  0  0  0  0  0  0  0  0
    2.3598   -3.8169   -0.6499 H   0  0  0  0  0  0  0  0  0  0  0  0
    2.0941   -4.2444   -2.3327 H   0  0  0  0  0  0  0  0  0  0  0  0
    4.5494   -0.7622   -1.5603 H   0  0  0  0  0  0  0  0  0  0  0  0
    2.8324   -0.7100   -1.5055 H   0  0  0  0  0  0  0  0  0  0  0  0
    3.7791   -0.6100    0.7613 H   0  0  0  0  0  0  0  0  0  0  0  0
    2.7626   -1.9870    0.5881 H   0  0  0  0  0  0  0  0  0  0  0  0
    6.2732   -0.8051    0.8823 H   0  0  0  0  0  0  0  0  0  0  0  0
    6.7472   -2.1954    1.8518 H   0  0  0  0  0  0  0  0  0  0  0  0
    5.4496   -1.1367    2.3914 H   0  0  0  0  0  0  0  0  0  0  0  0
    3.5784   -2.3879    3.2745 H   0  0  0  0  0  0  0  0  0  0  0  0
    4.1491   -4.3975    4.7467 H   0  0  0  0  0  0  0  0  0  0  0  0
    2.4768   -4.4056    4.3058 H   0  0  0  0  0  0  0  0  0  0  0  0
    3.9474   -6.5847    4.1514 H   0  0  0  0  0  0  0  0  0  0  0  0
  1  2  1  0
  1 27  1  0
  1 28  1  0
  1 29  1  0
  2 26  1  0
  2  3  1  0
  2  4  1  0
  3 30  1  0
  3 31  1  0
  3 32  1  0
  4  5  2  0
  4 33  1  0
  5  6  1  0
  5 34  1  0
  6  7  1  0
  6 35  1  0
  6 36  1  0
  7 26  1  0
  7  8  1  1
  7  9  1  0
  8 37  1  0
  8 38  1  0
  8 39  1  0
  9 23  1  0
  9 10  1  0
  9 40  1  6
 11 10  1  1
 10 41  1  0
 10 42  1  0
 11 15  1  0
 11 21  1  0
 11 12  1  0
 12 13  1  0
 12 14  1  0
 12 43  1  6
 13 44  1  0
 14 15  1  0
 14 45  1  0
 14 46  1  0
 15 16  1  0
 15 47  1  1
 16 17  1  0
 16 18  1  0
 16 19  1  0
 17 48  1  0
 17 49  1  0
 17 50  1  0
 18 51  1  0
 18 52  1  0
 18 53  1  0
 19 20  1  0
 19 54  1  0
 19 55  1  0
 20 21  1  0
 20 56  1  0
 20 57  1  0
 21 22  1  1
 21 23  1  0
 22 58  1  0
 22 59  1  0
 22 60  1  0
 23 24  2  0
 24 25  1  0
 24 61  1  0
 25 26  1  0
 25 62  1  0
 25 63  1  0
 26 64  1  1
M  END
>  <i_m_ct_stereo_status>  (152) 
1

>  <s_m_source_file>  (152) 
/var/tmp/pbs.5076255.sched01/tmpar858yha/42b8svm9_t.sdf

>  <i_m_source_file_index>  (152) 
17

>  <i_lp_mmshare_version>  (152) 
48012

>  <i_f3d_flags>  (152) 
0

>  <s_epik_input>  (152) 
W0NIMl0xW0NIXT1bQ0hdQyhbQ0gzXSkoW0NIM10pW0NASF0oW0NIMl1bQ0hdMilbQ0BdMShbQ0gzXSlbQ0BIXShbQ0gyXTMpQz0yW0NAXTQoW0NIM10pW0NIMl1bQ0gyXUMoW0NIM10pKFtDSDNdKVtDQEhdKFtDQF0zNDUpW0NIMl1bQ0BASF01W09IXQ==

>  <s_epik_cmdline>  (152) 
J2VwaWtfcHl0aG9uJywgJy1waHQnLCAnMi4wJywgJy1waCcsICc3LjAnLCAnLXRuJywgJzgnLCAnLW1hJywgJzIwMCcsICctaW1hZScsICc8aW5maWxlLm1hZT4nLCAnLW9tYWUnLCAnPG91dGZpbGUubWFlPic=

>  <r_lp_tautomer_probability>  (152) 
1

>  <r_epik_Ionization_Penalty>  (152) 
3.27847e-06

>  <r_epik_Ionization_Penalty_Charging>  (152) 
0

>  <r_epik_Ionization_Penalty_Neutral>  (152) 
3.27847e-06

>  <r_epik_State_Penalty>  (152) 
-0

>  <r_epik_Charging_Adjusted_Penalty>  (152) 
0

>  <i_epik_Tot_Q>  (152) 
0

>  <i_epik_Tot_abs_Q>  (152) 
0

>  <s_lp_Force_Field>  (152) 
OPLS3e

>  <r_lp_Energy>  (152) 
56.4925

>  <b_lp_Chiralities_Consistent>  (152) 
1

>  <s_lp_Variant>  (152) 
42:0-1

>  <s_i_glide_gridfile>  (152) 
pfpi4k_grid

>  <i_i_glide_lignum>  (152) 
17

>  <i_i_glide_rotatable_bonds>  (152) 
1

>  <r_i_docking_score>  (152) 
-3.61204

>  <r_i_glide_ligand_efficiency>  (152) 
-0.138925

>  <r_i_glide_ligand_efficiency_sa>  (152) 
-0.411564

>  <r_i_glide_ligand_efficiency_ln>  (152) 
-0.848276

>  <r_i_glide_gscore>  (152) 
-3.61204

>  <r_i_glide_lipo>  (152) 
-1.12015

>  <r_i_glide_hbond>  (152) 
-0.0127302

>  <r_i_glide_metal>  (152) 
-0

>  <r_i_glide_rewards>  (152) 
-0.991578

>  <r_i_glide_evdw>  (152) 
-24.9308

>  <r_i_glide_ecoul>  (152) 
-1.60696

>  <r_i_glide_erotb>  (152) 
0

>  <r_i_glide_esite>  (152) 
0

>  <r_i_glide_emodel>  (152) 
-31.1586

>  <r_i_glide_energy>  (152) 
-26.5378

>  <r_i_glide_einternal>  (152) 
1.81254

>  <r_i_glide_intrahb_reward>  (152) 
-0

>  <i_i_glide_confnum>  (152) 
1

>  <i_i_glide_posenum>  (152) 
6

>  <r_i_glide_eff_state_penalty>  (152) 
0

>  <ligand_id>  (152) 
42

>  <original_smiles>  (152) 
CC1(C)C=CCC2(C)C3CC45C(O)CC4C(C)(C)CCC5(C)C3=CCC12

>  <smiles>  (152) 
[H]OC1([H])C([H])([H])C2([H])C(C([H])([H])[H])(C([H])([H])[H])C([H])([H])C([H])([H])C3(C([H])([H])[H])C4=C([H])C([H])([H])C5([H])C(C([H])([H])[H])(C([H])([H])[H])C([H])=C([H])C([H])([H])C5(C([H])([H])[H])C4([H])C([H])([H])C123

$$$$
42:0:1
     RDKit          3D

 64 68  0  0  1  0  0  0  0  0999 V2000
    1.5417   -5.8461    2.0112 C   0  0  0  0  0  0  0  0  0  0  0  0
    2.4942   -6.8315    2.7214 C   0  0  0  0  0  0  0  0  0  0  0  0
    1.6691   -7.6105    3.7658 C   0  0  0  0  0  0  0  0  0  0  0  0
    2.9482   -7.8384    1.6798 C   0  0  0  0  0  0  0  0  0  0  0  0
    4.2250   -8.1000    1.3571 C   0  0  0  0  0  0  0  0  0  0  0  0
    5.3975   -7.4199    2.0185 C   0  0  0  0  0  0  0  0  0  0  0  0
    5.0511   -6.0451    2.6377 C   0  0  1  0  0  0  0  0  0  0  0  0
    6.2146   -5.6986    3.6041 C   0  0  0  0  0  0  0  0  0  0  0  0
    4.8881   -4.9515    1.5366 C   0  0  2  0  0  0  0  0  0  0  0  0
    6.1087   -4.5060    0.7417 C   0  0  0  0  0  0  0  0  0  0  0  0
    5.6834   -3.1922    0.0718 C   0  0  1  0  0  0  0  0  0  0  0  0
    6.7861   -2.3670   -0.6272 C   0  0  1  0  0  0  0  0  0  0  0  0
    8.1268   -2.5096   -0.2086 O   0  0  0  0  0  0  0  0  0  0  0  0
    6.4060   -2.9958   -1.9474 C   0  0  0  0  0  0  0  0  0  0  0  0
    5.0487   -3.3719   -1.3489 C   0  0  2  0  0  0  0  0  0  0  0  0
    3.7750   -2.5781   -1.7238 C   0  0  0  0  0  0  0  0  0  0  0  0
    3.7337   -2.1605   -3.2117 C   0  0  0  0  0  0  0  0  0  0  0  0
    2.5173   -3.4412   -1.4554 C   0  0  0  0  0  0  0  0  0  0  0  0
    3.7223   -1.3062   -0.8573 C   0  0  0  0  0  0  0  0  0  0  0  0
    3.6630   -1.6238    0.6490 C   0  0  0  0  0  0  0  0  0  0  0  0
    4.8408   -2.4839    1.1867 C   0  0  2  0  0  0  0  0  0  0  0  0
    5.7362   -1.5698    2.0503 C   0  0  0  0  0  0  0  0  0  0  0  0
    4.3480   -3.6453    2.0580 C   0  0  0  0  0  0  0  0  0  0  0  0
    3.6638   -3.5562    3.2160 C   0  0  0  0  0  0  0  0  0  0  0  0
    3.3582   -4.7614    4.0987 C   0  0  0  0  0  0  0  0  0  0  0  0
    3.7135   -6.1329    3.4503 C   0  0  1  0  0  0  0  0  0  0  0  0
    1.0445   -5.1634    2.7015 H   0  0  0  0  0  0  0  0  0  0  0  0
    0.7560   -6.3800    1.4738 H   0  0  0  0  0  0  0  0  0  0  0  0
    2.0617   -5.2386    1.2767 H   0  0  0  0  0  0  0  0  0  0  0  0
    1.3048   -6.9664    4.5692 H   0  0  0  0  0  0  0  0  0  0  0  0
    2.2693   -8.3990    4.2234 H   0  0  0  0  0  0  0  0  0  0  0  0
    0.8052   -8.0978    3.3111 H   0  0  0  0  0  0  0  0  0  0  0  0
    2.1577   -8.3819    1.1795 H   0  0  0  0  0  0  0  0  0  0  0  0
    4.4544   -8.8493    0.6167 H   0  0  0  0  0  0  0  0  0  0  0  0
    5.7550   -8.1031    2.7894 H   0  0  0  0  0  0  0  0  0  0  0  0
    6.2055   -7.3208    1.2953 H   0  0  0  0  0  0  0  0  0  0  0  0
    6.1454   -4.6853    4.0015 H   0  0  0  0  0  0  0  0  0  0  0  0
    7.1841   -5.7897    3.1164 H   0  0  0  0  0  0  0  0  0  0  0  0
    6.2322   -6.3772    4.4571 H   0  0  0  0  0  0  0  0  0  0  0  0
    4.1724   -5.3031    0.8014 H   0  0  0  0  0  0  0  0  0  0  0  0
    6.9610   -4.3256    1.3989 H   0  0  0  0  0  0  0  0  0  0  0  0
    6.4099   -5.2686    0.0213 H   0  0  0  0  0  0  0  0  0  0  0  0
    6.5387   -1.3117   -0.6512 H   0  0  0  0  0  0  0  0  0  0  0  0
    8.3380   -3.4241   -0.2869 H   0  0  0  0  0  0  0  0  0  0  0  0
    6.3683   -2.2799   -2.7534 H   0  0  0  0  0  0  0  0  0  0  0  0
    7.0334   -3.8435   -2.2017 H   0  0  0  0  0  0  0  0  0  0  0  0
    4.8936   -4.4277   -1.5587 H   0  0  0  0  0  0  0  0  0  0  0  0
    2.7722   -1.7160   -3.4584 H   0  0  0  0  0  0  0  0  0  0  0  0
    3.8807   -3.0135   -3.8692 H   0  0  0  0  0  0  0  0  0  0  0  0
    4.4854   -1.4106   -3.4471 H   0  0  0  0  0  0  0  0  0  0  0  0
    1.6127   -2.8555   -1.5574 H   0  0  0  0  0  0  0  0  0  0  0  0
    2.5281   -3.8833   -0.4631 H   0  0  0  0  0  0  0  0  0  0  0  0
    2.4007   -4.2515   -2.1672 H   0  0  0  0  0  0  0  0  0  0  0  0
    4.5675   -0.6575   -1.0712 H   0  0  0  0  0  0  0  0  0  0  0  0
    2.8617   -0.7122   -1.1506 H   0  0  0  0  0  0  0  0  0  0  0  0
    3.6124   -0.6773    1.1858 H   0  0  0  0  0  0  0  0  0  0  0  0
    2.7090   -2.1020    0.8725 H   0  0  0  0  0  0  0  0  0  0  0  0
    6.0981   -0.7118    1.4847 H   0  0  0  0  0  0  0  0  0  0  0  0
    6.6032   -2.1090    2.4207 H   0  0  0  0  0  0  0  0  0  0  0  0
    5.1969   -1.1766    2.9123 H   0  0  0  0  0  0  0  0  0  0  0  0
    3.3562   -2.5932    3.5909 H   0  0  0  0  0  0  0  0  0  0  0  0
    3.9556   -4.6379    5.0007 H   0  0  0  0  0  0  0  0  0  0  0  0
    2.3245   -4.7300    4.4343 H   0  0  0  0  0  0  0  0  0  0  0  0
    3.9454   -6.7967    4.2851 H   0  0  0  0  0  0  0  0  0  0  0  0
  1  2  1  0
  1 27  1  0
  1 28  1  0
  1 29  1  0
  2 26  1  0
  2  3  1  0
  2  4  1  0
  3 30  1  0
  3 31  1  0
  3 32  1  0
  4  5  2  0
  4 33  1  0
  5  6  1  0
  5 34  1  0
  6  7  1  0
  6 35  1  0
  6 36  1  0
  7 26  1  0
  7  8  1  1
  7  9  1  0
  8 37  1  0
  8 38  1  0
  8 39  1  0
  9 23  1  0
  9 10  1  0
  9 40  1  6
 11 10  1  1
 10 41  1  0
 10 42  1  0
 11 15  1  0
 11 21  1  0
 11 12  1  0
 12 13  1  0
 12 14  1  0
 12 43  1  6
 13 44  1  0
 14 15  1  0
 14 45  1  0
 14 46  1  0
 15 16  1  0
 15 47  1  1
 16 17  1  0
 16 18  1  0
 16 19  1  0
 17 48  1  0
 17 49  1  0
 17 50  1  0
 18 51  1  0
 18 52  1  0
 18 53  1  0
 19 20  1  0
 19 54  1  0
 19 55  1  0
 20 21  1  0
 20 56  1  0
 20 57  1  0
 21 22  1  1
 21 23  1  0
 22 58  1  0
 22 59  1  0
 22 60  1  0
 23 24  2  0
 24 25  1  0
 24 61  1  0
 25 26  1  0
 25 62  1  0
 25 63  1  0
 26 64  1  1
M  END
>  <i_m_ct_stereo_status>  (153) 
1

>  <s_m_source_file>  (153) 
/var/tmp/pbs.5076255.sched01/tmpar858yha/42b8svm9_t.sdf

>  <i_m_source_file_index>  (153) 
17

>  <i_lp_mmshare_version>  (153) 
48012

>  <i_f3d_flags>  (153) 
0

>  <s_epik_input>  (153) 
W0NIMl0xW0NIXT1bQ0hdQyhbQ0gzXSkoW0NIM10pW0NASF0oW0NIMl1bQ0hdMilbQ0BdMShbQ0gzXSlbQ0BIXShbQ0gyXTMpQz0yW0NAXTQoW0NIM10pW0NIMl1bQ0gyXUMoW0NIM10pKFtDSDNdKVtDQEhdKFtDQF0zNDUpW0NIMl1bQ0BASF01W09IXQ==

>  <s_epik_cmdline>  (153) 
J2VwaWtfcHl0aG9uJywgJy1waHQnLCAnMi4wJywgJy1waCcsICc3LjAnLCAnLXRuJywgJzgnLCAnLW1hJywgJzIwMCcsICctaW1hZScsICc8aW5maWxlLm1hZT4nLCAnLW9tYWUnLCAnPG91dGZpbGUubWFlPic=

>  <r_lp_tautomer_probability>  (153) 
1

>  <r_epik_Ionization_Penalty>  (153) 
3.27847e-06

>  <r_epik_Ionization_Penalty_Charging>  (153) 
0

>  <r_epik_Ionization_Penalty_Neutral>  (153) 
3.27847e-06

>  <r_epik_State_Penalty>  (153) 
-0

>  <r_epik_Charging_Adjusted_Penalty>  (153) 
0

>  <i_epik_Tot_Q>  (153) 
0

>  <i_epik_Tot_abs_Q>  (153) 
0

>  <s_lp_Force_Field>  (153) 
OPLS3e

>  <r_lp_Energy>  (153) 
56.4925

>  <b_lp_Chiralities_Consistent>  (153) 
1

>  <s_lp_Variant>  (153) 
42:0-1

>  <s_i_glide_gridfile>  (153) 
pfpi4k_grid

>  <i_i_glide_lignum>  (153) 
17

>  <i_i_glide_rotatable_bonds>  (153) 
1

>  <r_i_docking_score>  (153) 
-3.08271

>  <r_i_glide_ligand_efficiency>  (153) 
-0.118566

>  <r_i_glide_ligand_efficiency_sa>  (153) 
-0.35125

>  <r_i_glide_ligand_efficiency_ln>  (153) 
-0.723964

>  <r_i_glide_gscore>  (153) 
-3.08271

>  <r_i_glide_lipo>  (153) 
-0.729283

>  <r_i_glide_hbond>  (153) 
-0.00615848

>  <r_i_glide_metal>  (153) 
-0

>  <r_i_glide_rewards>  (153) 
-0.991578

>  <r_i_glide_evdw>  (153) 
-25.5048

>  <r_i_glide_ecoul>  (153) 
-0.536329

>  <r_i_glide_erotb>  (153) 
0

>  <r_i_glide_esite>  (153) 
0

>  <r_i_glide_emodel>  (153) 
-30.725

>  <r_i_glide_energy>  (153) 
-26.0411

>  <r_i_glide_einternal>  (153) 
0.0288677

>  <r_i_glide_intrahb_reward>  (153) 
-0

>  <i_i_glide_confnum>  (153) 
2

>  <i_i_glide_posenum>  (153) 
28

>  <r_i_glide_eff_state_penalty>  (153) 
0

>  <ligand_id>  (153) 
42

>  <original_smiles>  (153) 
CC1(C)C=CCC2(C)C3CC45C(O)CC4C(C)(C)CCC5(C)C3=CCC12

>  <smiles>  (153) 
[H]OC1([H])C([H])([H])C2([H])C(C([H])([H])[H])(C([H])([H])[H])C([H])([H])C([H])([H])C3(C([H])([H])[H])C4=C([H])C([H])([H])C5([H])C(C([H])([H])[H])(C([H])([H])[H])C([H])=C([H])C([H])([H])C5(C([H])([H])[H])C4([H])C([H])([H])C123

$$$$
42:0:2
     RDKit          3D

 64 68  0  0  1  0  0  0  0  0999 V2000
    3.6153   -2.0146   -1.3222 C   0  0  0  0  0  0  0  0  0  0  0  0
    4.8361   -2.9595   -1.4019 C   0  0  0  0  0  0  0  0  0  0  0  0
    4.8969   -3.5383   -2.8315 C   0  0  0  0  0  0  0  0  0  0  0  0
    6.0742   -2.0966   -1.2340 C   0  0  0  0  0  0  0  0  0  0  0  0
    7.0253   -2.2815   -0.3041 C   0  0  0  0  0  0  0  0  0  0  0  0
    6.9837   -3.3935    0.7073 C   0  0  0  0  0  0  0  0  0  0  0  0
    5.5609   -3.9218    0.9884 C   0  0  1  0  0  0  0  0  0  0  0  0
    5.7489   -5.2818    1.7144 C   0  0  0  0  0  0  0  0  0  0  0  0
    4.7370   -2.9129    1.8567 C   0  0  2  0  0  0  0  0  0  0  0  0
    5.1297   -2.6785    3.3058 C   0  0  0  0  0  0  0  0  0  0  0  0
    3.9129   -1.9954    3.9537 C   0  0  1  0  0  0  0  0  0  0  0  0
    3.9452   -1.8403    5.4939 C   0  0  1  0  0  0  0  0  0  0  0  0
    4.7365   -2.7363    6.2383 O   0  0  0  0  0  0  0  0  0  0  0  0
    4.4712   -0.4266    5.3246 C   0  0  0  0  0  0  0  0  0  0  0  0
    3.9416   -0.4338    3.8807 C   0  0  2  0  0  0  0  0  0  0  0  0
    2.6532    0.3342    3.4860 C   0  0  0  0  0  0  0  0  0  0  0  0
    2.5268    1.6851    4.2184 C   0  0  0  0  0  0  0  0  0  0  0  0
    2.6635    0.6312    1.9702 C   0  0  0  0  0  0  0  0  0  0  0  0
    1.4227   -0.5329    3.8155 C   0  0  0  0  0  0  0  0  0  0  0  0
    1.4432   -1.8839    3.0755 C   0  0  0  0  0  0  0  0  0  0  0  0
    2.7110   -2.7607    3.3114 C   0  0  2  0  0  0  0  0  0  0  0  0
    2.3052   -3.9755    4.1782 C   0  0  0  0  0  0  0  0  0  0  0  0
    3.2870   -3.2858    1.9916 C   0  0  0  0  0  0  0  0  0  0  0  0
    2.6868   -4.1174    1.1254 C   0  0  0  0  0  0  0  0  0  0  0  0
    3.3735   -4.7093   -0.0927 C   0  0  0  0  0  0  0  0  0  0  0  0
    4.7995   -4.1508   -0.3593 C   0  0  1  0  0  0  0  0  0  0  0  0
    2.6753   -2.5092   -1.5729 H   0  0  0  0  0  0  0  0  0  0  0  0
    3.7130   -1.1800   -2.0182 H   0  0  0  0  0  0  0  0  0  0  0  0
    3.4947   -1.5792   -0.3342 H   0  0  0  0  0  0  0  0  0  0  0  0
    4.0470   -4.1874   -3.0421 H   0  0  0  0  0  0  0  0  0  0  0  0
    5.8001   -4.1322   -2.9754 H   0  0  0  0  0  0  0  0  0  0  0  0
    4.9029   -2.7521   -3.5886 H   0  0  0  0  0  0  0  0  0  0  0  0
    6.1624   -1.2873   -1.9408 H   0  0  0  0  0  0  0  0  0  0  0  0
    7.8907   -1.6409   -0.2624 H   0  0  0  0  0  0  0  0  0  0  0  0
    7.6278   -4.1872    0.3259 H   0  0  0  0  0  0  0  0  0  0  0  0
    7.4175   -3.0517    1.6415 H   0  0  0  0  0  0  0  0  0  0  0  0
    4.8110   -5.6979    2.0815 H   0  0  0  0  0  0  0  0  0  0  0  0
    6.4193   -5.1937    2.5689 H   0  0  0  0  0  0  0  0  0  0  0  0
    6.1918   -6.0259    1.0486 H   0  0  0  0  0  0  0  0  0  0  0  0
    4.7640   -1.9352    1.3794 H   0  0  0  0  0  0  0  0  0  0  0  0
    5.3470   -3.6196    3.8147 H   0  0  0  0  0  0  0  0  0  0  0  0
    6.0245   -2.0630    3.3568 H   0  0  0  0  0  0  0  0  0  0  0  0
    2.9483   -1.8037    5.9355 H   0  0  0  0  0  0  0  0  0  0  0  0
    4.2243   -3.5219    6.3460 H   0  0  0  0  0  0  0  0  0  0  0  0
    4.0205    0.2931    6.0066 H   0  0  0  0  0  0  0  0  0  0  0  0
    5.5595   -0.3826    5.3763 H   0  0  0  0  0  0  0  0  0  0  0  0
    4.7702   -0.1045    3.2502 H   0  0  0  0  0  0  0  0  0  0  0  0
    1.6848    2.2563    3.8270 H   0  0  0  0  0  0  0  0  0  0  0  0
    3.4202    2.2929    4.0913 H   0  0  0  0  0  0  0  0  0  0  0  0
    2.3494    1.5582    5.2829 H   0  0  0  0  0  0  0  0  0  0  0  0
    1.6970    1.0137    1.6338 H   0  0  0  0  0  0  0  0  0  0  0  0
    2.8830   -0.2548    1.3798 H   0  0  0  0  0  0  0  0  0  0  0  0
    3.4158    1.3709    1.7116 H   0  0  0  0  0  0  0  0  0  0  0  0
    1.3722   -0.7028    4.8910 H   0  0  0  0  0  0  0  0  0  0  0  0
    0.5078    0.0096    3.5683 H   0  0  0  0  0  0  0  0  0  0  0  0
    0.5500   -2.4362    3.3673 H   0  0  0  0  0  0  0  0  0  0  0  0
    1.3074   -1.6993    2.0081 H   0  0  0  0  0  0  0  0  0  0  0  0
    1.8719   -3.6572    5.1254 H   0  0  0  0  0  0  0  0  0  0  0  0
    3.1595   -4.6169    4.3968 H   0  0  0  0  0  0  0  0  0  0  0  0
    1.5554   -4.5889    3.6792 H   0  0  0  0  0  0  0  0  0  0  0  0
    1.6833   -4.4444    1.3104 H   0  0  0  0  0  0  0  0  0  0  0  0
    3.4477   -5.7800    0.0900 H   0  0  0  0  0  0  0  0  0  0  0  0
    2.7343   -4.6080   -0.9665 H   0  0  0  0  0  0  0  0  0  0  0  0
    5.3405   -4.9624   -0.8507 H   0  0  0  0  0  0  0  0  0  0  0  0
  1  2  1  0
  1 27  1  0
  1 28  1  0
  1 29  1  0
  2 26  1  0
  2  3  1  0
  2  4  1  0
  3 30  1  0
  3 31  1  0
  3 32  1  0
  4  5  2  0
  4 33  1  0
  5  6  1  0
  5 34  1  0
  6  7  1  0
  6 35  1  0
  6 36  1  0
  7 26  1  0
  7  8  1  1
  7  9  1  0
  8 37  1  0
  8 38  1  0
  8 39  1  0
  9 23  1  0
  9 10  1  0
  9 40  1  6
 11 10  1  6
 10 41  1  0
 10 42  1  0
 11 15  1  0
 11 21  1  0
 11 12  1  0
 12 13  1  0
 12 14  1  0
 12 43  1  1
 13 44  1  0
 14 15  1  0
 14 45  1  0
 14 46  1  0
 15 16  1  0
 15 47  1  6
 16 17  1  0
 16 18  1  0
 16 19  1  0
 17 48  1  0
 17 49  1  0
 17 50  1  0
 18 51  1  0
 18 52  1  0
 18 53  1  0
 19 20  1  0
 19 54  1  0
 19 55  1  0
 20 21  1  0
 20 56  1  0
 20 57  1  0
 21 22  1  1
 21 23  1  0
 22 58  1  0
 22 59  1  0
 22 60  1  0
 23 24  2  0
 24 25  1  0
 24 61  1  0
 25 26  1  0
 25 62  1  0
 25 63  1  0
 26 64  1  6
M  END
>  <i_m_ct_stereo_status>  (154) 
1

>  <s_m_source_file>  (154) 
/var/tmp/pbs.5076255.sched01/tmpar858yha/42b8svm9_t.sdf

>  <i_m_source_file_index>  (154) 
17

>  <i_lp_mmshare_version>  (154) 
48012

>  <i_f3d_flags>  (154) 
0

>  <s_epik_input>  (154) 
W0NIMl0xW0NIXT1bQ0hdQyhbQ0gzXSkoW0NIM10pW0NASF0oW0NIMl1bQ0hdMilbQ0BdMShbQ0gzXSlbQ0BIXShbQ0gyXTMpQz0yW0NAXTQoW0NIM10pW0NIMl1bQ0gyXUMoW0NIM10pKFtDSDNdKVtDQEhdKFtDQF0zNDUpW0NIMl1bQ0BASF01W09IXQ==

>  <s_epik_cmdline>  (154) 
J2VwaWtfcHl0aG9uJywgJy1waHQnLCAnMi4wJywgJy1waCcsICc3LjAnLCAnLXRuJywgJzgnLCAnLW1hJywgJzIwMCcsICctaW1hZScsICc8aW5maWxlLm1hZT4nLCAnLW9tYWUnLCAnPG91dGZpbGUubWFlPic=

>  <r_lp_tautomer_probability>  (154) 
1

>  <r_epik_Ionization_Penalty>  (154) 
3.27847e-06

>  <r_epik_Ionization_Penalty_Charging>  (154) 
0

>  <r_epik_Ionization_Penalty_Neutral>  (154) 
3.27847e-06

>  <r_epik_State_Penalty>  (154) 
-0

>  <r_epik_Charging_Adjusted_Penalty>  (154) 
0

>  <i_epik_Tot_Q>  (154) 
0

>  <i_epik_Tot_abs_Q>  (154) 
0

>  <s_lp_Force_Field>  (154) 
OPLS3e

>  <r_lp_Energy>  (154) 
56.4925

>  <b_lp_Chiralities_Consistent>  (154) 
1

>  <s_lp_Variant>  (154) 
42:0-1

>  <s_i_glide_gridfile>  (154) 
pfpi4k_grid

>  <i_i_glide_lignum>  (154) 
17

>  <i_i_glide_rotatable_bonds>  (154) 
1

>  <r_i_docking_score>  (154) 
-2.66008

>  <r_i_glide_ligand_efficiency>  (154) 
-0.102311

>  <r_i_glide_ligand_efficiency_sa>  (154) 
-0.303096

>  <r_i_glide_ligand_efficiency_ln>  (154) 
-0.624712

>  <r_i_glide_gscore>  (154) 
-2.66008

>  <r_i_glide_lipo>  (154) 
-0.490734

>  <r_i_glide_hbond>  (154) 
0

>  <r_i_glide_metal>  (154) 
-0

>  <r_i_glide_rewards>  (154) 
-0.991578

>  <r_i_glide_evdw>  (154) 
-23.8227

>  <r_i_glide_ecoul>  (154) 
0.0890679

>  <r_i_glide_erotb>  (154) 
0

>  <r_i_glide_esite>  (154) 
0

>  <r_i_glide_emodel>  (154) 
-27.174

>  <r_i_glide_energy>  (154) 
-23.7336

>  <r_i_glide_einternal>  (154) 
1.23162

>  <r_i_glide_intrahb_reward>  (154) 
-0

>  <i_i_glide_confnum>  (154) 
2

>  <i_i_glide_posenum>  (154) 
35

>  <r_i_glide_eff_state_penalty>  (154) 
0

>  <ligand_id>  (154) 
42

>  <original_smiles>  (154) 
CC1(C)C=CCC2(C)C3CC45C(O)CC4C(C)(C)CCC5(C)C3=CCC12

>  <smiles>  (154) 
[H]OC1([H])C([H])([H])C2([H])C(C([H])([H])[H])(C([H])([H])[H])C([H])([H])C([H])([H])C3(C([H])([H])[H])C4=C([H])C([H])([H])C5([H])C(C([H])([H])[H])(C([H])([H])[H])C([H])=C([H])C([H])([H])C5(C([H])([H])[H])C4([H])C([H])([H])C123

$$$$
43:0:0
     RDKit          3D

 60 65  0  0  1  0  0  0  0  0999 V2000
   -0.5240   -3.0641    6.5444 C   0  0  0  0  0  0  0  0  0  0  0  0
    0.2231   -3.6911    5.3518 C   0  0  2  0  0  0  0  0  0  0  0  0
    0.9284   -4.9750    5.8106 C   0  0  0  0  0  0  0  0  0  0  0  0
    1.6906   -5.6264    4.6552 C   0  0  0  0  0  0  0  0  0  0  0  0
    2.6101   -4.6885    4.1183 O   0  0  0  0  0  0  0  0  0  0  0  0
    2.0000   -3.5319    3.5525 C   0  0  2  0  0  0  0  0  0  0  0  0
    3.1433   -2.8276    2.7820 C   0  0  0  0  0  0  0  0  0  0  0  0
    4.0987   -1.9650    3.6292 C   0  0  0  0  0  0  0  0  0  0  0  0
    4.0992   -0.4397    3.3308 C   0  0  1  0  0  0  0  0  0  0  0  0
    5.2303    0.1883    4.1878 C   0  0  0  0  0  0  0  0  0  0  0  0
    4.6101   -0.2620    2.0269 O   0  0  0  0  0  0  0  0  0  0  0  0
    2.7642    0.3792    3.6116 C   0  0  2  0  0  0  0  0  0  0  0  0
    2.2778    0.2539    5.0782 C   0  0  0  0  0  0  0  0  0  0  0  0
    0.8199   -0.2340    5.2317 C   0  0  2  0  0  0  0  0  0  0  0  0
    0.5715   -1.3946    4.2248 C   0  0  1  0  0  0  0  0  0  0  0  0
    0.9287   -1.0491    2.8914 O   0  0  0  0  0  0  0  0  0  0  0  0
    1.5650    0.1556    2.5868 C   0  0  2  0  0  0  0  0  0  0  0  0
    2.0942    0.0861    1.2762 O   0  0  0  0  0  0  0  0  0  0  0  0
    0.5085    1.3244    2.5432 C   0  0  1  0  0  0  0  0  0  0  0  0
   -0.5990    0.9638    1.7446 O   0  0  0  0  0  0  0  0  0  0  0  0
    0.0281    1.8809    3.9009 C   0  0  1  0  0  0  0  0  0  0  0  0
    0.6976    3.2528    4.1497 C   0  0  0  0  0  0  0  0  0  0  0  0
   -1.5225    1.9131    4.0705 C   0  0  0  0  0  0  0  0  0  0  0  0
   -2.0510    2.6888    5.0435 C   0  0  0  0  0  0  0  0  0  0  0  0
   -1.5277    2.5159    6.3228 O   0  0  0  0  0  0  0  0  0  0  0  0
   -0.4812    1.6038    6.4667 C   0  0  0  0  0  0  0  0  0  0  0  0
    0.0972    1.4122    7.5366 O   0  0  0  0  0  0  0  0  0  0  0  0
   -0.1455    0.9378    5.0991 C   0  0  2  0  0  0  0  0  0  0  0  0
   -1.4116    0.5907    4.5792 O   0  0  0  0  0  0  0  0  0  0  0  0
    1.2414   -2.7392    4.6685 C   0  0  1  0  0  0  0  0  0  0  0  0
    0.1725   -2.7244    7.3128 H   0  0  0  0  0  0  0  0  0  0  0  0
   -1.1968   -3.7894    7.0053 H   0  0  0  0  0  0  0  0  0  0  0  0
   -1.1354   -2.2149    6.2394 H   0  0  0  0  0  0  0  0  0  0  0  0
   -0.5246   -3.9742    4.6160 H   0  0  0  0  0  0  0  0  0  0  0  0
    1.6267   -4.7553    6.6187 H   0  0  0  0  0  0  0  0  0  0  0  0
    0.2029   -5.6894    6.2032 H   0  0  0  0  0  0  0  0  0  0  0  0
    2.2471   -6.4921    5.0198 H   0  0  0  0  0  0  0  0  0  0  0  0
    1.0103   -5.9894    3.8826 H   0  0  0  0  0  0  0  0  0  0  0  0
    1.2770   -3.8797    2.8120 H   0  0  0  0  0  0  0  0  0  0  0  0
    3.7345   -3.6011    2.2888 H   0  0  0  0  0  0  0  0  0  0  0  0
    2.7536   -2.2650    1.9398 H   0  0  0  0  0  0  0  0  0  0  0  0
    3.9709   -2.1641    4.6894 H   0  0  0  0  0  0  0  0  0  0  0  0
    5.1067   -2.3341    3.4308 H   0  0  0  0  0  0  0  0  0  0  0  0
    5.0712    0.0593    5.2608 H   0  0  0  0  0  0  0  0  0  0  0  0
    5.3117    1.2635    4.0198 H   0  0  0  0  0  0  0  0  0  0  0  0
    6.2048   -0.2492    3.9536 H   0  0  0  0  0  0  0  0  0  0  0  0
    3.8716   -0.3653    1.4388 H   0  0  0  0  0  0  0  0  0  0  0  0
    3.0512    1.4190    3.4387 H   0  0  0  0  0  0  0  0  0  0  0  0
    2.9157   -0.4307    5.6257 H   0  0  0  0  0  0  0  0  0  0  0  0
    2.4067    1.2129    5.5788 H   0  0  0  0  0  0  0  0  0  0  0  0
    0.7306   -0.6528    6.2389 H   0  0  0  0  0  0  0  0  0  0  0  0
   -0.5028   -1.5870    4.1510 H   0  0  0  0  0  0  0  0  0  0  0  0
    1.4178   -0.2265    0.6735 H   0  0  0  0  0  0  0  0  0  0  0  0
    0.9918    2.1376    2.0026 H   0  0  0  0  0  0  0  0  0  0  0  0
   -0.3914    0.9437    0.8094 H   0  0  0  0  0  0  0  0  0  0  0  0
    1.7787    3.1235    4.2441 H   0  0  0  0  0  0  0  0  0  0  0  0
    0.3953    3.7545    5.0698 H   0  0  0  0  0  0  0  0  0  0  0  0
    0.5415    3.9512    3.3264 H   0  0  0  0  0  0  0  0  0  0  0  0
   -2.5007    3.6656    4.8905 H   0  0  0  0  0  0  0  0  0  0  0  0
    1.9809   -2.5022    5.4300 H   0  0  0  0  0  0  0  0  0  0  0  0
  1  2  1  0
  1 31  1  0
  1 32  1  0
  1 33  1  0
  2 30  1  0
  2  3  1  0
  2 34  1  6
  3  4  1  0
  3 35  1  0
  3 36  1  0
  4  5  1  0
  4 37  1  0
  4 38  1  0
  5  6  1  0
  6 30  1  0
  6  7  1  0
  6 39  1  6
  7  8  1  0
  7 40  1  0
  7 41  1  0
  8  9  1  0
  8 42  1  0
  8 43  1  0
  9 10  1  0
  9 11  1  6
  9 12  1  0
 10 44  1  0
 10 45  1  0
 10 46  1  0
 11 47  1  0
 12 17  1  0
 12 13  1  0
 12 48  1  1
 13 14  1  0
 13 49  1  0
 13 50  1  0
 14 28  1  0
 14 15  1  0
 14 51  1  1
 15 16  1  0
 15 30  1  0
 15 52  1  6
 16 17  1  0
 17 18  1  6
 17 19  1  0
 18 53  1  0
 19 20  1  0
 19 21  1  0
 19 54  1  6
 20 55  1  0
 21 28  1  0
 21 22  1  1
 21 23  1  0
 22 56  1  0
 22 57  1  0
 22 58  1  0
 23 29  1  0
 23 24  2  0
 24 25  1  0
 24 59  1  0
 25 26  1  0
 26 27  2  0
 26 28  1  0
 28 29  1  6
 30 60  1  1
M  END
>  <i_m_ct_stereo_status>  (155) 
1

>  <s_m_source_file>  (155) 
/var/tmp/pbs.5076255.sched01/tmpar858yha/42b8svm9_t.sdf

>  <i_m_source_file_index>  (155) 
18

>  <i_lp_mmshare_version>  (155) 
48012

>  <i_f3d_flags>  (155) 
0

>  <s_epik_input>  (155) 
W0NIM11bQ0BASF0xW0NIMl1bQ0gyXU9bQ0BASF0oW0NASF0xW0NASF0yW0NAQEhdM1tDQF00NTYpW0NIMl1bQ0gyXVtDQEBdKFtDSDNdKShbT0hdKVtDQEhdKFtDSDJdMylbQ0BdKE8yKShbT0hdKVtDQEBIXShbT0hdKVtDQEBdNChbQ0gzXSlDKE82KT1bQ0hdT0M1PU8=

>  <s_epik_cmdline>  (155) 
J2VwaWtfcHl0aG9uJywgJy1waHQnLCAnMi4wJywgJy1waCcsICc3LjAnLCAnLXRuJywgJzgnLCAnLW1hJywgJzIwMCcsICctaW1hZScsICc8aW5maWxlLm1hZT4nLCAnLW9tYWUnLCAnPG91dGZpbGUubWFlPic=

>  <r_lp_tautomer_probability>  (155) 
1

>  <r_epik_Ionization_Penalty>  (155) 
0.000103762

>  <r_epik_Ionization_Penalty_Charging>  (155) 
0

>  <r_epik_Ionization_Penalty_Neutral>  (155) 
0.000103762

>  <r_epik_State_Penalty>  (155) 
-0

>  <r_epik_Charging_Adjusted_Penalty>  (155) 
0

>  <i_epik_Tot_Q>  (155) 
0

>  <i_epik_Tot_abs_Q>  (155) 
0

>  <s_lp_Force_Field>  (155) 
OPLS3e

>  <r_lp_Energy>  (155) 
139.148

>  <b_lp_Chiralities_Consistent>  (155) 
1

>  <s_lp_Variant>  (155) 
43:0-1

>  <s_i_glide_gridfile>  (155) 
pfpi4k_grid

>  <i_i_glide_lignum>  (155) 
18

>  <i_i_glide_rotatable_bonds>  (155) 
3

>  <r_i_docking_score>  (155) 
-2.96778

>  <r_i_glide_ligand_efficiency>  (155) 
-0.098926

>  <r_i_glide_ligand_efficiency_sa>  (155) 
-0.307386

>  <r_i_glide_ligand_efficiency_ln>  (155) 
-0.674312

>  <r_i_glide_gscore>  (155) 
-2.96778

>  <r_i_glide_lipo>  (155) 
-0.134071

>  <r_i_glide_hbond>  (155) 
0

>  <r_i_glide_metal>  (155) 
-0

>  <r_i_glide_rewards>  (155) 
-1.02862

>  <r_i_glide_evdw>  (155) 
-19.2133

>  <r_i_glide_ecoul>  (155) 
-5.39116

>  <r_i_glide_erotb>  (155) 
0

>  <r_i_glide_esite>  (155) 
-0.0357473

>  <r_i_glide_emodel>  (155) 
-34.1357

>  <r_i_glide_energy>  (155) 
-24.6045

>  <r_i_glide_einternal>  (155) 
0.93661

>  <r_i_glide_intrahb_reward>  (155) 
-0.5

>  <i_i_glide_confnum>  (155) 
1

>  <i_i_glide_posenum>  (155) 
15

>  <r_i_glide_eff_state_penalty>  (155) 
0

>  <ligand_id>  (155) 
43

>  <original_smiles>  (155) 
CC1CCOC2CCC(C)(O)C3CC4C(OC3(O)C(O)C3(C)C5=COC(=O)C43O5)C12

>  <smiles>  (155) 
[H]OC1([H])C2(O[H])OC3([H])C([H])(C([H])([H])C2([H])C(O[H])(C([H])([H])[H])C([H])([H])C([H])([H])C2([H])OC([H])([H])C([H])([H])C([H])(C([H])([H])[H])C23[H])C23OC(=C([H])OC2=O)C13C([H])([H])[H]

$$$$
43:0:1
     RDKit          3D

 60 65  0  0  1  0  0  0  0  0999 V2000
   -1.1898   -2.5437    6.0149 C   0  0  0  0  0  0  0  0  0  0  0  0
    0.0519   -3.1185    5.2970 C   0  0  2  0  0  0  0  0  0  0  0  0
    0.5125   -4.3864    6.0305 C   0  0  0  0  0  0  0  0  0  0  0  0
    1.7608   -4.9804    5.3758 C   0  0  0  0  0  0  0  0  0  0  0  0
    2.7785   -3.9923    5.3507 O   0  0  0  0  0  0  0  0  0  0  0  0
    2.4609   -2.8519    4.5556 C   0  0  2  0  0  0  0  0  0  0  0  0
    3.7984   -2.0873    4.4264 C   0  0  0  0  0  0  0  0  0  0  0  0
    4.1994   -1.2097    5.6298 C   0  0  0  0  0  0  0  0  0  0  0  0
    4.2735    0.3227    5.3674 C   0  0  1  0  0  0  0  0  0  0  0  0
    4.8415    0.9803    6.6575 C   0  0  0  0  0  0  0  0  0  0  0  0
    5.3244    0.5481    4.4542 O   0  0  0  0  0  0  0  0  0  0  0  0
    2.9301    1.0813    4.9703 C   0  0  2  0  0  0  0  0  0  0  0  0
    1.8136    0.9021    6.0366 C   0  0  0  0  0  0  0  0  0  0  0  0
    0.4880    0.3544    5.4825 C   0  0  2  0  0  0  0  0  0  0  0  0
    0.7894   -0.7881    4.4759 C   0  0  1  0  0  0  0  0  0  0  0  0
    1.6993   -0.3925    3.4569 O   0  0  0  0  0  0  0  0  0  0  0  0
    2.3556    0.8328    3.5003 C   0  0  2  0  0  0  0  0  0  0  0  0
    3.4216    0.8142    2.5575 O   0  0  0  0  0  0  0  0  0  0  0  0
    1.4002    1.9730    2.9697 C   0  0  1  0  0  0  0  0  0  0  0  0
    0.8791    1.6462    1.6938 O   0  0  0  0  0  0  0  0  0  0  0  0
    0.3099    2.4787    3.9367 C   0  0  1  0  0  0  0  0  0  0  0  0
    0.7303    3.8671    4.4755 C   0  0  0  0  0  0  0  0  0  0  0  0
   -1.1428    2.4329    3.3425 C   0  0  0  0  0  0  0  0  0  0  0  0
   -2.0886    3.1657    3.9560 C   0  0  0  0  0  0  0  0  0  0  0  0
   -2.2057    3.0033    5.3375 O   0  0  0  0  0  0  0  0  0  0  0  0
   -1.3297    2.1090    5.9560 C   0  0  0  0  0  0  0  0  0  0  0  0
   -1.3409    1.9039    7.1817 O   0  0  0  0  0  0  0  0  0  0  0  0
   -0.3591    1.4914    4.9009 C   0  0  2  0  0  0  0  0  0  0  0  0
   -1.1879    1.0971    3.8253 O   0  0  0  0  0  0  0  0  0  0  0  0
    1.2310   -2.1136    5.1811 C   0  0  1  0  0  0  0  0  0  0  0  0
   -0.9164   -2.1691    6.9977 H   0  0  0  0  0  0  0  0  0  0  0  0
   -1.9614   -3.2963    6.1828 H   0  0  0  0  0  0  0  0  0  0  0  0
   -1.6405   -1.7292    5.4456 H   0  0  0  0  0  0  0  0  0  0  0  0
   -0.2319   -3.4131    4.2881 H   0  0  0  0  0  0  0  0  0  0  0  0
    0.7318   -4.1576    7.0723 H   0  0  0  0  0  0  0  0  0  0  0  0
   -0.2802   -5.1354    6.0310 H   0  0  0  0  0  0  0  0  0  0  0  0
    2.1131   -5.8339    5.9592 H   0  0  0  0  0  0  0  0  0  0  0  0
    1.5449   -5.3466    4.3704 H   0  0  0  0  0  0  0  0  0  0  0  0
    2.1931   -3.2068    3.5559 H   0  0  0  0  0  0  0  0  0  0  0  0
    4.5867   -2.8250    4.2725 H   0  0  0  0  0  0  0  0  0  0  0  0
    3.8293   -1.5194    3.5037 H   0  0  0  0  0  0  0  0  0  0  0  0
    3.5939   -1.4396    6.5016 H   0  0  0  0  0  0  0  0  0  0  0  0
    5.1955   -1.5355    5.9310 H   0  0  0  0  0  0  0  0  0  0  0  0
    4.1922    0.8264    7.5212 H   0  0  0  0  0  0  0  0  0  0  0  0
    4.9714    2.0578    6.5273 H   0  0  0  0  0  0  0  0  0  0  0  0
    5.8197    0.5670    6.9159 H   0  0  0  0  0  0  0  0  0  0  0  0
    5.0223    0.2505    3.6135 H   0  0  0  0  0  0  0  0  0  0  0  0
    3.2188    2.1368    4.9670 H   0  0  0  0  0  0  0  0  0  0  0  0
    2.1474    0.2334    6.8233 H   0  0  0  0  0  0  0  0  0  0  0  0
    1.6484    1.8547    6.5457 H   0  0  0  0  0  0  0  0  0  0  0  0
   -0.0518   -0.0840    6.3210 H   0  0  0  0  0  0  0  0  0  0  0  0
   -0.1133   -1.0160    3.9056 H   0  0  0  0  0  0  0  0  0  0  0  0
    3.7263    1.6941    2.4357 H   0  0  0  0  0  0  0  0  0  0  0  0
    2.0529    2.8098    2.7426 H   0  0  0  0  0  0  0  0  0  0  0  0
    0.4907    2.4153    1.3037 H   0  0  0  0  0  0  0  0  0  0  0  0
    1.6463    3.7755    5.0699 H   0  0  0  0  0  0  0  0  0  0  0  0
    0.0071    4.3307    5.1394 H   0  0  0  0  0  0  0  0  0  0  0  0
    0.9451    4.5733    3.6786 H   0  0  0  0  0  0  0  0  0  0  0  0
   -2.4328    4.1357    3.6024 H   0  0  0  0  0  0  0  0  0  0  0  0
    1.5053   -1.8666    6.2060 H   0  0  0  0  0  0  0  0  0  0  0  0
  1  2  1  0
  1 31  1  0
  1 32  1  0
  1 33  1  0
  2 30  1  0
  2  3  1  0
  2 34  1  6
  3  4  1  0
  3 35  1  0
  3 36  1  0
  4  5  1  0
  4 37  1  0
  4 38  1  0
  5  6  1  0
  6 30  1  0
  6  7  1  0
  6 39  1  6
  7  8  1  0
  7 40  1  0
  7 41  1  0
  8  9  1  0
  8 42  1  0
  8 43  1  0
  9 10  1  0
  9 11  1  6
  9 12  1  0
 10 44  1  0
 10 45  1  0
 10 46  1  0
 11 47  1  0
 12 17  1  0
 12 13  1  0
 12 48  1  6
 13 14  1  0
 13 49  1  0
 13 50  1  0
 14 28  1  0
 14 15  1  0
 14 51  1  1
 15 16  1  0
 15 30  1  0
 15 52  1  6
 16 17  1  0
 17 18  1  6
 17 19  1  0
 18 53  1  0
 19 20  1  0
 19 21  1  0
 19 54  1  6
 20 55  1  0
 21 28  1  0
 21 22  1  1
 21 23  1  0
 22 56  1  0
 22 57  1  0
 22 58  1  0
 23 29  1  0
 23 24  2  0
 24 25  1  0
 24 59  1  0
 25 26  1  0
 26 27  2  0
 26 28  1  0
 28 29  1  6
 30 60  1  1
M  END
>  <i_m_ct_stereo_status>  (156) 
1

>  <s_m_source_file>  (156) 
/var/tmp/pbs.5076255.sched01/tmpar858yha/42b8svm9_t.sdf

>  <i_m_source_file_index>  (156) 
18

>  <i_lp_mmshare_version>  (156) 
48012

>  <i_f3d_flags>  (156) 
0

>  <s_epik_input>  (156) 
W0NIM11bQ0BASF0xW0NIMl1bQ0gyXU9bQ0BASF0oW0NASF0xW0NASF0yW0NAQEhdM1tDQF00NTYpW0NIMl1bQ0gyXVtDQEBdKFtDSDNdKShbT0hdKVtDQEhdKFtDSDJdMylbQ0BdKE8yKShbT0hdKVtDQEBIXShbT0hdKVtDQEBdNChbQ0gzXSlDKE82KT1bQ0hdT0M1PU8=

>  <s_epik_cmdline>  (156) 
J2VwaWtfcHl0aG9uJywgJy1waHQnLCAnMi4wJywgJy1waCcsICc3LjAnLCAnLXRuJywgJzgnLCAnLW1hJywgJzIwMCcsICctaW1hZScsICc8aW5maWxlLm1hZT4nLCAnLW9tYWUnLCAnPG91dGZpbGUubWFlPic=

>  <r_lp_tautomer_probability>  (156) 
1

>  <r_epik_Ionization_Penalty>  (156) 
0.000103762

>  <r_epik_Ionization_Penalty_Charging>  (156) 
0

>  <r_epik_Ionization_Penalty_Neutral>  (156) 
0.000103762

>  <r_epik_State_Penalty>  (156) 
-0

>  <r_epik_Charging_Adjusted_Penalty>  (156) 
0

>  <i_epik_Tot_Q>  (156) 
0

>  <i_epik_Tot_abs_Q>  (156) 
0

>  <s_lp_Force_Field>  (156) 
OPLS3e

>  <r_lp_Energy>  (156) 
139.148

>  <b_lp_Chiralities_Consistent>  (156) 
1

>  <s_lp_Variant>  (156) 
43:0-1

>  <s_i_glide_gridfile>  (156) 
pfpi4k_grid

>  <i_i_glide_lignum>  (156) 
18

>  <i_i_glide_rotatable_bonds>  (156) 
3

>  <r_i_docking_score>  (156) 
-2.53869

>  <r_i_glide_ligand_efficiency>  (156) 
-0.084623

>  <r_i_glide_ligand_efficiency_sa>  (156) 
-0.262943

>  <r_i_glide_ligand_efficiency_ln>  (156) 
-0.576818

>  <r_i_glide_gscore>  (156) 
-2.53869

>  <r_i_glide_lipo>  (156) 
-0.010468

>  <r_i_glide_hbond>  (156) 
0

>  <r_i_glide_metal>  (156) 
-0

>  <r_i_glide_rewards>  (156) 
-1.02862

>  <r_i_glide_evdw>  (156) 
-19.9347

>  <r_i_glide_ecoul>  (156) 
-3.28179

>  <r_i_glide_erotb>  (156) 
0

>  <r_i_glide_esite>  (156) 
-0.010595

>  <r_i_glide_emodel>  (156) 
-31.5903

>  <r_i_glide_energy>  (156) 
-23.2165

>  <r_i_glide_einternal>  (156) 
2.017

>  <r_i_glide_intrahb_reward>  (156) 
-0.5

>  <i_i_glide_confnum>  (156) 
1

>  <i_i_glide_posenum>  (156) 
2

>  <r_i_glide_eff_state_penalty>  (156) 
0

>  <ligand_id>  (156) 
43

>  <original_smiles>  (156) 
CC1CCOC2CCC(C)(O)C3CC4C(OC3(O)C(O)C3(C)C5=COC(=O)C43O5)C12

>  <smiles>  (156) 
[H]OC1([H])C2(O[H])OC3([H])C([H])(C([H])([H])C2([H])C(O[H])(C([H])([H])[H])C([H])([H])C([H])([H])C2([H])OC([H])([H])C([H])([H])C([H])(C([H])([H])[H])C23[H])C23OC(=C([H])OC2=O)C13C([H])([H])[H]

$$$$
43:0:2
     RDKit          3D

 60 65  0  0  1  0  0  0  0  0999 V2000
   -0.2055   -6.5522    4.7445 C   0  0  0  0  0  0  0  0  0  0  0  0
    0.1096   -7.6563    3.7179 C   0  0  2  0  0  0  0  0  0  0  0  0
   -0.2713   -9.0211    4.3058 C   0  0  0  0  0  0  0  0  0  0  0  0
    0.0344  -10.1529    3.3270 C   0  0  0  0  0  0  0  0  0  0  0  0
    1.4089  -10.1048    2.9822 O   0  0  0  0  0  0  0  0  0  0  0  0
    1.7927   -8.9127    2.3043 C   0  0  2  0  0  0  0  0  0  0  0  0
    3.2120   -9.2213    1.7785 C   0  0  0  0  0  0  0  0  0  0  0  0
    4.3596   -9.0812    2.7915 C   0  0  0  0  0  0  0  0  0  0  0  0
    5.4071   -7.9751    2.4908 C   0  0  1  0  0  0  0  0  0  0  0  0
    6.5415   -8.1113    3.5370 C   0  0  0  0  0  0  0  0  0  0  0  0
    6.0478   -8.3415    1.2829 O   0  0  0  0  0  0  0  0  0  0  0  0
    4.9089   -6.4632    2.4948 C   0  0  2  0  0  0  0  0  0  0  0  0
    4.2598   -6.0488    3.8506 C   0  0  0  0  0  0  0  0  0  0  0  0
    2.8417   -5.4605    3.7132 C   0  0  2  0  0  0  0  0  0  0  0  0
    2.0406   -6.3007    2.6887 C   0  0  1  0  0  0  0  0  0  0  0  0
    2.6994   -6.4199    1.4333 O   0  0  0  0  0  0  0  0  0  0  0  0
    4.0222   -5.9849    1.2615 C   0  0  2  0  0  0  0  0  0  0  0  0
    4.5327   -6.5086    0.0628 O   0  0  0  0  0  0  0  0  0  0  0  0
    4.0233   -4.4375    1.0193 C   0  0  1  0  0  0  0  0  0  0  0  0
    3.1503   -4.0895   -0.0389 O   0  0  0  0  0  0  0  0  0  0  0  0
    3.8324   -3.5121    2.2514 C   0  0  1  0  0  0  0  0  0  0  0  0
    5.1982   -2.8888    2.6213 C   0  0  0  0  0  0  0  0  0  0  0  0
    2.6739   -2.4856    2.1084 C   0  0  0  0  0  0  0  0  0  0  0  0
    2.6583   -1.4254    2.9734 C   0  0  0  0  0  0  0  0  0  0  0  0
    2.7633   -1.7382    4.3188 O   0  0  0  0  0  0  0  0  0  0  0  0
    2.9133   -3.0796    4.6763 C   0  0  0  0  0  0  0  0  0  0  0  0
    3.0757   -3.4532    5.8359 O   0  0  0  0  0  0  0  0  0  0  0  0
    2.9199   -3.9771    3.4000 C   0  0  2  0  0  0  0  0  0  0  0  0
    1.8248   -3.4950    2.6151 O   0  0  0  0  0  0  0  0  0  0  0  0
    1.5917   -7.6864    3.2514 C   0  0  1  0  0  0  0  0  0  0  0  0
    0.4211   -6.6510    5.6323 H   0  0  0  0  0  0  0  0  0  0  0  0
   -1.2463   -6.6077    5.0685 H   0  0  0  0  0  0  0  0  0  0  0  0
   -0.0537   -5.5529    4.3362 H   0  0  0  0  0  0  0  0  0  0  0  0
   -0.5285   -7.4884    2.8492 H   0  0  0  0  0  0  0  0  0  0  0  0
    0.2675   -9.2019    5.2363 H   0  0  0  0  0  0  0  0  0  0  0  0
   -1.3334   -9.0471    4.5493 H   0  0  0  0  0  0  0  0  0  0  0  0
   -0.1746  -11.1111    3.8043 H   0  0  0  0  0  0  0  0  0  0  0  0
   -0.5957  -10.0931    2.4371 H   0  0  0  0  0  0  0  0  0  0  0  0
    1.1458   -8.7907    1.4367 H   0  0  0  0  0  0  0  0  0  0  0  0
    3.2082  -10.2505    1.4122 H   0  0  0  0  0  0  0  0  0  0  0  0
    3.4166   -8.6567    0.8758 H   0  0  0  0  0  0  0  0  0  0  0  0
    3.9828   -9.0083    3.8083 H   0  0  0  0  0  0  0  0  0  0  0  0
    4.8851  -10.0369    2.7954 H   0  0  0  0  0  0  0  0  0  0  0  0
    6.1809   -7.9546    4.5572 H   0  0  0  0  0  0  0  0  0  0  0  0
    7.3436   -7.3877    3.3648 H   0  0  0  0  0  0  0  0  0  0  0  0
    6.9951   -9.1043    3.5196 H   0  0  0  0  0  0  0  0  0  0  0  0
    6.3535   -9.2392    1.3778 H   0  0  0  0  0  0  0  0  0  0  0  0
    5.8326   -5.8807    2.3859 H   0  0  0  0  0  0  0  0  0  0  0  0
    4.2061   -6.9033    4.5128 H   0  0  0  0  0  0  0  0  0  0  0  0
    4.9139   -5.3454    4.3633 H   0  0  0  0  0  0  0  0  0  0  0  0
    2.3563   -5.5843    4.6857 H   0  0  0  0  0  0  0  0  0  0  0  0
    1.1317   -5.7595    2.4161 H   0  0  0  0  0  0  0  0  0  0  0  0
    4.7465   -7.4210    0.2244 H   0  0  0  0  0  0  0  0  0  0  0  0
    5.0035   -4.2145    0.5974 H   0  0  0  0  0  0  0  0  0  0  0  0
    3.3396   -4.6811   -0.7643 H   0  0  0  0  0  0  0  0  0  0  0  0
    5.8882   -3.6718    2.9210 H   0  0  0  0  0  0  0  0  0  0  0  0
    5.1635   -2.1970    3.4606 H   0  0  0  0  0  0  0  0  0  0  0  0
    5.6550   -2.3600    1.7858 H   0  0  0  0  0  0  0  0  0  0  0  0
    3.0035   -0.4311    2.7191 H   0  0  0  0  0  0  0  0  0  0  0  0
    2.1767   -7.8837    4.1475 H   0  0  0  0  0  0  0  0  0  0  0  0
  1  2  1  0
  1 31  1  0
  1 32  1  0
  1 33  1  0
  2 30  1  0
  2  3  1  0
  2 34  1  6
  3  4  1  0
  3 35  1  0
  3 36  1  0
  4  5  1  0
  4 37  1  0
  4 38  1  0
  5  6  1  0
  6 30  1  0
  6  7  1  0
  6 39  1  6
  7  8  1  0
  7 40  1  0
  7 41  1  0
  8  9  1  0
  8 42  1  0
  8 43  1  0
  9 10  1  0
  9 11  1  6
  9 12  1  0
 10 44  1  0
 10 45  1  0
 10 46  1  0
 11 47  1  0
 12 17  1  0
 12 13  1  0
 12 48  1  6
 13 14  1  0
 13 49  1  0
 13 50  1  0
 14 28  1  0
 14 15  1  0
 14 51  1  1
 15 16  1  0
 15 30  1  0
 15 52  1  6
 16 17  1  0
 17 18  1  6
 17 19  1  0
 18 53  1  0
 19 20  1  0
 19 21  1  0
 19 54  1  6
 20 55  1  0
 21 28  1  0
 21 22  1  1
 21 23  1  0
 22 56  1  0
 22 57  1  0
 22 58  1  0
 23 29  1  0
 23 24  2  0
 24 25  1  0
 24 59  1  0
 25 26  1  0
 26 27  2  0
 26 28  1  0
 28 29  1  6
 30 60  1  1
M  END
>  <i_m_ct_stereo_status>  (157) 
1

>  <s_m_source_file>  (157) 
/var/tmp/pbs.5076255.sched01/tmpar858yha/42b8svm9_t.sdf

>  <i_m_source_file_index>  (157) 
18

>  <i_lp_mmshare_version>  (157) 
48012

>  <i_f3d_flags>  (157) 
0

>  <s_epik_input>  (157) 
W0NIM11bQ0BASF0xW0NIMl1bQ0gyXU9bQ0BASF0oW0NASF0xW0NASF0yW0NAQEhdM1tDQF00NTYpW0NIMl1bQ0gyXVtDQEBdKFtDSDNdKShbT0hdKVtDQEhdKFtDSDJdMylbQ0BdKE8yKShbT0hdKVtDQEBIXShbT0hdKVtDQEBdNChbQ0gzXSlDKE82KT1bQ0hdT0M1PU8=

>  <s_epik_cmdline>  (157) 
J2VwaWtfcHl0aG9uJywgJy1waHQnLCAnMi4wJywgJy1waCcsICc3LjAnLCAnLXRuJywgJzgnLCAnLW1hJywgJzIwMCcsICctaW1hZScsICc8aW5maWxlLm1hZT4nLCAnLW9tYWUnLCAnPG91dGZpbGUubWFlPic=

>  <r_lp_tautomer_probability>  (157) 
1

>  <r_epik_Ionization_Penalty>  (157) 
0.000103762

>  <r_epik_Ionization_Penalty_Charging>  (157) 
0

>  <r_epik_Ionization_Penalty_Neutral>  (157) 
0.000103762

>  <r_epik_State_Penalty>  (157) 
-0

>  <r_epik_Charging_Adjusted_Penalty>  (157) 
0

>  <i_epik_Tot_Q>  (157) 
0

>  <i_epik_Tot_abs_Q>  (157) 
0

>  <s_lp_Force_Field>  (157) 
OPLS3e

>  <r_lp_Energy>  (157) 
139.148

>  <b_lp_Chiralities_Consistent>  (157) 
1

>  <s_lp_Variant>  (157) 
43:0-1

>  <s_i_glide_gridfile>  (157) 
pfpi4k_grid

>  <i_i_glide_lignum>  (157) 
18

>  <i_i_glide_rotatable_bonds>  (157) 
3

>  <r_i_docking_score>  (157) 
-2.19056

>  <r_i_glide_ligand_efficiency>  (157) 
-0.0730185

>  <r_i_glide_ligand_efficiency_sa>  (157) 
-0.226886

>  <r_i_glide_ligand_efficiency_ln>  (157) 
-0.497718

>  <r_i_glide_gscore>  (157) 
-2.19056

>  <r_i_glide_lipo>  (157) 
-0.10288

>  <r_i_glide_hbond>  (157) 
0

>  <r_i_glide_metal>  (157) 
-0

>  <r_i_glide_rewards>  (157) 
-1.10326

>  <r_i_glide_evdw>  (157) 
-20.8851

>  <r_i_glide_ecoul>  (157) 
0.398924

>  <r_i_glide_erotb>  (157) 
0

>  <r_i_glide_esite>  (157) 
0

>  <r_i_glide_emodel>  (157) 
-28.9688

>  <r_i_glide_energy>  (157) 
-20.4862

>  <r_i_glide_einternal>  (157) 
0.402506

>  <r_i_glide_intrahb_reward>  (157) 
-0.5

>  <i_i_glide_confnum>  (157) 
1

>  <i_i_glide_posenum>  (157) 
3

>  <r_i_glide_eff_state_penalty>  (157) 
0

>  <ligand_id>  (157) 
43

>  <original_smiles>  (157) 
CC1CCOC2CCC(C)(O)C3CC4C(OC3(O)C(O)C3(C)C5=COC(=O)C43O5)C12

>  <smiles>  (157) 
[H]OC1([H])C2(O[H])OC3([H])C([H])(C([H])([H])C2([H])C(O[H])(C([H])([H])[H])C([H])([H])C([H])([H])C2([H])OC([H])([H])C([H])([H])C([H])(C([H])([H])[H])C23[H])C23OC(=C([H])OC2=O)C13C([H])([H])[H]

$$$$
44:0:0
     RDKit          3D

 65 68  0  0  1  0  0  0  0  0999 V2000
    4.4090   -2.2924   -3.2616 C   0  0  0  0  0  0  0  0  0  0  0  0
    3.7180   -1.7117   -2.0192 C   0  0  0  0  0  0  0  0  0  0  0  0
    3.3048   -2.7820   -0.9974 C   0  0  0  0  0  0  0  0  0  0  0  0
    4.4914   -3.4478   -0.2705 C   0  0  0  0  0  0  0  0  0  0  0  0
    4.0742   -4.5169    0.7587 C   0  0  0  0  0  0  0  0  0  0  0  0
    3.4446   -5.7628    0.1149 C   0  0  0  0  0  0  0  0  0  0  0  0
    2.9472   -6.6687    1.0885 O   0  0  0  0  0  0  0  0  0  0  0  0
    1.6189   -6.8103    1.2889 C   0  0  0  0  0  0  0  0  0  0  0  0
    0.6975   -6.2567    0.6568 O   0  0  0  0  0  0  0  0  0  0  0  0
    1.4688   -7.5900    2.3551 O   0  0  0  0  0  0  0  0  0  0  0  0
    0.3064   -7.4024    3.1091 C   0  0  2  0  0  0  0  0  0  0  0  0
    0.2158   -6.1307    3.7188 O   0  0  0  0  0  0  0  0  0  0  0  0
    1.2832   -5.8142    4.5829 C   0  0  1  0  0  0  0  0  0  0  0  0
    1.1562   -4.4845    5.0209 O   0  0  0  0  0  0  0  0  0  0  0  0
    0.4085   -4.3200    6.2157 C   0  0  2  0  0  0  0  0  0  0  0  0
   -0.3702   -3.0075    6.1026 C   0  0  0  0  0  0  0  0  0  0  0  0
    1.3659   -4.2868    7.4269 C   0  0  0  0  0  0  0  0  0  0  0  0
    2.6736   -5.0513    7.1902 C   0  0  0  0  0  0  0  0  0  0  0  0
    2.5390   -6.5348    6.7704 C   0  0  2  0  0  0  0  0  0  0  0  0
    3.8925   -7.1299    6.2963 C   0  0  1  0  0  0  0  0  0  0  0  0
    5.0017   -6.9690    7.3539 C   0  0  0  0  0  0  0  0  0  0  0  0
    3.7512   -8.6165    5.9320 C   0  0  0  0  0  0  0  0  0  0  0  0
    2.7021   -8.8075    4.8418 C   0  0  0  0  0  0  0  0  0  0  0  0
    1.3170   -8.2661    5.2698 C   0  0  2  0  0  0  0  0  0  0  0  0
    0.2064   -8.4770    4.1986 C   0  0  1  0  0  0  0  0  0  0  0  0
   -1.2304   -8.4417    4.7809 C   0  0  0  0  0  0  0  0  0  0  0  0
    1.3380   -6.8068    5.8021 C   0  0  2  0  0  0  0  0  0  0  0  0
    0.2106   -6.6444    6.6706 O   0  0  0  0  0  0  0  0  0  0  0  0
   -0.5339   -5.3636    6.3753 O   0  0  0  0  0  0  0  0  0  0  0  0
    4.6455   -1.5039   -3.9742 H   0  0  0  0  0  0  0  0  0  0  0  0
    3.7599   -3.0093   -3.7654 H   0  0  0  0  0  0  0  0  0  0  0  0
    5.3375   -2.8053   -3.0138 H   0  0  0  0  0  0  0  0  0  0  0  0
    4.3478   -0.9582   -1.5440 H   0  0  0  0  0  0  0  0  0  0  0  0
    2.8158   -1.1872   -2.3394 H   0  0  0  0  0  0  0  0  0  0  0  0
    2.6532   -2.3155   -0.2564 H   0  0  0  0  0  0  0  0  0  0  0  0
    2.6863   -3.5173   -1.5135 H   0  0  0  0  0  0  0  0  0  0  0  0
    5.1840   -3.8976   -0.9797 H   0  0  0  0  0  0  0  0  0  0  0  0
    5.0532   -2.6678    0.2472 H   0  0  0  0  0  0  0  0  0  0  0  0
    4.9600   -4.8157    1.3222 H   0  0  0  0  0  0  0  0  0  0  0  0
    3.3912   -4.0718    1.4806 H   0  0  0  0  0  0  0  0  0  0  0  0
    2.6557   -5.4567   -0.5769 H   0  0  0  0  0  0  0  0  0  0  0  0
    4.1983   -6.2781   -0.4879 H   0  0  0  0  0  0  0  0  0  0  0  0
   -0.5399   -7.5027    2.4349 H   0  0  0  0  0  0  0  0  0  0  0  0
    2.2235   -5.8398    4.0287 H   0  0  0  0  0  0  0  0  0  0  0  0
   -1.0324   -3.0099    5.2388 H   0  0  0  0  0  0  0  0  0  0  0  0
    0.3007   -2.1558    5.9864 H   0  0  0  0  0  0  0  0  0  0  0  0
   -0.9741   -2.8426    6.9931 H   0  0  0  0  0  0  0  0  0  0  0  0
    1.6485   -3.2599    7.6638 H   0  0  0  0  0  0  0  0  0  0  0  0
    0.8536   -4.6635    8.3105 H   0  0  0  0  0  0  0  0  0  0  0  0
    3.2460   -4.5164    6.4301 H   0  0  0  0  0  0  0  0  0  0  0  0
    3.2396   -4.9782    8.1171 H   0  0  0  0  0  0  0  0  0  0  0  0
    2.3016   -7.0875    7.6848 H   0  0  0  0  0  0  0  0  0  0  0  0
    4.1913   -6.5933    5.3946 H   0  0  0  0  0  0  0  0  0  0  0  0
    4.6964   -7.4080    8.3025 H   0  0  0  0  0  0  0  0  0  0  0  0
    5.2495   -5.9249    7.5422 H   0  0  0  0  0  0  0  0  0  0  0  0
    5.9252   -7.4622    7.0527 H   0  0  0  0  0  0  0  0  0  0  0  0
    4.7031   -8.9925    5.5537 H   0  0  0  0  0  0  0  0  0  0  0  0
    3.5002   -9.2189    6.8083 H   0  0  0  0  0  0  0  0  0  0  0  0
    3.1071   -8.3164    3.9592 H   0  0  0  0  0  0  0  0  0  0  0  0
    2.6261   -9.8677    4.5929 H   0  0  0  0  0  0  0  0  0  0  0  0
    1.0527   -8.8934    6.1165 H   0  0  0  0  0  0  0  0  0  0  0  0
    0.3527   -9.4605    3.7290 H   0  0  0  0  0  0  0  0  0  0  0  0
   -1.5235   -7.4262    5.0557 H   0  0  0  0  0  0  0  0  0  0  0  0
   -1.3064   -9.0520    5.6672 H   0  0  0  0  0  0  0  0  0  0  0  0
   -1.9817   -8.8035    4.0723 H   0  0  0  0  0  0  0  0  0  0  0  0
  1  2  1  0
  1 30  1  0
  1 31  1  0
  1 32  1  0
  2  3  1  0
  2 33  1  0
  2 34  1  0
  3  4  1  0
  3 35  1  0
  3 36  1  0
  4  5  1  0
  4 37  1  0
  4 38  1  0
  5  6  1  0
  5 39  1  0
  5 40  1  0
  6  7  1  0
  6 41  1  0
  6 42  1  0
  7  8  1  0
  8  9  2  0
  8 10  1  0
 10 11  1  0
 11 25  1  0
 11 12  1  0
 11 43  1  6
 12 13  1  0
 13 27  1  0
 13 14  1  0
 13 44  1  6
 14 15  1  0
 15 29  1  0
 15 16  1  6
 15 17  1  0
 16 45  1  0
 16 46  1  0
 16 47  1  0
 17 18  1  0
 17 48  1  0
 17 49  1  0
 18 19  1  0
 18 50  1  0
 18 51  1  0
 19 27  1  0
 19 20  1  0
 19 52  1  1
 20 21  1  0
 20 22  1  0
 20 53  1  6
 21 54  1  0
 21 55  1  0
 21 56  1  0
 22 23  1  0
 22 57  1  0
 22 58  1  0
 23 24  1  0
 23 59  1  0
 23 60  1  0
 24 25  1  0
 24 27  1  0
 24 61  1  1
 25 26  1  0
 25 62  1  6
 26 63  1  0
 26 64  1  0
 26 65  1  0
 27 28  1  1
 28 29  1  0
M  END
>  <i_m_ct_stereo_status>  (158) 
1

>  <s_m_source_file>  (158) 
/var/tmp/pbs.5076255.sched01/tmpar858yha/42b8svm9_t.sdf

>  <i_m_source_file_index>  (158) 
19

>  <i_lp_mmshare_version>  (158) 
48012

>  <i_f3d_flags>  (158) 
0

>  <s_epik_input>  (158) 
W0NIM11bQ0gyXVtDSDJdW0NIMl1bQ0gyXVtDSDJdT0MoPU8pT1tDQEhdKE9bQ0BASF0xW0NAXTIzNClbQ0BIXShbQ0gzXSlbQ0BIXTNbQ0gyXVtDSDJdW0NASF0oW0NIM10pW0NASF0yW0NIMl1bQ0gyXVtDQF0oTzEpKFtDSDNdKU9PNA==

>  <s_epik_cmdline>  (158) 
J2VwaWtfcHl0aG9uJywgJy1waHQnLCAnMi4wJywgJy1waCcsICc3LjAnLCAnLXRuJywgJzgnLCAnLW1hJywgJzIwMCcsICctaW1hZScsICc8aW5maWxlLm1hZT4nLCAnLW9tYWUnLCAnPG91dGZpbGUubWFlPic=

>  <r_lp_tautomer_probability>  (158) 
1

>  <r_epik_Ionization_Penalty>  (158) 
1.05247e-15

>  <r_epik_Ionization_Penalty_Charging>  (158) 
0

>  <r_epik_Ionization_Penalty_Neutral>  (158) 
1.05247e-15

>  <r_epik_State_Penalty>  (158) 
-0

>  <r_epik_Charging_Adjusted_Penalty>  (158) 
0

>  <i_epik_Tot_Q>  (158) 
0

>  <i_epik_Tot_abs_Q>  (158) 
0

>  <s_epik_Chemistry_Notes>  (158) 
This compound has an ester and may undergo hydrolysis at high or low pH. This compound contains an acetal/aminal-like group ( X-CH(R)-Y where X, Y are N, S, or O) that may be acid/base labile, releasing an aldehyde. This is carbonic acid which has a microscopic pka value of about 3.8 however its equilibrium with CO2 as a lewis acid yields a pKa of about 6.35.

>  <s_lp_Force_Field>  (158) 
OPLS3e

>  <r_lp_Energy>  (158) 
43.1049

>  <b_lp_Chiralities_Consistent>  (158) 
1

>  <s_lp_Variant>  (158) 
44:0-1

>  <s_i_glide_gridfile>  (158) 
pfpi4k_grid

>  <i_i_glide_lignum>  (158) 
19

>  <i_i_glide_rotatable_bonds>  (158) 
8

>  <r_i_docking_score>  (158) 
-1.94803

>  <r_i_glide_ligand_efficiency>  (158) 
-0.0671736

>  <r_i_glide_ligand_efficiency_sa>  (158) 
-0.206379

>  <r_i_glide_ligand_efficiency_ln>  (158) 
-0.44605

>  <r_i_glide_gscore>  (158) 
-1.94803

>  <r_i_glide_lipo>  (158) 
-0.182813

>  <r_i_glide_hbond>  (158) 
-0.18443

>  <r_i_glide_metal>  (158) 
-0

>  <r_i_glide_rewards>  (158) 
-0.596475

>  <r_i_glide_evdw>  (158) 
-21.3453

>  <r_i_glide_ecoul>  (158) 
-4.23125

>  <r_i_glide_erotb>  (158) 
0.811174

>  <r_i_glide_esite>  (158) 
-0.0935406

>  <r_i_glide_emodel>  (158) 
-26.0259

>  <r_i_glide_energy>  (158) 
-25.5765

>  <r_i_glide_einternal>  (158) 
4.00133

>  <r_i_glide_intrahb_reward>  (158) 
-0

>  <i_i_glide_confnum>  (158) 
9

>  <i_i_glide_posenum>  (158) 
40

>  <r_i_glide_eff_state_penalty>  (158) 
0

>  <ligand_id>  (158) 
44

>  <original_smiles>  (158) 
CCCCCCOC(=O)OC1OC2OC3(C)CCC4C(C)CCC(C1C)C24OO3

>  <smiles>  (158) 
[H]C([H])([H])C([H])([H])C([H])([H])C([H])([H])C([H])([H])C([H])([H])OC(=O)OC1([H])OC2([H])OC3(C([H])([H])[H])OOC24C([H])(C([H])([H])C([H])([H])C([H])(C([H])([H])[H])C4([H])C([H])([H])C3([H])[H])C1([H])C([H])([H])[H]

$$$$
44:0:1
     RDKit          3D

 65 68  0  0  1  0  0  0  0  0999 V2000
    1.6118    3.5331    3.6773 C   0  0  0  0  0  0  0  0  0  0  0  0
    1.6851    2.5548    2.4988 C   0  0  0  0  0  0  0  0  0  0  0  0
    2.3640    1.2258    2.8652 C   0  0  0  0  0  0  0  0  0  0  0  0
    2.4203    0.2342    1.6896 C   0  0  0  0  0  0  0  0  0  0  0  0
    2.9935   -1.1388    2.0877 C   0  0  0  0  0  0  0  0  0  0  0  0
    2.9984   -2.1607    0.9343 C   0  0  0  0  0  0  0  0  0  0  0  0
    3.5051   -3.4123    1.3881 O   0  0  0  0  0  0  0  0  0  0  0  0
    3.0575   -4.5584    0.8235 C   0  0  0  0  0  0  0  0  0  0  0  0
    2.2142   -4.6623   -0.0684 O   0  0  0  0  0  0  0  0  0  0  0  0
    3.6559   -5.5657    1.4760 O   0  0  0  0  0  0  0  0  0  0  0  0
    3.1779   -6.8681    1.2152 C   0  0  2  0  0  0  0  0  0  0  0  0
    1.7910   -7.0569    1.4548 O   0  0  0  0  0  0  0  0  0  0  0  0
    1.3789   -6.8424    2.7809 C   0  0  1  0  0  0  0  0  0  0  0  0
   -0.0172   -6.9561    2.8600 O   0  0  0  0  0  0  0  0  0  0  0  0
   -0.4930   -8.2688    3.1411 C   0  0  2  0  0  0  0  0  0  0  0  0
   -1.7897   -8.4919    2.3644 C   0  0  0  0  0  0  0  0  0  0  0  0
   -0.7253   -8.4145    4.6594 C   0  0  0  0  0  0  0  0  0  0  0  0
    0.1677   -7.4889    5.5028 C   0  0  0  0  0  0  0  0  0  0  0  0
    1.6924   -7.6089    5.2725 C   0  0  2  0  0  0  0  0  0  0  0  0
    2.4796   -6.4585    5.9556 C   0  0  1  0  0  0  0  0  0  0  0  0
    2.1727   -6.3589    7.4637 C   0  0  0  0  0  0  0  0  0  0  0  0
    3.9923   -6.6176    5.7560 C   0  0  0  0  0  0  0  0  0  0  0  0
    4.3389   -6.6526    4.2672 C   0  0  0  0  0  0  0  0  0  0  0  0
    3.6173   -7.8113    3.5305 C   0  0  2  0  0  0  0  0  0  0  0  0
    3.9728   -7.9046    2.0182 C   0  0  1  0  0  0  0  0  0  0  0  0
    3.7334   -9.3212    1.4043 C   0  0  0  0  0  0  0  0  0  0  0  0
    2.0854   -7.8455    3.7698 C   0  0  2  0  0  0  0  0  0  0  0  0
    1.6534   -9.1954    3.5624 O   0  0  0  0  0  0  0  0  0  0  0  0
    0.4233   -9.2507    2.6956 O   0  0  0  0  0  0  0  0  0  0  0  0
    1.1195    4.4580    3.3719 H   0  0  0  0  0  0  0  0  0  0  0  0
    2.6075    3.7899    4.0403 H   0  0  0  0  0  0  0  0  0  0  0  0
    1.0451    3.1132    4.5093 H   0  0  0  0  0  0  0  0  0  0  0  0
    0.6743    2.3639    2.1355 H   0  0  0  0  0  0  0  0  0  0  0  0
    2.2132    3.0350    1.6798 H   0  0  0  0  0  0  0  0  0  0  0  0
    3.3741    1.4226    3.2288 H   0  0  0  0  0  0  0  0  0  0  0  0
    1.8214    0.7733    3.6964 H   0  0  0  0  0  0  0  0  0  0  0  0
    1.4150    0.0982    1.2866 H   0  0  0  0  0  0  0  0  0  0  0  0
    3.0171    0.6609    0.8827 H   0  0  0  0  0  0  0  0  0  0  0  0
    4.0062   -1.0088    2.4740 H   0  0  0  0  0  0  0  0  0  0  0  0
    2.3988   -1.5396    2.9095 H   0  0  0  0  0  0  0  0  0  0  0  0
    1.9780   -2.2578    0.5466 H   0  0  0  0  0  0  0  0  0  0  0  0
    3.6201   -1.8026    0.1094 H   0  0  0  0  0  0  0  0  0  0  0  0
    3.3628   -7.0325    0.1607 H   0  0  0  0  0  0  0  0  0  0  0  0
    1.6058   -5.8112    3.0704 H   0  0  0  0  0  0  0  0  0  0  0  0
   -1.6136   -8.4144    1.2909 H   0  0  0  0  0  0  0  0  0  0  0  0
   -2.5558   -7.7613    2.6356 H   0  0  0  0  0  0  0  0  0  0  0  0
   -2.1967   -9.4846    2.5612 H   0  0  0  0  0  0  0  0  0  0  0  0
   -1.7642   -8.1752    4.9002 H   0  0  0  0  0  0  0  0  0  0  0  0
   -0.5839   -9.4505    4.9561 H   0  0  0  0  0  0  0  0  0  0  0  0
   -0.1432   -6.4581    5.3237 H   0  0  0  0  0  0  0  0  0  0  0  0
   -0.0652   -7.7155    6.5411 H   0  0  0  0  0  0  0  0  0  0  0  0
    2.0087   -8.5141    5.8008 H   0  0  0  0  0  0  0  0  0  0  0  0
    2.1803   -5.5258    5.4763 H   0  0  0  0  0  0  0  0  0  0  0  0
    2.3680   -7.3095    7.9600 H   0  0  0  0  0  0  0  0  0  0  0  0
    1.1335   -6.0957    7.6624 H   0  0  0  0  0  0  0  0  0  0  0  0
    2.7898   -5.6059    7.9585 H   0  0  0  0  0  0  0  0  0  0  0  0
    4.5152   -5.7699    6.2012 H   0  0  0  0  0  0  0  0  0  0  0  0
    4.3684   -7.5123    6.2529 H   0  0  0  0  0  0  0  0  0  0  0  0
    4.0832   -5.6701    3.8739 H   0  0  0  0  0  0  0  0  0  0  0  0
    5.4184   -6.7562    4.1505 H   0  0  0  0  0  0  0  0  0  0  0  0
    4.0154   -8.7006    4.0070 H   0  0  0  0  0  0  0  0  0  0  0  0
    5.0379   -7.6766    1.9027 H   0  0  0  0  0  0  0  0  0  0  0  0
    2.6667   -9.5504    1.2797 H   0  0  0  0  0  0  0  0  0  0  0  0
    4.1458  -10.1168    2.0184 H   0  0  0  0  0  0  0  0  0  0  0  0
    4.1909   -9.4345    0.4107 H   0  0  0  0  0  0  0  0  0  0  0  0
  1  2  1  0
  1 30  1  0
  1 31  1  0
  1 32  1  0
  2  3  1  0
  2 33  1  0
  2 34  1  0
  3  4  1  0
  3 35  1  0
  3 36  1  0
  4  5  1  0
  4 37  1  0
  4 38  1  0
  5  6  1  0
  5 39  1  0
  5 40  1  0
  6  7  1  0
  6 41  1  0
  6 42  1  0
  7  8  1  0
  8  9  2  0
  8 10  1  0
 10 11  1  0
 11 25  1  0
 11 12  1  0
 11 43  1  6
 12 13  1  0
 13 27  1  0
 13 14  1  0
 13 44  1  1
 14 15  1  0
 15 29  1  0
 15 16  1  6
 15 17  1  0
 16 45  1  0
 16 46  1  0
 16 47  1  0
 17 18  1  0
 17 48  1  0
 17 49  1  0
 18 19  1  0
 18 50  1  0
 18 51  1  0
 19 27  1  0
 19 20  1  0
 19 52  1  1
 20 21  1  0
 20 22  1  0
 20 53  1  6
 21 54  1  0
 21 55  1  0
 21 56  1  0
 22 23  1  0
 22 57  1  0
 22 58  1  0
 23 24  1  0
 23 59  1  0
 23 60  1  0
 24 25  1  0
 24 27  1  0
 24 61  1  1
 25 26  1  0
 25 62  1  1
 26 63  1  0
 26 64  1  0
 26 65  1  0
 27 28  1  6
 28 29  1  0
M  END
>  <i_m_ct_stereo_status>  (159) 
1

>  <s_m_source_file>  (159) 
/var/tmp/pbs.5076255.sched01/tmpar858yha/42b8svm9_t.sdf

>  <i_m_source_file_index>  (159) 
19

>  <i_lp_mmshare_version>  (159) 
48012

>  <i_f3d_flags>  (159) 
0

>  <s_epik_input>  (159) 
W0NIM11bQ0gyXVtDSDJdW0NIMl1bQ0gyXVtDSDJdT0MoPU8pT1tDQEhdKE9bQ0BASF0xW0NAXTIzNClbQ0BIXShbQ0gzXSlbQ0BIXTNbQ0gyXVtDSDJdW0NASF0oW0NIM10pW0NASF0yW0NIMl1bQ0gyXVtDQF0oTzEpKFtDSDNdKU9PNA==

>  <s_epik_cmdline>  (159) 
J2VwaWtfcHl0aG9uJywgJy1waHQnLCAnMi4wJywgJy1waCcsICc3LjAnLCAnLXRuJywgJzgnLCAnLW1hJywgJzIwMCcsICctaW1hZScsICc8aW5maWxlLm1hZT4nLCAnLW9tYWUnLCAnPG91dGZpbGUubWFlPic=

>  <r_lp_tautomer_probability>  (159) 
1

>  <r_epik_Ionization_Penalty>  (159) 
1.05247e-15

>  <r_epik_Ionization_Penalty_Charging>  (159) 
0

>  <r_epik_Ionization_Penalty_Neutral>  (159) 
1.05247e-15

>  <r_epik_State_Penalty>  (159) 
-0

>  <r_epik_Charging_Adjusted_Penalty>  (159) 
0

>  <i_epik_Tot_Q>  (159) 
0

>  <i_epik_Tot_abs_Q>  (159) 
0

>  <s_epik_Chemistry_Notes>  (159) 
This compound has an ester and may undergo hydrolysis at high or low pH. This compound contains an acetal/aminal-like group ( X-CH(R)-Y where X, Y are N, S, or O) that may be acid/base labile, releasing an aldehyde. This is carbonic acid which has a microscopic pka value of about 3.8 however its equilibrium with CO2 as a lewis acid yields a pKa of about 6.35.

>  <s_lp_Force_Field>  (159) 
OPLS3e

>  <r_lp_Energy>  (159) 
43.1049

>  <b_lp_Chiralities_Consistent>  (159) 
1

>  <s_lp_Variant>  (159) 
44:0-1

>  <s_i_glide_gridfile>  (159) 
pfpi4k_grid

>  <i_i_glide_lignum>  (159) 
19

>  <i_i_glide_rotatable_bonds>  (159) 
8

>  <r_i_docking_score>  (159) 
-1.60176

>  <r_i_glide_ligand_efficiency>  (159) 
-0.055233

>  <r_i_glide_ligand_efficiency_sa>  (159) 
-0.169693

>  <r_i_glide_ligand_efficiency_ln>  (159) 
-0.366761

>  <r_i_glide_gscore>  (159) 
-1.60176

>  <r_i_glide_lipo>  (159) 
-0.210701

>  <r_i_glide_hbond>  (159) 
-0.0439921

>  <r_i_glide_metal>  (159) 
-0

>  <r_i_glide_rewards>  (159) 
-0.66677

>  <r_i_glide_evdw>  (159) 
-24.4207

>  <r_i_glide_ecoul>  (159) 
-1.23751

>  <r_i_glide_erotb>  (159) 
0.811174

>  <r_i_glide_esite>  (159) 
-0.084804

>  <r_i_glide_emodel>  (159) 
-27.6716

>  <r_i_glide_energy>  (159) 
-25.6582

>  <r_i_glide_einternal>  (159) 
0.936848

>  <r_i_glide_intrahb_reward>  (159) 
-0

>  <i_i_glide_confnum>  (159) 
7

>  <i_i_glide_posenum>  (159) 
2

>  <r_i_glide_eff_state_penalty>  (159) 
0

>  <ligand_id>  (159) 
44

>  <original_smiles>  (159) 
CCCCCCOC(=O)OC1OC2OC3(C)CCC4C(C)CCC(C1C)C24OO3

>  <smiles>  (159) 
[H]C([H])([H])C([H])([H])C([H])([H])C([H])([H])C([H])([H])C([H])([H])OC(=O)OC1([H])OC2([H])OC3(C([H])([H])[H])OOC24C([H])(C([H])([H])C([H])([H])C([H])(C([H])([H])[H])C4([H])C([H])([H])C3([H])[H])C1([H])C([H])([H])[H]

$$$$
44:0:2
     RDKit          3D

 65 68  0  0  1  0  0  0  0  0999 V2000
   -1.1090    2.3776    3.3418 C   0  0  0  0  0  0  0  0  0  0  0  0
    0.0813    1.9403    2.4788 C   0  0  0  0  0  0  0  0  0  0  0  0
    0.6019    0.5431    2.8394 C   0  0  0  0  0  0  0  0  0  0  0  0
    1.7449    0.0808    1.9227 C   0  0  0  0  0  0  0  0  0  0  0  0
    2.1362   -1.3880    2.1670 C   0  0  0  0  0  0  0  0  0  0  0  0
    3.1944   -1.9107    1.1749 C   0  0  0  0  0  0  0  0  0  0  0  0
    3.6497   -3.2159    1.5287 O   0  0  0  0  0  0  0  0  0  0  0  0
    3.1366   -4.3142    0.9370 C   0  0  0  0  0  0  0  0  0  0  0  0
    2.2865   -4.3389    0.0508 O   0  0  0  0  0  0  0  0  0  0  0  0
    3.7308   -5.3738    1.4944 O   0  0  0  0  0  0  0  0  0  0  0  0
    3.2384   -6.6412    1.1301 C   0  0  2  0  0  0  0  0  0  0  0  0
    1.8785   -6.8795    1.4506 O   0  0  0  0  0  0  0  0  0  0  0  0
    1.5645   -6.8252    2.8169 C   0  0  1  0  0  0  0  0  0  0  0  0
    0.1782   -6.9800    2.9799 O   0  0  0  0  0  0  0  0  0  0  0  0
   -0.2568   -8.3270    3.1479 C   0  0  2  0  0  0  0  0  0  0  0  0
   -1.6092   -8.4863    2.4499 C   0  0  0  0  0  0  0  0  0  0  0  0
   -0.3679   -8.6531    4.6542 C   0  0  0  0  0  0  0  0  0  0  0  0
    0.5687   -7.8037    5.5274 C   0  0  0  0  0  0  0  0  0  0  0  0
    2.0742   -7.8597    5.1746 C   0  0  2  0  0  0  0  0  0  0  0  0
    2.8949   -6.7758    5.9248 C   0  0  1  0  0  0  0  0  0  0  0  0
    2.7004   -6.8532    7.4525 C   0  0  0  0  0  0  0  0  0  0  0  0
    4.3904   -6.8787    5.5991 C   0  0  0  0  0  0  0  0  0  0  0  0
    4.6251   -6.7391    4.0949 C   0  0  0  0  0  0  0  0  0  0  0  0
    3.8651   -7.8238    3.2879 C   0  0  2  0  0  0  0  0  0  0  0  0
    4.1083   -7.7435    1.7527 C   0  0  1  0  0  0  0  0  0  0  0  0
    3.8443   -9.0878    1.0093 C   0  0  0  0  0  0  0  0  0  0  0  0
    2.3571   -7.9179    3.6314 C   0  0  2  0  0  0  0  0  0  0  0  0
    1.9310   -9.2438    3.2975 O   0  0  0  0  0  0  0  0  0  0  0  0
    0.6385   -9.2286    2.5234 O   0  0  0  0  0  0  0  0  0  0  0  0
   -1.4482    3.3710    3.0444 H   0  0  0  0  0  0  0  0  0  0  0  0
   -0.8423    2.4161    4.3980 H   0  0  0  0  0  0  0  0  0  0  0  0
   -1.9529    1.6955    3.2301 H   0  0  0  0  0  0  0  0  0  0  0  0
   -0.2213    1.9524    1.4311 H   0  0  0  0  0  0  0  0  0  0  0  0
    0.8834    2.6741    2.5698 H   0  0  0  0  0  0  0  0  0  0  0  0
    0.9330    0.5283    3.8782 H   0  0  0  0  0  0  0  0  0  0  0  0
   -0.2231   -0.1652    2.7695 H   0  0  0  0  0  0  0  0  0  0  0  0
    1.4448    0.2022    0.8822 H   0  0  0  0  0  0  0  0  0  0  0  0
    2.6122    0.7273    2.0610 H   0  0  0  0  0  0  0  0  0  0  0  0
    2.5065   -1.4879    3.1890 H   0  0  0  0  0  0  0  0  0  0  0  0
    1.2471   -2.0146    2.0999 H   0  0  0  0  0  0  0  0  0  0  0  0
    2.8057   -1.8651    0.1515 H   0  0  0  0  0  0  0  0  0  0  0  0
    4.0607   -1.2500    1.1978 H   0  0  0  0  0  0  0  0  0  0  0  0
    3.3187   -6.6745    0.0503 H   0  0  0  0  0  0  0  0  0  0  0  0
    1.7994   -5.8260    3.1974 H   0  0  0  0  0  0  0  0  0  0  0  0
   -1.5173   -8.2826    1.3820 H   0  0  0  0  0  0  0  0  0  0  0  0
   -2.3578   -7.8036    2.8578 H   0  0  0  0  0  0  0  0  0  0  0  0
   -1.9922   -9.5017    2.5639 H   0  0  0  0  0  0  0  0  0  0  0  0
   -1.3858   -8.4789    5.0112 H   0  0  0  0  0  0  0  0  0  0  0  0
   -0.1830   -9.7148    4.8149 H   0  0  0  0  0  0  0  0  0  0  0  0
    0.2278   -6.7673    5.4851 H   0  0  0  0  0  0  0  0  0  0  0  0
    0.4144   -8.1459    6.5496 H   0  0  0  0  0  0  0  0  0  0  0  0
    2.4408   -8.8114    5.5722 H   0  0  0  0  0  0  0  0  0  0  0  0
    2.5468   -5.8020    5.5796 H   0  0  0  0  0  0  0  0  0  0  0  0
    2.9448   -7.8487    7.8230 H   0  0  0  0  0  0  0  0  0  0  0  0
    1.6754   -6.6372    7.7553 H   0  0  0  0  0  0  0  0  0  0  0  0
    3.3417   -6.1478    7.9836 H   0  0  0  0  0  0  0  0  0  0  0  0
    4.9330   -6.0751    6.0998 H   0  0  0  0  0  0  0  0  0  0  0  0
    4.8135   -7.8157    5.9645 H   0  0  0  0  0  0  0  0  0  0  0  0
    4.3279   -5.7251    3.8336 H   0  0  0  0  0  0  0  0  0  0  0  0
    5.6942   -6.8068    3.8904 H   0  0  0  0  0  0  0  0  0  0  0  0
    4.3091   -8.7517    3.6316 H   0  0  0  0  0  0  0  0  0  0  0  0
    5.1599   -7.4817    1.5864 H   0  0  0  0  0  0  0  0  0  0  0  0
    2.7746   -9.3226    0.9382 H   0  0  0  0  0  0  0  0  0  0  0  0
    4.3105   -9.9300    1.5090 H   0  0  0  0  0  0  0  0  0  0  0  0
    4.2357   -9.0822   -0.0166 H   0  0  0  0  0  0  0  0  0  0  0  0
  1  2  1  0
  1 30  1  0
  1 31  1  0
  1 32  1  0
  2  3  1  0
  2 33  1  0
  2 34  1  0
  3  4  1  0
  3 35  1  0
  3 36  1  0
  4  5  1  0
  4 37  1  0
  4 38  1  0
  5  6  1  0
  5 39  1  0
  5 40  1  0
  6  7  1  0
  6 41  1  0
  6 42  1  0
  7  8  1  0
  8  9  2  0
  8 10  1  0
 10 11  1  0
 11 25  1  0
 11 12  1  0
 11 43  1  6
 12 13  1  0
 13 27  1  0
 13 14  1  0
 13 44  1  1
 14 15  1  0
 15 29  1  0
 15 16  1  6
 15 17  1  0
 16 45  1  0
 16 46  1  0
 16 47  1  0
 17 18  1  0
 17 48  1  0
 17 49  1  0
 18 19  1  0
 18 50  1  0
 18 51  1  0
 19 27  1  0
 19 20  1  0
 19 52  1  1
 20 21  1  0
 20 22  1  0
 20 53  1  6
 21 54  1  0
 21 55  1  0
 21 56  1  0
 22 23  1  0
 22 57  1  0
 22 58  1  0
 23 24  1  0
 23 59  1  0
 23 60  1  0
 24 25  1  0
 24 27  1  0
 24 61  1  1
 25 26  1  0
 25 62  1  1
 26 63  1  0
 26 64  1  0
 26 65  1  0
 27 28  1  6
 28 29  1  0
M  END
>  <i_m_ct_stereo_status>  (160) 
1

>  <s_m_source_file>  (160) 
/var/tmp/pbs.5076255.sched01/tmpar858yha/42b8svm9_t.sdf

>  <i_m_source_file_index>  (160) 
19

>  <i_lp_mmshare_version>  (160) 
48012

>  <i_f3d_flags>  (160) 
0

>  <s_epik_input>  (160) 
W0NIM11bQ0gyXVtDSDJdW0NIMl1bQ0gyXVtDSDJdT0MoPU8pT1tDQEhdKE9bQ0BASF0xW0NAXTIzNClbQ0BIXShbQ0gzXSlbQ0BIXTNbQ0gyXVtDSDJdW0NASF0oW0NIM10pW0NASF0yW0NIMl1bQ0gyXVtDQF0oTzEpKFtDSDNdKU9PNA==

>  <s_epik_cmdline>  (160) 
J2VwaWtfcHl0aG9uJywgJy1waHQnLCAnMi4wJywgJy1waCcsICc3LjAnLCAnLXRuJywgJzgnLCAnLW1hJywgJzIwMCcsICctaW1hZScsICc8aW5maWxlLm1hZT4nLCAnLW9tYWUnLCAnPG91dGZpbGUubWFlPic=

>  <r_lp_tautomer_probability>  (160) 
1

>  <r_epik_Ionization_Penalty>  (160) 
1.05247e-15

>  <r_epik_Ionization_Penalty_Charging>  (160) 
0

>  <r_epik_Ionization_Penalty_Neutral>  (160) 
1.05247e-15

>  <r_epik_State_Penalty>  (160) 
-0

>  <r_epik_Charging_Adjusted_Penalty>  (160) 
0

>  <i_epik_Tot_Q>  (160) 
0

>  <i_epik_Tot_abs_Q>  (160) 
0

>  <s_epik_Chemistry_Notes>  (160) 
This compound has an ester and may undergo hydrolysis at high or low pH. This compound contains an acetal/aminal-like group ( X-CH(R)-Y where X, Y are N, S, or O) that may be acid/base labile, releasing an aldehyde. This is carbonic acid which has a microscopic pka value of about 3.8 however its equilibrium with CO2 as a lewis acid yields a pKa of about 6.35.

>  <s_lp_Force_Field>  (160) 
OPLS3e

>  <r_lp_Energy>  (160) 
43.1049

>  <b_lp_Chiralities_Consistent>  (160) 
1

>  <s_lp_Variant>  (160) 
44:0-1

>  <s_i_glide_gridfile>  (160) 
pfpi4k_grid

>  <i_i_glide_lignum>  (160) 
19

>  <i_i_glide_rotatable_bonds>  (160) 
8

>  <r_i_docking_score>  (160) 
-1.47147

>  <r_i_glide_ligand_efficiency>  (160) 
-0.0507403

>  <r_i_glide_ligand_efficiency_sa>  (160) 
-0.15589

>  <r_i_glide_ligand_efficiency_ln>  (160) 
-0.336929

>  <r_i_glide_gscore>  (160) 
-1.47147

>  <r_i_glide_lipo>  (160) 
-0.13575

>  <r_i_glide_hbond>  (160) 
0

>  <r_i_glide_metal>  (160) 
-0

>  <r_i_glide_rewards>  (160) 
-0.653508

>  <r_i_glide_evdw>  (160) 
-24.2718

>  <r_i_glide_ecoul>  (160) 
-1.41154

>  <r_i_glide_erotb>  (160) 
0.811174

>  <r_i_glide_esite>  (160) 
-0.0680616

>  <r_i_glide_emodel>  (160) 
-27.6124

>  <r_i_glide_energy>  (160) 
-25.6834

>  <r_i_glide_einternal>  (160) 
0.451426

>  <r_i_glide_intrahb_reward>  (160) 
-0

>  <i_i_glide_confnum>  (160) 
1

>  <i_i_glide_posenum>  (160) 
18

>  <r_i_glide_eff_state_penalty>  (160) 
0

>  <ligand_id>  (160) 
44

>  <original_smiles>  (160) 
CCCCCCOC(=O)OC1OC2OC3(C)CCC4C(C)CCC(C1C)C24OO3

>  <smiles>  (160) 
[H]C([H])([H])C([H])([H])C([H])([H])C([H])([H])C([H])([H])C([H])([H])OC(=O)OC1([H])OC2([H])OC3(C([H])([H])[H])OOC24C([H])(C([H])([H])C([H])([H])C([H])(C([H])([H])[H])C4([H])C([H])([H])C3([H])[H])C1([H])C([H])([H])[H]

$$$$
45:1:0
     RDKit          3D

 58 61  0  0  1  0  0  0  0  0999 V2000
    1.4610    5.8346    3.7548 C   0  0  0  0  0  0  0  0  0  0  0  0
    1.2143    4.4376    3.8621 O   0  0  0  0  0  0  0  0  0  0  0  0
    0.7490    3.9775    5.0746 C   0  0  0  0  0  0  0  0  0  0  0  0
   -0.2094    3.0201    5.1574 C   0  0  0  0  0  0  0  0  0  0  0  0
   -0.7406    2.7257    6.5794 C   0  0  0  0  0  0  0  0  0  0  0  0
   -1.5150    3.9873    7.0673 C   0  0  0  0  0  0  0  0  0  0  0  0
   -1.8029    1.6347    6.8358 C   0  0  0  0  0  0  0  0  0  0  0  0
    0.5237    2.4199    7.4138 C   0  0  1  0  0  0  0  0  0  0  0  0
    1.5259    1.3788    6.8014 C   0  0  0  0  0  0  0  0  0  0  0  0
    1.1070    0.1233    5.9650 C   0  0  0  0  0  0  0  0  0  0  0  0
    0.6925    0.1782    4.4487 C   0  0  1  0  0  0  0  0  0  0  0  0
   -0.7325    0.6567    4.1853 C   0  0  0  0  0  0  0  0  0  0  0  0
   -0.7228    2.1683    3.9818 C   0  0  1  0  0  0  0  0  0  0  0  0
   -1.5336    2.8996    3.0089 C   0  0  1  0  0  0  0  0  0  0  0  0
   -1.4379    4.3050    2.8811 O   0  0  0  0  0  0  0  0  0  0  0  0
   -0.2009    2.3189    2.4963 C   0  0  1  0  0  0  0  0  0  0  0  0
    1.1596    2.1095    2.9569 O   0  0  0  0  0  0  0  0  0  0  0  0
    1.6265    0.8090    3.3531 C   0  0  0  0  0  0  0  0  0  0  0  0
    3.0783    1.0613    3.8038 C   0  0  0  0  0  0  0  0  0  0  0  0
    1.6893   -0.0951    2.1022 C   0  0  0  0  0  0  0  0  0  0  0  0
    1.2889    3.7395    7.6220 C   0  0  0  0  0  0  0  0  0  0  0  0
    1.5644    4.5016    6.2966 C   0  0  1  0  0  0  0  0  0  0  0  0
    2.9527    4.3574    6.0103 O   0  0  0  0  0  0  0  0  0  0  0  0
    3.8679    5.2060    6.5117 C   0  0  0  0  0  0  0  0  0  0  0  0
    5.2680    4.9290    5.9823 C   0  0  0  0  0  0  0  0  0  0  0  0
    3.6454    6.1269    7.2996 O   0  0  0  0  0  0  0  0  0  0  0  0
    1.6207    6.0845    2.7087 H   0  0  0  0  0  0  0  0  0  0  0  0
    2.3537    6.1537    4.2896 H   0  0  0  0  0  0  0  0  0  0  0  0
    0.6071    6.4108    4.1194 H   0  0  0  0  0  0  0  0  0  0  0  0
   -1.7245    3.9546    8.1438 H   0  0  0  0  0  0  0  0  0  0  0  0
   -2.4813    4.0805    6.5619 H   0  0  0  0  0  0  0  0  0  0  0  0
   -0.9990    4.9284    6.8852 H   0  0  0  0  0  0  0  0  0  0  0  0
   -2.3029    1.7722    7.8020 H   0  0  0  0  0  0  0  0  0  0  0  0
   -1.3860    0.6359    6.9069 H   0  0  0  0  0  0  0  0  0  0  0  0
   -2.5912    1.6607    6.0814 H   0  0  0  0  0  0  0  0  0  0  0  0
    0.2110    2.0547    8.3967 H   0  0  0  0  0  0  0  0  0  0  0  0
    2.2942    1.9058    6.2462 H   0  0  0  0  0  0  0  0  0  0  0  0
    2.0782    0.9900    7.6597 H   0  0  0  0  0  0  0  0  0  0  0  0
    1.9847   -0.5258    5.9933 H   0  0  0  0  0  0  0  0  0  0  0  0
    0.3713   -0.4581    6.5261 H   0  0  0  0  0  0  0  0  0  0  0  0
    0.6698   -0.8893    4.2209 H   0  0  0  0  0  0  0  0  0  0  0  0
   -1.0819    0.1855    3.2696 H   0  0  0  0  0  0  0  0  0  0  0  0
   -1.4625    0.2966    4.8813 H   0  0  0  0  0  0  0  0  0  0  0  0
   -2.4566    2.4952    2.5775 H   0  0  0  0  0  0  0  0  0  0  0  0
   -0.7952    4.4529    2.1700 H   0  0  0  0  0  0  0  0  0  0  0  0
   -0.3953    1.5624    1.7462 H   0  0  0  0  0  0  0  0  0  0  0  0
    3.4897    0.2484    4.4074 H   0  0  0  0  0  0  0  0  0  0  0  0
    3.1628    1.9911    4.3630 H   0  0  0  0  0  0  0  0  0  0  0  0
    3.7436    1.1921    2.9458 H   0  0  0  0  0  0  0  0  0  0  0  0
    2.2594   -1.0113    2.2930 H   0  0  0  0  0  0  0  0  0  0  0  0
    2.1720    0.4169    1.2638 H   0  0  0  0  0  0  0  0  0  0  0  0
    0.7028   -0.4045    1.7571 H   0  0  0  0  0  0  0  0  0  0  0  0
    0.7382    4.3950    8.2896 H   0  0  0  0  0  0  0  0  0  0  0  0
    2.2174    3.5541    8.1593 H   0  0  0  0  0  0  0  0  0  0  0  0
    1.3035    5.5496    6.4316 H   0  0  0  0  0  0  0  0  0  0  0  0
    5.2631    4.8994    4.8928 H   0  0  0  0  0  0  0  0  0  0  0  0
    5.6291    3.9706    6.3526 H   0  0  0  0  0  0  0  0  0  0  0  0
    5.9679    5.7038    6.2941 H   0  0  0  0  0  0  0  0  0  0  0  0
  1  2  1  0
  1 27  1  0
  1 28  1  0
  1 29  1  0
  2  3  1  0
  3 22  1  0
  3  4  2  0
 13  4  1  1
  4  5  1  0
  5  6  1  0
  5  7  1  0
  5  8  1  0
  6 30  1  0
  6 31  1  0
  6 32  1  0
  7 33  1  0
  7 34  1  0
  7 35  1  0
  8  9  1  0
  8 21  1  0
  8 36  1  1
  9 10  1  0
  9 37  1  0
  9 38  1  0
 10 11  1  0
 10 39  1  0
 10 40  1  0
 11 18  1  0
 11 12  1  0
 11 41  1  6
 12 13  1  0
 12 42  1  0
 12 43  1  0
 13 16  1  0
 13 14  1  0
 14 15  1  0
 14 16  1  0
 14 44  1  6
 15 45  1  0
 16 17  1  0
 16 46  1  6
 17 18  1  0
 18 19  1  0
 18 20  1  0
 19 47  1  0
 19 48  1  0
 19 49  1  0
 20 50  1  0
 20 51  1  0
 20 52  1  0
 21 22  1  0
 21 53  1  0
 21 54  1  0
 22 23  1  0
 22 55  1  1
 23 24  1  0
 24 25  1  0
 24 26  2  0
 25 56  1  0
 25 57  1  0
 25 58  1  0
M  END
>  <i_m_ct_stereo_status>  (161) 
1

>  <s_m_source_file>  (161) 
/var/tmp/pbs.5076255.sched01/tmpar858yha/42b8svm9_t.sdf

>  <i_m_source_file_index>  (161) 
21

>  <i_lp_mmshare_version>  (161) 
48012

>  <i_f3d_flags>  (161) 
0

>  <s_epik_input>  (161) 
W0NIM11PQyg9QzFbQ0BAXTIzNClbQ0BIXShPQyg9TylbQ0gzXSlbQ0gyXVtDSF0oQzEoW0NIM10pW0NIM10pW0NIMl1bQ0gyXVtDQEBIXShbQ0gyXTIpQyhbQ0gzXSkoW0NIM10pT1tDQEBIXTRbQ0BASF0zW09IXQ==

>  <s_epik_cmdline>  (161) 
J2VwaWtfcHl0aG9uJywgJy1waHQnLCAnMi4wJywgJy1waCcsICc3LjAnLCAnLXRuJywgJzgnLCAnLW1hJywgJzIwMCcsICctaW1hZScsICc8aW5maWxlLm1hZT4nLCAnLW9tYWUnLCAnPG91dGZpbGUubWFlPic=

>  <r_lp_tautomer_probability>  (161) 
1

>  <r_epik_Ionization_Penalty>  (161) 
1.75157e-07

>  <r_epik_Ionization_Penalty_Charging>  (161) 
0

>  <r_epik_Ionization_Penalty_Neutral>  (161) 
1.75157e-07

>  <r_epik_State_Penalty>  (161) 
-0

>  <r_epik_Charging_Adjusted_Penalty>  (161) 
0

>  <i_epik_Tot_Q>  (161) 
0

>  <i_epik_Tot_abs_Q>  (161) 
0

>  <s_epik_Chemistry_Notes>  (161) 
This compound has an ester and may undergo hydrolysis at high or low pH.

>  <s_lp_Force_Field>  (161) 
OPLS3e

>  <r_lp_Energy>  (161) 
105.755

>  <b_lp_Chiralities_Consistent>  (161) 
1

>  <s_lp_Variant>  (161) 
45:0-2

>  <s_i_glide_gridfile>  (161) 
pfpi4k_grid

>  <i_i_glide_lignum>  (161) 
21

>  <i_i_glide_rotatable_bonds>  (161) 
4

>  <r_i_docking_score>  (161) 
-2.50727

>  <r_i_glide_ligand_efficiency>  (161) 
-0.0964333

>  <r_i_glide_ligand_efficiency_sa>  (161) 
-0.285683

>  <r_i_glide_ligand_efficiency_ln>  (161) 
-0.588823

>  <r_i_glide_gscore>  (161) 
-2.50727

>  <r_i_glide_lipo>  (161) 
-0.025629

>  <r_i_glide_hbond>  (161) 
0

>  <r_i_glide_metal>  (161) 
-0

>  <r_i_glide_rewards>  (161) 
-0.924029

>  <r_i_glide_evdw>  (161) 
-16.3943

>  <r_i_glide_ecoul>  (161) 
-5.88412

>  <r_i_glide_erotb>  (161) 
0.144722

>  <r_i_glide_esite>  (161) 
0

>  <r_i_glide_emodel>  (161) 
-25.4587

>  <r_i_glide_energy>  (161) 
-22.2784

>  <r_i_glide_einternal>  (161) 
0.740458

>  <r_i_glide_intrahb_reward>  (161) 
-0

>  <i_i_glide_confnum>  (161) 
2

>  <i_i_glide_posenum>  (161) 
13

>  <r_i_glide_eff_state_penalty>  (161) 
0

>  <ligand_id>  (161) 
45

>  <original_smiles>  (161) 
COC1=C2C(C)(C)C(CCC3CC24C(O)C4OC3(C)C)CC1OC(C)=O

>  <smiles>  (161) 
[H]OC1([H])C2([H])OC(C([H])([H])[H])(C([H])([H])[H])C3([H])C([H])([H])C([H])([H])C4([H])C([H])([H])C([H])(OC(=O)C([H])([H])[H])C(OC([H])([H])[H])=C(C12C3([H])[H])C4(C([H])([H])[H])C([H])([H])[H]

$$$$
45:1:1
     RDKit          3D

 58 61  0  0  1  0  0  0  0  0999 V2000
    0.2708    5.6726    6.5132 C   0  0  0  0  0  0  0  0  0  0  0  0
    0.7704    4.4945    5.8923 O   0  0  0  0  0  0  0  0  0  0  0  0
   -0.1507    3.6631    5.3067 C   0  0  0  0  0  0  0  0  0  0  0  0
    0.0847    3.0445    4.1161 C   0  0  0  0  0  0  0  0  0  0  0  0
   -1.1039    2.2680    3.5190 C   0  0  0  0  0  0  0  0  0  0  0  0
   -2.2057    3.3058    3.1173 C   0  0  0  0  0  0  0  0  0  0  0  0
   -0.9756    1.4811    2.1882 C   0  0  0  0  0  0  0  0  0  0  0  0
   -1.5479    1.3056    4.6474 C   0  0  1  0  0  0  0  0  0  0  0  0
   -0.4225    0.4623    5.3346 C   0  0  0  0  0  0  0  0  0  0  0  0
    0.8240   -0.1236    4.5935 C   0  0  0  0  0  0  0  0  0  0  0  0
    2.0922    0.7280    4.2217 C   0  0  1  0  0  0  0  0  0  0  0  0
    1.9359    1.6042    2.9791 C   0  0  0  0  0  0  0  0  0  0  0  0
    1.4519    2.9865    3.4034 C   0  0  1  0  0  0  0  0  0  0  0  0
    1.8907    4.2458    2.8214 C   0  0  1  0  0  0  0  0  0  0  0  0
    1.3789    5.4844    3.2791 O   0  0  0  0  0  0  0  0  0  0  0  0
    2.7556    3.6759    3.9547 C   0  0  1  0  0  0  0  0  0  0  0  0
    2.6129    2.9560    5.2083 O   0  0  0  0  0  0  0  0  0  0  0  0
    2.8944    1.5448    5.2973 C   0  0  0  0  0  0  0  0  0  0  0  0
    2.5584    1.2023    6.7602 C   0  0  0  0  0  0  0  0  0  0  0  0
    4.4127    1.3378    5.1195 C   0  0  0  0  0  0  0  0  0  0  0  0
   -2.2228    2.1502    5.7451 C   0  0  0  0  0  0  0  0  0  0  0  0
   -1.3594    3.3349    6.2290 C   0  0  1  0  0  0  0  0  0  0  0  0
   -0.8742    3.0130    7.5354 O   0  0  0  0  0  0  0  0  0  0  0  0
   -1.6408    3.1806    8.6268 C   0  0  0  0  0  0  0  0  0  0  0  0
   -0.8755    2.8451    9.9064 C   0  0  0  0  0  0  0  0  0  0  0  0
   -2.8061    3.5406    8.6356 O   0  0  0  0  0  0  0  0  0  0  0  0
    1.0988    6.3366    6.7400 H   0  0  0  0  0  0  0  0  0  0  0  0
   -0.2416    5.4717    7.4555 H   0  0  0  0  0  0  0  0  0  0  0  0
   -0.4157    6.2025    5.8492 H   0  0  0  0  0  0  0  0  0  0  0  0
   -3.1635    2.8253    2.8985 H   0  0  0  0  0  0  0  0  0  0  0  0
   -1.9083    3.8570    2.2196 H   0  0  0  0  0  0  0  0  0  0  0  0
   -2.3995    4.0681    3.8704 H   0  0  0  0  0  0  0  0  0  0  0  0
   -1.9491    1.2719    1.7402 H   0  0  0  0  0  0  0  0  0  0  0  0
   -0.5434    0.4915    2.3121 H   0  0  0  0  0  0  0  0  0  0  0  0
   -0.4163    2.0315    1.4328 H   0  0  0  0  0  0  0  0  0  0  0  0
   -2.2866    0.6143    4.2459 H   0  0  0  0  0  0  0  0  0  0  0  0
   -0.0715    0.9772    6.2164 H   0  0  0  0  0  0  0  0  0  0  0  0
   -0.9441   -0.4020    5.7530 H   0  0  0  0  0  0  0  0  0  0  0  0
    1.1962   -0.9022    5.2542 H   0  0  0  0  0  0  0  0  0  0  0  0
    0.4973   -0.6890    3.7229 H   0  0  0  0  0  0  0  0  0  0  0  0
    2.7652   -0.0635    3.9023 H   0  0  0  0  0  0  0  0  0  0  0  0
    2.9184    1.7170    2.5161 H   0  0  0  0  0  0  0  0  0  0  0  0
    1.3946    1.1505    2.1697 H   0  0  0  0  0  0  0  0  0  0  0  0
    2.3273    4.3006    1.8202 H   0  0  0  0  0  0  0  0  0  0  0  0
    0.7721    5.7863    2.6125 H   0  0  0  0  0  0  0  0  0  0  0  0
    3.7428    3.4294    3.5685 H   0  0  0  0  0  0  0  0  0  0  0  0
    2.4402    0.1333    6.9257 H   0  0  0  0  0  0  0  0  0  0  0  0
    1.6566    1.7141    7.0894 H   0  0  0  0  0  0  0  0  0  0  0  0
    3.3406    1.5505    7.4375 H   0  0  0  0  0  0  0  0  0  0  0  0
    4.7165    0.3340    5.4153 H   0  0  0  0  0  0  0  0  0  0  0  0
    4.9858    2.0444    5.7259 H   0  0  0  0  0  0  0  0  0  0  0  0
    4.7226    1.4665    4.0868 H   0  0  0  0  0  0  0  0  0  0  0  0
   -3.1595    2.5658    5.3893 H   0  0  0  0  0  0  0  0  0  0  0  0
   -2.5261    1.5109    6.5734 H   0  0  0  0  0  0  0  0  0  0  0  0
   -1.9849    4.2216    6.2756 H   0  0  0  0  0  0  0  0  0  0  0  0
    0.0628    3.4015    9.9458 H   0  0  0  0  0  0  0  0  0  0  0  0
   -0.6405    1.7835    9.9422 H   0  0  0  0  0  0  0  0  0  0  0  0
   -1.4615    3.0965   10.7899 H   0  0  0  0  0  0  0  0  0  0  0  0
  1  2  1  0
  1 27  1  0
  1 28  1  0
  1 29  1  0
  2  3  1  0
  3 22  1  0
  3  4  2  0
 13  4  1  1
  4  5  1  0
  5  6  1  0
  5  7  1  0
  5  8  1  0
  6 30  1  0
  6 31  1  0
  6 32  1  0
  7 33  1  0
  7 34  1  0
  7 35  1  0
  8  9  1  0
  8 21  1  0
  8 36  1  6
  9 10  1  0
  9 37  1  0
  9 38  1  0
 10 11  1  0
 10 39  1  0
 10 40  1  0
 11 18  1  0
 11 12  1  0
 11 41  1  6
 12 13  1  0
 12 42  1  0
 12 43  1  0
 13 16  1  0
 13 14  1  0
 14 15  1  0
 14 16  1  0
 14 44  1  6
 15 45  1  0
 16 17  1  0
 16 46  1  6
 17 18  1  0
 18 19  1  0
 18 20  1  0
 19 47  1  0
 19 48  1  0
 19 49  1  0
 20 50  1  0
 20 51  1  0
 20 52  1  0
 21 22  1  0
 21 53  1  0
 21 54  1  0
 22 23  1  0
 22 55  1  1
 23 24  1  0
 24 25  1  0
 24 26  2  0
 25 56  1  0
 25 57  1  0
 25 58  1  0
M  END
>  <i_m_ct_stereo_status>  (162) 
1

>  <s_m_source_file>  (162) 
/var/tmp/pbs.5076255.sched01/tmpar858yha/42b8svm9_t.sdf

>  <i_m_source_file_index>  (162) 
21

>  <i_lp_mmshare_version>  (162) 
48012

>  <i_f3d_flags>  (162) 
0

>  <s_epik_input>  (162) 
W0NIM11PQyg9QzFbQ0BAXTIzNClbQ0BIXShPQyg9TylbQ0gzXSlbQ0gyXVtDSF0oQzEoW0NIM10pW0NIM10pW0NIMl1bQ0gyXVtDQEBIXShbQ0gyXTIpQyhbQ0gzXSkoW0NIM10pT1tDQEBIXTRbQ0BASF0zW09IXQ==

>  <s_epik_cmdline>  (162) 
J2VwaWtfcHl0aG9uJywgJy1waHQnLCAnMi4wJywgJy1waCcsICc3LjAnLCAnLXRuJywgJzgnLCAnLW1hJywgJzIwMCcsICctaW1hZScsICc8aW5maWxlLm1hZT4nLCAnLW9tYWUnLCAnPG91dGZpbGUubWFlPic=

>  <r_lp_tautomer_probability>  (162) 
1

>  <r_epik_Ionization_Penalty>  (162) 
1.75157e-07

>  <r_epik_Ionization_Penalty_Charging>  (162) 
0

>  <r_epik_Ionization_Penalty_Neutral>  (162) 
1.75157e-07

>  <r_epik_State_Penalty>  (162) 
-0

>  <r_epik_Charging_Adjusted_Penalty>  (162) 
0

>  <i_epik_Tot_Q>  (162) 
0

>  <i_epik_Tot_abs_Q>  (162) 
0

>  <s_epik_Chemistry_Notes>  (162) 
This compound has an ester and may undergo hydrolysis at high or low pH.

>  <s_lp_Force_Field>  (162) 
OPLS3e

>  <r_lp_Energy>  (162) 
105.755

>  <b_lp_Chiralities_Consistent>  (162) 
1

>  <s_lp_Variant>  (162) 
45:0-2

>  <s_i_glide_gridfile>  (162) 
pfpi4k_grid

>  <i_i_glide_lignum>  (162) 
21

>  <i_i_glide_rotatable_bonds>  (162) 
4

>  <r_i_docking_score>  (162) 
-2.19368

>  <r_i_glide_ligand_efficiency>  (162) 
-0.0843722

>  <r_i_glide_ligand_efficiency_sa>  (162) 
-0.249952

>  <r_i_glide_ligand_efficiency_ln>  (162) 
-0.515178

>  <r_i_glide_gscore>  (162) 
-2.19368

>  <r_i_glide_lipo>  (162) 
-0.030111

>  <r_i_glide_hbond>  (162) 
0

>  <r_i_glide_metal>  (162) 
-0

>  <r_i_glide_rewards>  (162) 
-0.924029

>  <r_i_glide_evdw>  (162) 
-21.3245

>  <r_i_glide_ecoul>  (162) 
-2.04501

>  <r_i_glide_erotb>  (162) 
0.144722

>  <r_i_glide_esite>  (162) 
-0.0112814

>  <r_i_glide_emodel>  (162) 
-26.2044

>  <r_i_glide_energy>  (162) 
-23.3695

>  <r_i_glide_einternal>  (162) 
0.497807

>  <r_i_glide_intrahb_reward>  (162) 
-0

>  <i_i_glide_confnum>  (162) 
3

>  <i_i_glide_posenum>  (162) 
26

>  <r_i_glide_eff_state_penalty>  (162) 
0

>  <ligand_id>  (162) 
45

>  <original_smiles>  (162) 
COC1=C2C(C)(C)C(CCC3CC24C(O)C4OC3(C)C)CC1OC(C)=O

>  <smiles>  (162) 
[H]OC1([H])C2([H])OC(C([H])([H])[H])(C([H])([H])[H])C3([H])C([H])([H])C([H])([H])C4([H])C([H])([H])C([H])(OC(=O)C([H])([H])[H])C(OC([H])([H])[H])=C(C12C3([H])[H])C4(C([H])([H])[H])C([H])([H])[H]

$$$$
46:0:0
     RDKit          3D

 31 34  0  0  1  0  0  0  0  0999 V2000
    2.3957   -4.8356    2.4985 C   0  0  0  0  0  0  0  0  0  0  0  0
    1.8230   -5.6908    1.6097 N   0  0  0  0  0  0  0  0  0  0  0  0
    2.2245   -5.3029    0.4378 N   0  0  0  0  0  0  0  0  0  0  0  0
    2.9807   -4.1945    0.6420 N   0  0  0  0  0  0  0  0  0  0  0  0
    3.6302   -3.4545   -0.4465 C   0  0  1  0  0  0  0  0  0  0  0  0
    2.6550   -3.2814   -1.6408 C   0  0  0  0  0  0  0  0  0  0  0  0
    3.3208   -2.5044   -2.7926 C   0  0  2  0  0  0  0  0  0  0  0  0
    4.5535   -3.2757   -3.2647 C   0  0  0  0  0  0  0  0  0  0  0  0
    5.5396   -3.4172   -2.0867 C   0  0  1  0  0  0  0  0  0  0  0  0
    5.9643   -2.0438   -1.5489 C   0  0  0  0  0  0  0  0  0  0  0  0
    4.7239   -1.2595   -1.1069 C   0  0  1  0  0  0  0  0  0  0  0  0
    3.7505   -1.1178   -2.2945 C   0  0  0  0  0  0  0  0  0  0  0  0
    4.0501   -2.0321    0.0356 C   0  0  0  0  0  0  0  0  0  0  0  0
    4.8882   -4.2146   -0.9373 C   0  0  0  0  0  0  0  0  0  0  0  0
    3.1407   -3.9024    1.9464 N   0  0  0  0  0  0  0  0  0  0  0  0
    2.2486   -4.8959    3.5714 H   0  0  0  0  0  0  0  0  0  0  0  0
    2.2753   -4.2354   -2.0065 H   0  0  0  0  0  0  0  0  0  0  0  0
    1.7816   -2.7401   -1.3113 H   0  0  0  0  0  0  0  0  0  0  0  0
    2.6076   -2.3860   -3.6097 H   0  0  0  0  0  0  0  0  0  0  0  0
    4.2515   -4.2567   -3.6290 H   0  0  0  0  0  0  0  0  0  0  0  0
    5.0160   -2.7583   -4.1018 H   0  0  0  0  0  0  0  0  0  0  0  0
    6.4286   -3.9099   -2.4585 H   0  0  0  0  0  0  0  0  0  0  0  0
    6.6669   -2.1654   -0.7228 H   0  0  0  0  0  0  0  0  0  0  0  0
    6.4816   -1.4998   -2.3170 H   0  0  0  0  0  0  0  0  0  0  0  0
    5.0176   -0.2722   -0.7479 H   0  0  0  0  0  0  0  0  0  0  0  0
    4.1940   -0.5207   -3.0954 H   0  0  0  0  0  0  0  0  0  0  0  0
    2.8440   -0.6192   -1.9734 H   0  0  0  0  0  0  0  0  0  0  0  0
    3.1847   -1.4740    0.3946 H   0  0  0  0  0  0  0  0  0  0  0  0
    4.7532   -2.0966    0.8651 H   0  0  0  0  0  0  0  0  0  0  0  0
    5.5997   -4.3513   -0.1222 H   0  0  0  0  0  0  0  0  0  0  0  0
    4.6256   -5.2121   -1.2913 H   0  0  0  0  0  0  0  0  0  0  0  0
  1 15  2  0
  1  2  1  0
  1 16  1  0
  2  3  2  0
  3  4  1  0
  5  4  1  1
  4 15  1  0
  5 13  1  0
  5 14  1  0
  5  6  1  0
  6  7  1  0
  6 17  1  0
  6 18  1  0
  7 12  1  0
  7  8  1  0
  7 19  1  6
  8  9  1  0
  8 20  1  0
  8 21  1  0
  9 10  1  0
  9 14  1  0
  9 22  1  6
 10 11  1  0
 10 23  1  0
 10 24  1  0
 11 12  1  0
 11 13  1  0
 11 25  1  1
 12 26  1  0
 12 27  1  0
 13 28  1  0
 13 29  1  0
 14 30  1  0
 14 31  1  0
M  END
>  <i_m_ct_stereo_status>  (163) 
1

>  <s_m_source_file>  (163) 
/var/tmp/pbs.5076255.sched01/tmpar858yha/42b8svm9_t.sdf

>  <i_m_source_file_index>  (163) 
22

>  <i_lp_mmshare_version>  (163) 
48012

>  <i_f3d_flags>  (163) 
0

>  <s_epik_input>  (163) 
bjFbY0hdbm5uMUMyM1tDSDJdW0NASF00W0NIMl1bQ0BASF0oW0NIMl0zKVtDSDJdW0NASF0oW0NIMl00KVtDSDJdMg==

>  <s_epik_cmdline>  (163) 
J2VwaWtfcHl0aG9uJywgJy1waHQnLCAnMi4wJywgJy1waCcsICc3LjAnLCAnLXRuJywgJzgnLCAnLW1hJywgJzIwMCcsICctaW1hZScsICc8aW5maWxlLm1hZT4nLCAnLW9tYWUnLCAnPG91dGZpbGUubWFlPic=

>  <r_lp_tautomer_probability>  (163) 
1

>  <r_epik_Ionization_Penalty>  (163) 
2.40438e-06

>  <r_epik_Ionization_Penalty_Charging>  (163) 
0

>  <r_epik_Ionization_Penalty_Neutral>  (163) 
2.40438e-06

>  <r_epik_State_Penalty>  (163) 
-0

>  <r_epik_Charging_Adjusted_Penalty>  (163) 
0

>  <i_epik_Tot_Q>  (163) 
0

>  <i_epik_Tot_abs_Q>  (163) 
0

>  <s_lp_Force_Field>  (163) 
OPLS3e

>  <r_lp_Energy>  (163) 
6.24452

>  <b_lp_Chiralities_Consistent>  (163) 
1

>  <s_lp_Variant>  (163) 
46:0-1

>  <s_i_glide_gridfile>  (163) 
pfpi4k_grid

>  <i_i_glide_lignum>  (163) 
22

>  <i_i_glide_rotatable_bonds>  (163) 
1

>  <r_i_docking_score>  (163) 
-3.50734

>  <r_i_glide_ligand_efficiency>  (163) 
-0.233822

>  <r_i_glide_ligand_efficiency_sa>  (163) 
-0.576656

>  <r_i_glide_ligand_efficiency_ln>  (163) 
-0.945871

>  <r_i_glide_gscore>  (163) 
-3.50734

>  <r_i_glide_lipo>  (163) 
-0.499913

>  <r_i_glide_hbond>  (163) 
0

>  <r_i_glide_metal>  (163) 
-0

>  <r_i_glide_rewards>  (163) 
-2.01633

>  <r_i_glide_evdw>  (163) 
-18.6276

>  <r_i_glide_ecoul>  (163) 
-2.0977

>  <r_i_glide_erotb>  (163) 
0.394182

>  <r_i_glide_esite>  (163) 
-0.139238

>  <r_i_glide_emodel>  (163) 
-25.8318

>  <r_i_glide_energy>  (163) 
-20.7253

>  <r_i_glide_einternal>  (163) 
0.132388

>  <r_i_glide_intrahb_reward>  (163) 
-0

>  <i_i_glide_confnum>  (163) 
4

>  <i_i_glide_posenum>  (163) 
18

>  <r_i_glide_eff_state_penalty>  (163) 
0

>  <ligand_id>  (163) 
46

>  <original_smiles>  (163) 
c1nnn(C23CC4CC(CC(C4)C2)C3)n1

>  <smiles>  (163) 
[H]c1nnn(C23C([H])([H])C4([H])C([H])([H])C([H])(C([H])([H])C([H])(C4([H])[H])C2([H])[H])C3([H])[H])n1

$$$$
46:0:1
     RDKit          3D

 31 34  0  0  1  0  0  0  0  0999 V2000
    2.8633   -6.4131    1.2849 C   0  0  0  0  0  0  0  0  0  0  0  0
    1.7810   -5.8597    0.6643 N   0  0  0  0  0  0  0  0  0  0  0  0
    2.2155   -4.7924    0.0780 N   0  0  0  0  0  0  0  0  0  0  0  0
    3.5268   -4.6967    0.3815 N   0  0  0  0  0  0  0  0  0  0  0  0
    4.3865   -3.6033   -0.1068 C   0  0  1  0  0  0  0  0  0  0  0  0
    4.5408   -3.6961   -1.6459 C   0  0  0  0  0  0  0  0  0  0  0  0
    5.4370   -2.5526   -2.1642 C   0  0  2  0  0  0  0  0  0  0  0  0
    6.8316   -2.6636   -1.5170 C   0  0  0  0  0  0  0  0  0  0  0  0
    6.6955   -2.5342    0.0129 C   0  0  1  0  0  0  0  0  0  0  0  0
    6.0524   -1.1867    0.3931 C   0  0  0  0  0  0  0  0  0  0  0  0
    4.6654   -1.0832   -0.2706 C   0  0  1  0  0  0  0  0  0  0  0  0
    4.8045   -1.1909   -1.8046 C   0  0  0  0  0  0  0  0  0  0  0  0
    3.7647   -2.2244    0.2472 C   0  0  0  0  0  0  0  0  0  0  0  0
    5.8079   -3.6785    0.5356 C   0  0  0  0  0  0  0  0  0  0  0  0
    3.9796   -5.7242    1.1270 N   0  0  0  0  0  0  0  0  0  0  0  0
    2.8286   -7.3271    1.8649 H   0  0  0  0  0  0  0  0  0  0  0  0
    4.9615   -4.6623   -1.9284 H   0  0  0  0  0  0  0  0  0  0  0  0
    3.5627   -3.6383   -2.1276 H   0  0  0  0  0  0  0  0  0  0  0  0
    5.5333   -2.6394   -3.2464 H   0  0  0  0  0  0  0  0  0  0  0  0
    7.2825   -3.6215   -1.7708 H   0  0  0  0  0  0  0  0  0  0  0  0
    7.5033   -1.9095   -1.9180 H   0  0  0  0  0  0  0  0  0  0  0  0
    7.6806   -2.6118    0.4733 H   0  0  0  0  0  0  0  0  0  0  0  0
    5.9499   -1.1156    1.4779 H   0  0  0  0  0  0  0  0  0  0  0  0
    6.6834   -0.3545    0.0861 H   0  0  0  0  0  0  0  0  0  0  0  0
    4.2165   -0.1232   -0.0157 H   0  0  0  0  0  0  0  0  0  0  0  0
    5.4144   -0.3736   -2.1881 H   0  0  0  0  0  0  0  0  0  0  0  0
    3.8261   -1.0929   -2.2771 H   0  0  0  0  0  0  0  0  0  0  0  0
    2.7721   -2.1206   -0.1962 H   0  0  0  0  0  0  0  0  0  0  0  0
    3.6278   -2.1334    1.3255 H   0  0  0  0  0  0  0  0  0  0  0  0
    5.7408   -3.6203    1.6240 H   0  0  0  0  0  0  0  0  0  0  0  0
    6.2865   -4.6296    0.3004 H   0  0  0  0  0  0  0  0  0  0  0  0
  1 15  2  0
  1  2  1  0
  1 16  1  0
  2  3  2  0
  3  4  1  0
  5  4  1  1
  4 15  1  0
  5 13  1  0
  5 14  1  0
  5  6  1  0
  6  7  1  0
  6 17  1  0
  6 18  1  0
  7 12  1  0
  7  8  1  0
  7 19  1  6
  8  9  1  0
  8 20  1  0
  8 21  1  0
  9 10  1  0
  9 14  1  0
  9 22  1  1
 10 11  1  0
 10 23  1  0
 10 24  1  0
 11 12  1  0
 11 13  1  0
 11 25  1  6
 12 26  1  0
 12 27  1  0
 13 28  1  0
 13 29  1  0
 14 30  1  0
 14 31  1  0
M  END
>  <i_m_ct_stereo_status>  (164) 
1

>  <s_m_source_file>  (164) 
/var/tmp/pbs.5076255.sched01/tmpar858yha/42b8svm9_t.sdf

>  <i_m_source_file_index>  (164) 
22

>  <i_lp_mmshare_version>  (164) 
48012

>  <i_f3d_flags>  (164) 
0

>  <s_epik_input>  (164) 
bjFbY0hdbm5uMUMyM1tDSDJdW0NASF00W0NIMl1bQ0BASF0oW0NIMl0zKVtDSDJdW0NASF0oW0NIMl00KVtDSDJdMg==

>  <s_epik_cmdline>  (164) 
J2VwaWtfcHl0aG9uJywgJy1waHQnLCAnMi4wJywgJy1waCcsICc3LjAnLCAnLXRuJywgJzgnLCAnLW1hJywgJzIwMCcsICctaW1hZScsICc8aW5maWxlLm1hZT4nLCAnLW9tYWUnLCAnPG91dGZpbGUubWFlPic=

>  <r_lp_tautomer_probability>  (164) 
1

>  <r_epik_Ionization_Penalty>  (164) 
2.40438e-06

>  <r_epik_Ionization_Penalty_Charging>  (164) 
0

>  <r_epik_Ionization_Penalty_Neutral>  (164) 
2.40438e-06

>  <r_epik_State_Penalty>  (164) 
-0

>  <r_epik_Charging_Adjusted_Penalty>  (164) 
0

>  <i_epik_Tot_Q>  (164) 
0

>  <i_epik_Tot_abs_Q>  (164) 
0

>  <s_lp_Force_Field>  (164) 
OPLS3e

>  <r_lp_Energy>  (164) 
6.24452

>  <b_lp_Chiralities_Consistent>  (164) 
1

>  <s_lp_Variant>  (164) 
46:0-1

>  <s_i_glide_gridfile>  (164) 
pfpi4k_grid

>  <i_i_glide_lignum>  (164) 
22

>  <i_i_glide_rotatable_bonds>  (164) 
1

>  <r_i_docking_score>  (164) 
-3.39715

>  <r_i_glide_ligand_efficiency>  (164) 
-0.226476

>  <r_i_glide_ligand_efficiency_sa>  (164) 
-0.558539

>  <r_i_glide_ligand_efficiency_ln>  (164) 
-0.916155

>  <r_i_glide_gscore>  (164) 
-3.39715

>  <r_i_glide_lipo>  (164) 
-0.282913

>  <r_i_glide_hbond>  (164) 
0

>  <r_i_glide_metal>  (164) 
-0

>  <r_i_glide_rewards>  (164) 
-2.03386

>  <r_i_glide_evdw>  (164) 
-21.5202

>  <r_i_glide_ecoul>  (164) 
-1.67931

>  <r_i_glide_erotb>  (164) 
0.394182

>  <r_i_glide_esite>  (164) 
-0.146646

>  <r_i_glide_emodel>  (164) 
-28.2807

>  <r_i_glide_energy>  (164) 
-23.1995

>  <r_i_glide_einternal>  (164) 
0.0051039

>  <r_i_glide_intrahb_reward>  (164) 
-0

>  <i_i_glide_confnum>  (164) 
4

>  <i_i_glide_posenum>  (164) 
11

>  <r_i_glide_eff_state_penalty>  (164) 
0

>  <ligand_id>  (164) 
46

>  <original_smiles>  (164) 
c1nnn(C23CC4CC(CC(C4)C2)C3)n1

>  <smiles>  (164) 
[H]c1nnn(C23C([H])([H])C4([H])C([H])([H])C([H])(C([H])([H])C([H])(C4([H])[H])C2([H])[H])C3([H])[H])n1

$$$$
46:0:2
     RDKit          3D

 31 34  0  0  1  0  0  0  0  0999 V2000
    1.7631   -6.8163    1.3127 C   0  0  0  0  0  0  0  0  0  0  0  0
    2.9819   -7.2823    1.7020 N   0  0  0  0  0  0  0  0  0  0  0  0
    3.8475   -6.3959    1.3202 N   0  0  0  0  0  0  0  0  0  0  0  0
    3.1436   -5.4314    0.6853 N   0  0  0  0  0  0  0  0  0  0  0  0
    3.7610   -4.2132    0.1396 C   0  0  1  0  0  0  0  0  0  0  0  0
    2.7712   -3.4502   -0.7886 C   0  0  0  0  0  0  0  0  0  0  0  0
    3.4361   -2.1913   -1.3738 C   0  0  2  0  0  0  0  0  0  0  0  0
    4.6698   -2.5964   -2.1968 C   0  0  0  0  0  0  0  0  0  0  0  0
    5.6751   -3.3094   -1.2724 C   0  0  1  0  0  0  0  0  0  0  0  0
    6.0977   -2.3863   -0.1111 C   0  0  0  0  0  0  0  0  0  0  0  0
    4.8490   -1.9859    0.6986 C   0  0  1  0  0  0  0  0  0  0  0  0
    3.8542   -1.2529   -0.2221 C   0  0  0  0  0  0  0  0  0  0  0  0
    4.1842   -3.2539    1.2866 C   0  0  0  0  0  0  0  0  0  0  0  0
    5.0223   -4.5788   -0.6891 C   0  0  0  0  0  0  0  0  0  0  0  0
    1.8088   -5.6483    0.6956 N   0  0  0  0  0  0  0  0  0  0  0  0
    0.8341   -7.3421    1.4832 H   0  0  0  0  0  0  0  0  0  0  0  0
    2.4218   -4.0998   -1.5953 H   0  0  0  0  0  0  0  0  0  0  0  0
    1.8838   -3.1368   -0.2385 H   0  0  0  0  0  0  0  0  0  0  0  0
    2.7179   -1.6787   -2.0160 H   0  0  0  0  0  0  0  0  0  0  0  0
    4.3706   -3.2659   -3.0047 H   0  0  0  0  0  0  0  0  0  0  0  0
    5.1173   -1.7189   -2.6598 H   0  0  0  0  0  0  0  0  0  0  0  0
    6.5535   -3.5904   -1.8514 H   0  0  0  0  0  0  0  0  0  0  0  0
    6.8109   -2.8995    0.5346 H   0  0  0  0  0  0  0  0  0  0  0  0
    6.6006   -1.5002   -0.4950 H   0  0  0  0  0  0  0  0  0  0  0  0
    5.1427   -1.3194    1.5099 H   0  0  0  0  0  0  0  0  0  0  0  0
    4.2973   -0.3407   -0.6212 H   0  0  0  0  0  0  0  0  0  0  0  0
    2.9760   -0.9461    0.3461 H   0  0  0  0  0  0  0  0  0  0  0  0
    3.3192   -2.9735    1.8901 H   0  0  0  0  0  0  0  0  0  0  0  0
    4.8807   -3.7513    1.9646 H   0  0  0  0  0  0  0  0  0  0  0  0
    5.7573   -5.1051   -0.0759 H   0  0  0  0  0  0  0  0  0  0  0  0
    4.7585   -5.2609   -1.4974 H   0  0  0  0  0  0  0  0  0  0  0  0
  1 15  2  0
  1  2  1  0
  1 16  1  0
  2  3  2  0
  3  4  1  0
  5  4  1  1
  4 15  1  0
  5 13  1  0
  5 14  1  0
  5  6  1  0
  6  7  1  0
  6 17  1  0
  6 18  1  0
  7 12  1  0
  7  8  1  0
  7 19  1  6
  8  9  1  0
  8 20  1  0
  8 21  1  0
  9 10  1  0
  9 14  1  0
  9 22  1  6
 10 11  1  0
 10 23  1  0
 10 24  1  0
 11 12  1  0
 11 13  1  0
 11 25  1  1
 12 26  1  0
 12 27  1  0
 13 28  1  0
 13 29  1  0
 14 30  1  0
 14 31  1  0
M  END
>  <i_m_ct_stereo_status>  (165) 
1

>  <s_m_source_file>  (165) 
/var/tmp/pbs.5076255.sched01/tmpar858yha/42b8svm9_t.sdf

>  <i_m_source_file_index>  (165) 
22

>  <i_lp_mmshare_version>  (165) 
48012

>  <i_f3d_flags>  (165) 
0

>  <s_epik_input>  (165) 
bjFbY0hdbm5uMUMyM1tDSDJdW0NASF00W0NIMl1bQ0BASF0oW0NIMl0zKVtDSDJdW0NASF0oW0NIMl00KVtDSDJdMg==

>  <s_epik_cmdline>  (165) 
J2VwaWtfcHl0aG9uJywgJy1waHQnLCAnMi4wJywgJy1waCcsICc3LjAnLCAnLXRuJywgJzgnLCAnLW1hJywgJzIwMCcsICctaW1hZScsICc8aW5maWxlLm1hZT4nLCAnLW9tYWUnLCAnPG91dGZpbGUubWFlPic=

>  <r_lp_tautomer_probability>  (165) 
1

>  <r_epik_Ionization_Penalty>  (165) 
2.40438e-06

>  <r_epik_Ionization_Penalty_Charging>  (165) 
0

>  <r_epik_Ionization_Penalty_Neutral>  (165) 
2.40438e-06

>  <r_epik_State_Penalty>  (165) 
-0

>  <r_epik_Charging_Adjusted_Penalty>  (165) 
0

>  <i_epik_Tot_Q>  (165) 
0

>  <i_epik_Tot_abs_Q>  (165) 
0

>  <s_lp_Force_Field>  (165) 
OPLS3e

>  <r_lp_Energy>  (165) 
6.24452

>  <b_lp_Chiralities_Consistent>  (165) 
1

>  <s_lp_Variant>  (165) 
46:0-1

>  <s_i_glide_gridfile>  (165) 
pfpi4k_grid

>  <i_i_glide_lignum>  (165) 
22

>  <i_i_glide_rotatable_bonds>  (165) 
1

>  <r_i_docking_score>  (165) 
-3.25279

>  <r_i_glide_ligand_efficiency>  (165) 
-0.216853

>  <r_i_glide_ligand_efficiency_sa>  (165) 
-0.534805

>  <r_i_glide_ligand_efficiency_ln>  (165) 
-0.877225

>  <r_i_glide_gscore>  (165) 
-3.25279

>  <r_i_glide_lipo>  (165) 
-0.203838

>  <r_i_glide_hbond>  (165) 
-0.0938493

>  <r_i_glide_metal>  (165) 
-0

>  <r_i_glide_rewards>  (165) 
-2.01633

>  <r_i_glide_evdw>  (165) 
-19.5439

>  <r_i_glide_ecoul>  (165) 
-2.0032

>  <r_i_glide_erotb>  (165) 
0.394182

>  <r_i_glide_esite>  (165) 
-0.0552817

>  <r_i_glide_emodel>  (165) 
-26.3756

>  <r_i_glide_energy>  (165) 
-21.5471

>  <r_i_glide_einternal>  (165) 
0.0843152

>  <r_i_glide_intrahb_reward>  (165) 
-0

>  <i_i_glide_confnum>  (165) 
5

>  <i_i_glide_posenum>  (165) 
12

>  <r_i_glide_eff_state_penalty>  (165) 
0

>  <ligand_id>  (165) 
46

>  <original_smiles>  (165) 
c1nnn(C23CC4CC(CC(C4)C2)C3)n1

>  <smiles>  (165) 
[H]c1nnn(C23C([H])([H])C4([H])C([H])([H])C([H])(C([H])([H])C([H])(C4([H])[H])C2([H])[H])C3([H])[H])n1

$$$$
47:0:0
     RDKit          3D

 29 31  0  0  1  0  0  0  0  0999 V2000
    1.2809   -8.4319    2.0475 C   0  0  0  0  0  0  0  0  0  0  0  0
    1.8408   -7.2690    1.3677 C   0  0  0  0  0  0  0  0  0  0  0  0
    1.1323   -6.2378    0.9196 N   0  0  0  0  0  0  0  0  0  0  0  0
    2.1171   -5.3283    0.5004 O   0  0  0  0  0  0  0  0  0  0  0  0
    3.3154   -5.9013    0.7141 C   0  0  0  0  0  0  0  0  0  0  0  0
    4.5457   -5.1461    0.4954 C   0  0  0  0  0  0  0  0  0  0  0  0
    4.4703   -3.8526   -0.6863 S   0  0  0  0  0  0  0  0  0  0  0  0
    6.1497   -3.4160   -0.5212 C   0  0  0  0  0  0  0  0  0  0  0  0
    6.9974   -2.5505   -1.0311 N   0  0  0  0  0  0  0  0  0  0  0  0
    8.1753   -2.8380   -0.3497 C   0  0  0  0  0  0  0  0  0  0  0  0
    8.0012   -3.8727    0.5464 C   0  0  0  0  0  0  0  0  0  0  0  0
    6.6686   -4.2583    0.4398 N   0  0  0  0  0  0  0  0  0  0  0  0
    5.8366   -5.2065    1.0355 C   0  0  0  0  0  0  0  0  0  0  0  0
    6.3622   -6.1764    2.1033 C   0  0  0  0  0  0  0  0  0  0  0  0
    7.0038   -7.4311    1.4622 C   0  0  0  0  0  0  0  0  0  0  0  0
    5.4002   -6.5588    3.2522 C   0  0  0  0  0  0  0  0  0  0  0  0
    3.1746   -7.1297    1.1798 N   0  0  0  0  0  0  0  0  0  0  0  0
    0.2388   -8.5863    1.7890 H   0  0  0  0  0  0  0  0  0  0  0  0
    1.3674   -8.3465    3.1304 H   0  0  0  0  0  0  0  0  0  0  0  0
    1.8591   -9.2975    1.7451 H   0  0  0  0  0  0  0  0  0  0  0  0
    9.0570   -2.2561   -0.5538 H   0  0  0  0  0  0  0  0  0  0  0  0
    8.6697   -4.3428    1.2499 H   0  0  0  0  0  0  0  0  0  0  0  0
    7.1972   -5.6667    2.6062 H   0  0  0  0  0  0  0  0  0  0  0  0
    7.8335   -7.1733    0.7950 H   0  0  0  0  0  0  0  0  0  0  0  0
    6.2814   -8.0156    0.8862 H   0  0  0  0  0  0  0  0  0  0  0  0
    7.4179   -8.0914    2.2256 H   0  0  0  0  0  0  0  0  0  0  0  0
    4.9249   -5.6723    3.6616 H   0  0  0  0  0  0  0  0  0  0  0  0
    5.9197   -7.0871    4.0496 H   0  0  0  0  0  0  0  0  0  0  0  0
    4.6479   -7.2785    2.9735 H   0  0  0  0  0  0  0  0  0  0  0  0
  1  2  1  0
  1 18  1  0
  1 19  1  0
  1 20  1  0
  2 17  1  0
  2  3  2  0
  3  4  1  0
  4  5  1  0
  5  6  1  0
  5 17  2  0
  6 13  2  0
  6  7  1  0
  7  8  1  0
  8 12  1  0
  8  9  2  0
  9 10  1  0
 10 11  2  0
 10 21  1  0
 11 12  1  0
 11 22  1  0
 12 13  1  0
 13 14  1  0
 14 15  1  0
 14 16  1  0
 14 23  1  0
 15 24  1  0
 15 25  1  0
 15 26  1  0
 16 27  1  0
 16 28  1  0
 16 29  1  0
M  END
>  <i_m_ct_stereo_status>  (166) 
1

>  <s_m_source_file>  (166) 
/var/tmp/pbs.5076255.sched01/tmpar858yha/42b8svm9_t.sdf

>  <i_m_source_file_index>  (166) 
23

>  <i_lp_mmshare_version>  (166) 
48012

>  <i_f3d_flags>  (166) 
0

>  <s_epik_input>  (166) 
W0NIM11jMW5vYyhuMSktYyhzMiljKFtDSF0oW0NIM10pW0NIM10pbihjMjMpW2NIXVtjSF1uMw==

>  <s_epik_cmdline>  (166) 
J2VwaWtfcHl0aG9uJywgJy1waHQnLCAnMi4wJywgJy1waCcsICc3LjAnLCAnLXRuJywgJzgnLCAnLW1hJywgJzIwMCcsICctaW1hZScsICc8aW5maWxlLm1hZT4nLCAnLW9tYWUnLCAnPG91dGZpbGUubWFlPic=

>  <r_lp_tautomer_probability>  (166) 
1

>  <r_epik_Ionization_Penalty>  (166) 
4.53244e-05

>  <r_epik_Ionization_Penalty_Charging>  (166) 
0

>  <r_epik_Ionization_Penalty_Neutral>  (166) 
4.53244e-05

>  <r_epik_State_Penalty>  (166) 
-0

>  <r_epik_Charging_Adjusted_Penalty>  (166) 
0

>  <i_epik_Tot_Q>  (166) 
0

>  <i_epik_Tot_abs_Q>  (166) 
0

>  <s_lp_Force_Field>  (166) 
OPLS3e

>  <r_lp_Energy>  (166) 
1.54762

>  <b_lp_Chiralities_Consistent>  (166) 
1

>  <s_lp_Variant>  (166) 
47:0-1

>  <s_i_glide_gridfile>  (166) 
pfpi4k_grid

>  <i_i_glide_lignum>  (166) 
23

>  <i_i_glide_rotatable_bonds>  (166) 
2

>  <r_i_docking_score>  (166) 
-4.38308

>  <r_i_glide_ligand_efficiency>  (166) 
-0.257828

>  <r_i_glide_ligand_efficiency_sa>  (166) 
-0.66295

>  <r_i_glide_ligand_efficiency_ln>  (166) 
-1.14345

>  <r_i_glide_gscore>  (166) 
-4.38308

>  <r_i_glide_lipo>  (166) 
-0.518275

>  <r_i_glide_hbond>  (166) 
-0.100085

>  <r_i_glide_metal>  (166) 
-0

>  <r_i_glide_rewards>  (166) 
-2.00134

>  <r_i_glide_evdw>  (166) 
-20.5131

>  <r_i_glide_ecoul>  (166) 
-5.55307

>  <r_i_glide_erotb>  (166) 
0.283283

>  <r_i_glide_esite>  (166) 
-0.18805

>  <r_i_glide_emodel>  (166) 
-32.2648

>  <r_i_glide_energy>  (166) 
-26.0661

>  <r_i_glide_einternal>  (166) 
2.56662

>  <r_i_glide_intrahb_reward>  (166) 
-0

>  <i_i_glide_confnum>  (166) 
3

>  <i_i_glide_posenum>  (166) 
8

>  <r_i_glide_eff_state_penalty>  (166) 
0

>  <ligand_id>  (166) 
47

>  <original_smiles>  (166) 
Cc1noc(-c2sc3nccn3c2C(C)C)n1

>  <smiles>  (166) 
[H]c1nc2sc(-c3nc(C([H])([H])[H])no3)c(C([H])(C([H])([H])[H])C([H])([H])[H])n2c1[H]

$$$$
47:0:1
     RDKit          3D

 29 31  0  0  1  0  0  0  0  0999 V2000
    2.7465   -6.5551    3.2100 C   0  0  0  0  0  0  0  0  0  0  0  0
    2.4621   -5.9166    1.9101 C   0  0  0  0  0  0  0  0  0  0  0  0
    1.4631   -6.2875    1.1104 N   0  0  0  0  0  0  0  0  0  0  0  0
    1.6410   -5.4553   -0.0003 O   0  0  0  0  0  0  0  0  0  0  0  0
    2.6801   -4.6260    0.2989 C   0  0  0  0  0  0  0  0  0  0  0  0
    3.0331   -3.5870   -0.6706 C   0  0  0  0  0  0  0  0  0  0  0  0
    2.0584   -3.4500   -2.1249 S   0  0  0  0  0  0  0  0  0  0  0  0
    2.9602   -2.1231   -2.7954 C   0  0  0  0  0  0  0  0  0  0  0  0
    2.9840   -1.3708   -3.8529 N   0  0  0  0  0  0  0  0  0  0  0  0
    3.9833   -0.4561   -3.5634 C   0  0  0  0  0  0  0  0  0  0  0  0
    4.5988   -0.7572   -2.3719 C   0  0  0  0  0  0  0  0  0  0  0  0
    3.9238   -1.8468   -1.8449 N   0  0  0  0  0  0  0  0  0  0  0  0
    4.0157   -2.6154   -0.7115 C   0  0  0  0  0  0  0  0  0  0  0  0
    5.0772   -2.4400    0.3623 C   0  0  0  0  0  0  0  0  0  0  0  0
    5.0306   -1.0481    1.0077 C   0  0  0  0  0  0  0  0  0  0  0  0
    6.4820   -2.7906   -0.1517 C   0  0  0  0  0  0  0  0  0  0  0  0
    3.2133   -4.8793    1.4862 N   0  0  0  0  0  0  0  0  0  0  0  0
    2.2300   -7.5069    3.3069 H   0  0  0  0  0  0  0  0  0  0  0  0
    2.4196   -5.8915    4.0085 H   0  0  0  0  0  0  0  0  0  0  0  0
    3.8271   -6.7058    3.2956 H   0  0  0  0  0  0  0  0  0  0  0  0
    4.2021    0.3528   -4.2439 H   0  0  0  0  0  0  0  0  0  0  0  0
    5.4052   -0.3159   -1.8227 H   0  0  0  0  0  0  0  0  0  0  0  0
    4.9010   -3.1299    1.1815 H   0  0  0  0  0  0  0  0  0  0  0  0
    4.0532   -0.8578    1.4524 H   0  0  0  0  0  0  0  0  0  0  0  0
    5.2203   -0.2543    0.2911 H   0  0  0  0  0  0  0  0  0  0  0  0
    5.7814   -0.9526    1.7931 H   0  0  0  0  0  0  0  0  0  0  0  0
    6.5244   -3.8139   -0.5291 H   0  0  0  0  0  0  0  0  0  0  0  0
    7.2200   -2.7130    0.6486 H   0  0  0  0  0  0  0  0  0  0  0  0
    6.7916   -2.1264   -0.9562 H   0  0  0  0  0  0  0  0  0  0  0  0
  1  2  1  0
  1 18  1  0
  1 19  1  0
  1 20  1  0
  2 17  1  0
  2  3  2  0
  3  4  1  0
  4  5  1  0
  5  6  1  0
  5 17  2  0
  6 13  2  0
  6  7  1  0
  7  8  1  0
  8 12  1  0
  8  9  2  0
  9 10  1  0
 10 11  2  0
 10 21  1  0
 11 12  1  0
 11 22  1  0
 12 13  1  0
 13 14  1  0
 14 15  1  0
 14 16  1  0
 14 23  1  0
 15 24  1  0
 15 25  1  0
 15 26  1  0
 16 27  1  0
 16 28  1  0
 16 29  1  0
M  END
>  <i_m_ct_stereo_status>  (167) 
1

>  <s_m_source_file>  (167) 
/var/tmp/pbs.5076255.sched01/tmpar858yha/42b8svm9_t.sdf

>  <i_m_source_file_index>  (167) 
23

>  <i_lp_mmshare_version>  (167) 
48012

>  <i_f3d_flags>  (167) 
0

>  <s_epik_input>  (167) 
W0NIM11jMW5vYyhuMSktYyhzMiljKFtDSF0oW0NIM10pW0NIM10pbihjMjMpW2NIXVtjSF1uMw==

>  <s_epik_cmdline>  (167) 
J2VwaWtfcHl0aG9uJywgJy1waHQnLCAnMi4wJywgJy1waCcsICc3LjAnLCAnLXRuJywgJzgnLCAnLW1hJywgJzIwMCcsICctaW1hZScsICc8aW5maWxlLm1hZT4nLCAnLW9tYWUnLCAnPG91dGZpbGUubWFlPic=

>  <r_lp_tautomer_probability>  (167) 
1

>  <r_epik_Ionization_Penalty>  (167) 
4.53244e-05

>  <r_epik_Ionization_Penalty_Charging>  (167) 
0

>  <r_epik_Ionization_Penalty_Neutral>  (167) 
4.53244e-05

>  <r_epik_State_Penalty>  (167) 
-0

>  <r_epik_Charging_Adjusted_Penalty>  (167) 
0

>  <i_epik_Tot_Q>  (167) 
0

>  <i_epik_Tot_abs_Q>  (167) 
0

>  <s_lp_Force_Field>  (167) 
OPLS3e

>  <r_lp_Energy>  (167) 
1.54762

>  <b_lp_Chiralities_Consistent>  (167) 
1

>  <s_lp_Variant>  (167) 
47:0-1

>  <s_i_glide_gridfile>  (167) 
pfpi4k_grid

>  <i_i_glide_lignum>  (167) 
23

>  <i_i_glide_rotatable_bonds>  (167) 
2

>  <r_i_docking_score>  (167) 
-3.84419

>  <r_i_glide_ligand_efficiency>  (167) 
-0.226129

>  <r_i_glide_ligand_efficiency_sa>  (167) 
-0.58144

>  <r_i_glide_ligand_efficiency_ln>  (167) 
-1.00286

>  <r_i_glide_gscore>  (167) 
-3.84419

>  <r_i_glide_lipo>  (167) 
-0.612217

>  <r_i_glide_hbond>  (167) 
0

>  <r_i_glide_metal>  (167) 
-0

>  <r_i_glide_rewards>  (167) 
-1.7161

>  <r_i_glide_evdw>  (167) 
-21.1718

>  <r_i_glide_ecoul>  (167) 
-3.26045

>  <r_i_glide_erotb>  (167) 
0.283283

>  <r_i_glide_esite>  (167) 
-0.251492

>  <r_i_glide_emodel>  (167) 
-30.4949

>  <r_i_glide_energy>  (167) 
-24.4323

>  <r_i_glide_einternal>  (167) 
1.96392

>  <r_i_glide_intrahb_reward>  (167) 
-0

>  <i_i_glide_confnum>  (167) 
2

>  <i_i_glide_posenum>  (167) 
11

>  <r_i_glide_eff_state_penalty>  (167) 
0

>  <ligand_id>  (167) 
47

>  <original_smiles>  (167) 
Cc1noc(-c2sc3nccn3c2C(C)C)n1

>  <smiles>  (167) 
[H]c1nc2sc(-c3nc(C([H])([H])[H])no3)c(C([H])(C([H])([H])[H])C([H])([H])[H])n2c1[H]

$$$$
47:0:2
     RDKit          3D

 29 31  0  0  1  0  0  0  0  0999 V2000
    1.0614   -7.2422    2.0659 C   0  0  0  0  0  0  0  0  0  0  0  0
    1.8910   -6.0716    1.6775 C   0  0  0  0  0  0  0  0  0  0  0  0
    2.7048   -5.4869    2.5496 N   0  0  0  0  0  0  0  0  0  0  0  0
    3.2416   -4.4188    1.8115 O   0  0  0  0  0  0  0  0  0  0  0  0
    2.7243   -4.5057    0.5589 C   0  0  0  0  0  0  0  0  0  0  0  0
    3.0924   -3.4976   -0.4358 C   0  0  0  0  0  0  0  0  0  0  0  0
    2.0918   -3.4619   -1.8621 S   0  0  0  0  0  0  0  0  0  0  0  0
    2.9547   -2.1609   -2.6596 C   0  0  0  0  0  0  0  0  0  0  0  0
    2.9601   -1.4691   -3.7588 N   0  0  0  0  0  0  0  0  0  0  0  0
    3.9844   -0.5509   -3.5296 C   0  0  0  0  0  0  0  0  0  0  0  0
    4.6067   -0.7850   -2.3368 C   0  0  0  0  0  0  0  0  0  0  0  0
    3.9321   -1.8376   -1.7408 N   0  0  0  0  0  0  0  0  0  0  0  0
    4.0636   -2.5234   -0.5648 C   0  0  0  0  0  0  0  0  0  0  0  0
    5.1375   -2.2986    0.4780 C   0  0  0  0  0  0  0  0  0  0  0  0
    5.0795   -0.8825    1.0646 C   0  0  0  0  0  0  0  0  0  0  0  0
    6.5352   -2.6497   -0.0539 C   0  0  0  0  0  0  0  0  0  0  0  0
    1.8254   -5.4997    0.4421 N   0  0  0  0  0  0  0  0  0  0  0  0
    1.0900   -7.3773    3.1446 H   0  0  0  0  0  0  0  0  0  0  0  0
    1.4688   -8.1316    1.5933 H   0  0  0  0  0  0  0  0  0  0  0  0
    0.0359   -7.0810    1.7339 H   0  0  0  0  0  0  0  0  0  0  0  0
    4.1977    0.2142   -4.2726 H   0  0  0  0  0  0  0  0  0  0  0  0
    5.4139   -0.3030   -1.8375 H   0  0  0  0  0  0  0  0  0  0  0  0
    5.0157   -2.9532    1.3324 H   0  0  0  0  0  0  0  0  0  0  0  0
    4.1094   -0.6930    1.5240 H   0  0  0  0  0  0  0  0  0  0  0  0
    5.2344   -0.1202    0.3079 H   0  0  0  0  0  0  0  0  0  0  0  0
    5.8461   -0.7394    1.8286 H   0  0  0  0  0  0  0  0  0  0  0  0
    6.5815   -3.6895   -0.3870 H   0  0  0  0  0  0  0  0  0  0  0  0
    7.2896   -2.5334    0.7295 H   0  0  0  0  0  0  0  0  0  0  0  0
    6.8180   -2.0151   -0.8928 H   0  0  0  0  0  0  0  0  0  0  0  0
  1  2  1  0
  1 18  1  0
  1 19  1  0
  1 20  1  0
  2 17  1  0
  2  3  2  0
  3  4  1  0
  4  5  1  0
  5  6  1  0
  5 17  2  0
  6 13  2  0
  6  7  1  0
  7  8  1  0
  8 12  1  0
  8  9  2  0
  9 10  1  0
 10 11  2  0
 10 21  1  0
 11 12  1  0
 11 22  1  0
 12 13  1  0
 13 14  1  0
 14 15  1  0
 14 16  1  0
 14 23  1  0
 15 24  1  0
 15 25  1  0
 15 26  1  0
 16 27  1  0
 16 28  1  0
 16 29  1  0
M  END
>  <i_m_ct_stereo_status>  (168) 
1

>  <s_m_source_file>  (168) 
/var/tmp/pbs.5076255.sched01/tmpar858yha/42b8svm9_t.sdf

>  <i_m_source_file_index>  (168) 
23

>  <i_lp_mmshare_version>  (168) 
48012

>  <i_f3d_flags>  (168) 
0

>  <s_epik_input>  (168) 
W0NIM11jMW5vYyhuMSktYyhzMiljKFtDSF0oW0NIM10pW0NIM10pbihjMjMpW2NIXVtjSF1uMw==

>  <s_epik_cmdline>  (168) 
J2VwaWtfcHl0aG9uJywgJy1waHQnLCAnMi4wJywgJy1waCcsICc3LjAnLCAnLXRuJywgJzgnLCAnLW1hJywgJzIwMCcsICctaW1hZScsICc8aW5maWxlLm1hZT4nLCAnLW9tYWUnLCAnPG91dGZpbGUubWFlPic=

>  <r_lp_tautomer_probability>  (168) 
1

>  <r_epik_Ionization_Penalty>  (168) 
4.53244e-05

>  <r_epik_Ionization_Penalty_Charging>  (168) 
0

>  <r_epik_Ionization_Penalty_Neutral>  (168) 
4.53244e-05

>  <r_epik_State_Penalty>  (168) 
-0

>  <r_epik_Charging_Adjusted_Penalty>  (168) 
0

>  <i_epik_Tot_Q>  (168) 
0

>  <i_epik_Tot_abs_Q>  (168) 
0

>  <s_lp_Force_Field>  (168) 
OPLS3e

>  <r_lp_Energy>  (168) 
1.54762

>  <b_lp_Chiralities_Consistent>  (168) 
1

>  <s_lp_Variant>  (168) 
47:0-1

>  <s_i_glide_gridfile>  (168) 
pfpi4k_grid

>  <i_i_glide_lignum>  (168) 
23

>  <i_i_glide_rotatable_bonds>  (168) 
2

>  <r_i_docking_score>  (168) 
-3.71913

>  <r_i_glide_ligand_efficiency>  (168) 
-0.218772

>  <r_i_glide_ligand_efficiency_sa>  (168) 
-0.562525

>  <r_i_glide_ligand_efficiency_ln>  (168) 
-0.970238

>  <r_i_glide_gscore>  (168) 
-3.71913

>  <r_i_glide_lipo>  (168) 
-0.620608

>  <r_i_glide_hbond>  (168) 
-0.0940766

>  <r_i_glide_metal>  (168) 
-0

>  <r_i_glide_rewards>  (168) 
-1.7161

>  <r_i_glide_evdw>  (168) 
-21.8401

>  <r_i_glide_ecoul>  (168) 
-2.30267

>  <r_i_glide_erotb>  (168) 
0.283283

>  <r_i_glide_esite>  (168) 
-0.134222

>  <r_i_glide_emodel>  (168) 
-30.9418

>  <r_i_glide_energy>  (168) 
-24.1427

>  <r_i_glide_einternal>  (168) 
0.170569

>  <r_i_glide_intrahb_reward>  (168) 
-0

>  <i_i_glide_confnum>  (168) 
3

>  <i_i_glide_posenum>  (168) 
24

>  <r_i_glide_eff_state_penalty>  (168) 
0

>  <ligand_id>  (168) 
47

>  <original_smiles>  (168) 
Cc1noc(-c2sc3nccn3c2C(C)C)n1

>  <smiles>  (168) 
[H]c1nc2sc(-c3nc(C([H])([H])[H])no3)c(C([H])(C([H])([H])[H])C([H])([H])[H])n2c1[H]

$$$$
48:0:0
     RDKit          3D

 55 58  0  0  1  0  0  0  0  0999 V2000
    0.2224   -8.9587    6.7358 C   0  0  0  0  0  0  0  0  0  0  0  0
    0.6807   -9.8803    5.8712 C   0  0  0  0  0  0  0  0  0  0  0  0
    1.4803   -9.6662    4.5902 C   0  0  1  0  0  0  0  0  0  0  0  0
    0.9812  -10.7298    3.5833 C   0  0  0  0  0  0  0  0  0  0  0  0
    1.1306   -8.2448    4.0288 C   0  0  0  0  0  0  0  0  0  0  0  0
    2.0787   -7.8155    2.9456 C   0  0  0  0  0  0  0  0  0  0  0  0
    1.6602   -7.3043    1.8900 O   0  0  0  0  0  0  0  0  0  0  0  0
    3.5674   -8.0405    3.3011 C   0  0  1  0  0  0  0  0  0  0  0  0
    3.8656   -7.2045    4.6042 C   0  0  0  0  0  0  0  0  0  0  0  0
    3.7058   -9.5299    3.6439 C   0  0  1  0  0  0  0  0  0  0  0  0
    5.2422   -9.6860    3.7037 C   0  0  0  0  0  0  0  0  0  0  0  0
    5.7514   -8.8156    2.5372 C   0  0  1  0  0  0  0  0  0  0  0  0
    6.1679   -9.6637    1.3340 C   0  0  0  0  0  0  0  0  0  0  0  0
    4.6293   -7.7637    2.2215 C   0  0  1  0  0  0  0  0  0  0  0  0
    4.1586   -7.8792    0.8263 O   0  0  0  0  0  0  0  0  0  0  0  0
    4.5885   -6.5295    0.5366 C   0  0  1  0  0  0  0  0  0  0  0  0
    3.5178   -5.6370    0.2314 O   0  0  0  0  0  0  0  0  0  0  0  0
    3.8200   -4.2699    0.3514 C   0  0  1  0  0  0  0  0  0  0  0  0
    2.7407   -3.4557    0.0255 O   0  0  0  0  0  0  0  0  0  0  0  0
    2.1919   -3.7401   -1.2439 C   0  0  0  0  0  0  0  0  0  0  0  0
    4.1807   -3.9207    1.8293 C   0  0  0  0  0  0  0  0  0  0  0  0
    4.2685   -5.1692    2.6407 C   0  0  0  0  0  0  0  0  0  0  0  0
    5.0606   -6.3035    1.9675 C   0  0  1  0  0  0  0  0  0  0  0  0
    6.5448   -5.9850    2.1617 C   0  0  0  0  0  0  0  0  0  0  0  0
    2.9076   -9.8604    4.7939 O   0  0  0  0  0  0  0  0  0  0  0  0
    0.4192   -7.9038    6.6250 H   0  0  0  0  0  0  0  0  0  0  0  0
   -0.3415   -9.2602    7.6082 H   0  0  0  0  0  0  0  0  0  0  0  0
    0.4639  -10.9244    6.0742 H   0  0  0  0  0  0  0  0  0  0  0  0
   -0.1042  -10.6892    3.4823 H   0  0  0  0  0  0  0  0  0  0  0  0
    1.2551  -11.7323    3.9277 H   0  0  0  0  0  0  0  0  0  0  0  0
    1.3884  -10.5990    2.5816 H   0  0  0  0  0  0  0  0  0  0  0  0
    0.0972   -8.2243    3.6685 H   0  0  0  0  0  0  0  0  0  0  0  0
    1.2177   -7.4788    4.8022 H   0  0  0  0  0  0  0  0  0  0  0  0
    4.9488   -7.1626    4.7344 H   0  0  0  0  0  0  0  0  0  0  0  0
    3.4779   -7.6743    5.4901 H   0  0  0  0  0  0  0  0  0  0  0  0
    3.5150   -6.1953    4.5118 H   0  0  0  0  0  0  0  0  0  0  0  0
    3.4304  -10.1856    2.7946 H   0  0  0  0  0  0  0  0  0  0  0  0
    5.6435   -9.2760    4.6355 H   0  0  0  0  0  0  0  0  0  0  0  0
    5.6057  -10.7146    3.6521 H   0  0  0  0  0  0  0  0  0  0  0  0
    6.6566   -8.3135    2.8827 H   0  0  0  0  0  0  0  0  0  0  0  0
    5.3505  -10.2811    0.9748 H   0  0  0  0  0  0  0  0  0  0  0  0
    6.9955  -10.3103    1.5979 H   0  0  0  0  0  0  0  0  0  0  0  0
    6.5073   -9.0568    0.4885 H   0  0  0  0  0  0  0  0  0  0  0  0
    5.3747   -6.4915   -0.2335 H   0  0  0  0  0  0  0  0  0  0  0  0
    4.6604   -4.0228   -0.2994 H   0  0  0  0  0  0  0  0  0  0  0  0
    1.3694   -3.0425   -1.4515 H   0  0  0  0  0  0  0  0  0  0  0  0
    1.7589   -4.7374   -1.2611 H   0  0  0  0  0  0  0  0  0  0  0  0
    2.9382   -3.6397   -2.0328 H   0  0  0  0  0  0  0  0  0  0  0  0
    5.1350   -3.3757    1.8596 H   0  0  0  0  0  0  0  0  0  0  0  0
    3.4154   -3.2606    2.2514 H   0  0  0  0  0  0  0  0  0  0  0  0
    4.6565   -4.9445    3.6560 H   0  0  0  0  0  0  0  0  0  0  0  0
    3.2133   -5.4711    2.7931 H   0  0  0  0  0  0  0  0  0  0  0  0
    6.8118   -4.9704    1.8931 H   0  0  0  0  0  0  0  0  0  0  0  0
    7.1692   -6.6644    1.5711 H   0  0  0  0  0  0  0  0  0  0  0  0
    6.8021   -6.1357    3.2081 H   0  0  0  0  0  0  0  0  0  0  0  0
  1  2  2  0
  1 26  1  0
  1 27  1  0
  2  3  1  0
  2 28  1  0
  3 25  1  0
  3  4  1  6
  3  5  1  0
  4 29  1  0
  4 30  1  0
  4 31  1  0
  5  6  1  0
  5 32  1  0
  5 33  1  0
  6  7  2  0
  6  8  1  0
  8 14  1  0
  8  9  1  1
  8 10  1  0
  9 34  1  0
  9 35  1  0
  9 36  1  0
 10 11  1  0
 10 25  1  0
 10 37  1  6
 11 12  1  0
 11 38  1  0
 11 39  1  0
 12 13  1  0
 12 14  1  0
 12 40  1  1
 13 41  1  0
 13 42  1  0
 13 43  1  0
 14 23  1  0
 14 15  1  6
 15 16  1  0
 16 23  1  0
 16 17  1  0
 16 44  1  6
 17 18  1  0
 18 19  1  0
 18 21  1  0
 18 45  1  6
 19 20  1  0
 20 46  1  0
 20 47  1  0
 20 48  1  0
 21 22  1  0
 21 49  1  0
 21 50  1  0
 22 23  1  0
 22 51  1  0
 22 52  1  0
 23 24  1  6
 24 53  1  0
 24 54  1  0
 24 55  1  0
M  END
>  <i_m_ct_stereo_status>  (169) 
1

>  <s_m_source_file>  (169) 
/var/tmp/pbs.5076255.sched01/tmpar858yha/42b8svm9_t.sdf

>  <i_m_source_file_index>  (169) 
24

>  <i_lp_mmshare_version>  (169) 
48012

>  <i_f3d_flags>  (169) 
0

>  <s_epik_input>  (169) 
Tz1DMVtDSDJdW0NAXShbQ0gzXSkoW0NIXT1bQ0gyXSlPW0NASF0oW0NIMl1bQ0BIXTJbQ0gzXSlbQ0BAXTEoW0NIM10pW0NAQF0yM1tDQEBdNChbQ0gzXSlbQ0BASF0oTzMpT1tDQEBIXShPW0NIM10pW0NIMl1bQ0gyXTQ=

>  <s_epik_cmdline>  (169) 
J2VwaWtfcHl0aG9uJywgJy1waHQnLCAnMi4wJywgJy1waCcsICc3LjAnLCAnLXRuJywgJzgnLCAnLW1hJywgJzIwMCcsICctaW1hZScsICc8aW5maWxlLm1hZT4nLCAnLW9tYWUnLCAnPG91dGZpbGUubWFlPic=

>  <r_lp_tautomer_probability>  (169) 
1

>  <r_epik_Ionization_Penalty>  (169) 
5.29167e-12

>  <r_epik_Ionization_Penalty_Charging>  (169) 
0

>  <r_epik_Ionization_Penalty_Neutral>  (169) 
5.29167e-12

>  <r_epik_State_Penalty>  (169) 
-0

>  <r_epik_Charging_Adjusted_Penalty>  (169) 
0

>  <i_epik_Tot_Q>  (169) 
0

>  <i_epik_Tot_abs_Q>  (169) 
0

>  <s_epik_Chemistry_Notes>  (169) 
This compound contains an acetal/aminal-like group ( X-CH(R)-Y where X, Y are N, S, or O) that may be acid/base labile, releasing an aldehyde.

>  <s_lp_Force_Field>  (169) 
OPLS3e

>  <r_lp_Energy>  (169) 
24.4359

>  <b_lp_Chiralities_Consistent>  (169) 
1

>  <s_lp_Variant>  (169) 
48:0-1

>  <s_i_glide_gridfile>  (169) 
pfpi4k_grid

>  <i_i_glide_lignum>  (169) 
24

>  <i_i_glide_rotatable_bonds>  (169) 
2

>  <r_i_docking_score>  (169) 
-2.21864

>  <r_i_glide_ligand_efficiency>  (169) 
-0.0887455

>  <r_i_glide_ligand_efficiency_sa>  (169) 
-0.259493

>  <r_i_glide_ligand_efficiency_ln>  (169) 
-0.525884

>  <r_i_glide_gscore>  (169) 
-2.21864

>  <r_i_glide_lipo>  (169) 
-0.201704

>  <r_i_glide_hbond>  (169) 
0

>  <r_i_glide_metal>  (169) 
-0

>  <r_i_glide_rewards>  (169) 
-1.21236

>  <r_i_glide_evdw>  (169) 
-19.8387

>  <r_i_glide_ecoul>  (169) 
-0.374449

>  <r_i_glide_erotb>  (169) 
0.155201

>  <r_i_glide_esite>  (169) 
-0.00833374

>  <r_i_glide_emodel>  (169) 
-18.0536

>  <r_i_glide_energy>  (169) 
-20.2132

>  <r_i_glide_einternal>  (169) 
2.38152

>  <r_i_glide_intrahb_reward>  (169) 
-0

>  <i_i_glide_confnum>  (169) 
2

>  <i_i_glide_posenum>  (169) 
17

>  <r_i_glide_eff_state_penalty>  (169) 
0

>  <ligand_id>  (169) 
48

>  <original_smiles>  (169) 
C=CC1(C)CC(=O)C2(C)C(CC(C)C23OC2OC(OC)CCC23C)O1

>  <smiles>  (169) 
[H]C([H])=C([H])C1(C([H])([H])[H])OC2([H])C([H])([H])C([H])(C([H])([H])[H])C3(OC4([H])OC([H])(OC([H])([H])[H])C([H])([H])C([H])([H])C43C([H])([H])[H])C2(C([H])([H])[H])C(=O)C1([H])[H]

$$$$
48:0:1
     RDKit          3D

 55 58  0  0  1  0  0  0  0  0999 V2000
   -0.9229   -6.7923    4.6204 C   0  0  0  0  0  0  0  0  0  0  0  0
   -0.2425   -7.9043    4.2717 C   0  0  0  0  0  0  0  0  0  0  0  0
    0.9564   -7.9790    3.3299 C   0  0  1  0  0  0  0  0  0  0  0  0
    0.5508   -8.9616    2.2030 C   0  0  0  0  0  0  0  0  0  0  0  0
    1.1869   -6.5595    2.7028 C   0  0  0  0  0  0  0  0  0  0  0  0
    2.5248   -6.4633    1.9875 C   0  0  0  0  0  0  0  0  0  0  0  0
    2.5992   -5.9728    0.8691 O   0  0  0  0  0  0  0  0  0  0  0  0
    3.6926   -7.0209    2.8212 C   0  0  1  0  0  0  0  0  0  0  0  0
    3.7623   -6.2203    4.1635 C   0  0  0  0  0  0  0  0  0  0  0  0
    3.3197   -8.4787    3.1782 C   0  0  1  0  0  0  0  0  0  0  0  0
    4.6536   -9.0065    3.7364 C   0  0  0  0  0  0  0  0  0  0  0  0
    5.7201   -8.3927    2.8082 C   0  0  1  0  0  0  0  0  0  0  0  0
    6.2679   -9.4051    1.7990 C   0  0  0  0  0  0  0  0  0  0  0  0
    5.0811   -7.1004    2.1660 C   0  0  1  0  0  0  0  0  0  0  0  0
    5.0616   -7.2107    0.6849 O   0  0  0  0  0  0  0  0  0  0  0  0
    5.9037   -6.0514    0.5626 C   0  0  1  0  0  0  0  0  0  0  0  0
    5.2813   -4.9249   -0.1059 O   0  0  0  0  0  0  0  0  0  0  0  0
    5.8788   -3.6959    0.1447 C   0  0  1  0  0  0  0  0  0  0  0  0
    5.2413   -2.6493   -0.5387 O   0  0  0  0  0  0  0  0  0  0  0  0
    5.3079   -2.7596   -1.9399 C   0  0  0  0  0  0  0  0  0  0  0  0
    5.8372   -3.3080    1.6255 C   0  0  0  0  0  0  0  0  0  0  0  0
    5.2945   -4.4813    2.4671 C   0  0  0  0  0  0  0  0  0  0  0  0
    5.9612   -5.8218    2.0443 C   0  0  1  0  0  0  0  0  0  0  0  0
    7.3175   -5.8902    2.7350 C   0  0  0  0  0  0  0  0  0  0  0  0
    2.1410   -8.5028    3.9836 O   0  0  0  0  0  0  0  0  0  0  0  0
   -0.6716   -5.8090    4.2851 H   0  0  0  0  0  0  0  0  0  0  0  0
   -1.7843   -6.8649    5.2676 H   0  0  0  0  0  0  0  0  0  0  0  0
   -0.5535   -8.8450    4.6922 H   0  0  0  0  0  0  0  0  0  0  0  0
   -0.3870   -8.6619    1.7490 H   0  0  0  0  0  0  0  0  0  0  0  0
    0.4300   -9.9675    2.6130 H   0  0  0  0  0  0  0  0  0  0  0  0
    1.2874   -9.0118    1.4015 H   0  0  0  0  0  0  0  0  0  0  0  0
    0.3913   -6.3098    2.0127 H   0  0  0  0  0  0  0  0  0  0  0  0
    1.2405   -5.7911    3.4645 H   0  0  0  0  0  0  0  0  0  0  0  0
    4.7104   -6.3964    4.6481 H   0  0  0  0  0  0  0  0  0  0  0  0
    3.0027   -6.5254    4.8892 H   0  0  0  0  0  0  0  0  0  0  0  0
    3.6886   -5.1331    4.0042 H   0  0  0  0  0  0  0  0  0  0  0  0
    3.1784   -9.1015    2.2804 H   0  0  0  0  0  0  0  0  0  0  0  0
    4.8295   -8.6392    4.7501 H   0  0  0  0  0  0  0  0  0  0  0  0
    4.7290  -10.0983    3.8041 H   0  0  0  0  0  0  0  0  0  0  0  0
    6.5622   -8.1232    3.4531 H   0  0  0  0  0  0  0  0  0  0  0  0
    5.4811   -9.8541    1.1915 H   0  0  0  0  0  0  0  0  0  0  0  0
    6.7758  -10.2105    2.3246 H   0  0  0  0  0  0  0  0  0  0  0  0
    7.0040   -8.9625    1.1289 H   0  0  0  0  0  0  0  0  0  0  0  0
    6.8888   -6.2613    0.1003 H   0  0  0  0  0  0  0  0  0  0  0  0
    6.9302   -3.7219   -0.1848 H   0  0  0  0  0  0  0  0  0  0  0  0
    4.7834   -1.9070   -2.3774 H   0  0  0  0  0  0  0  0  0  0  0  0
    4.8328   -3.6760   -2.2928 H   0  0  0  0  0  0  0  0  0  0  0  0
    6.3485   -2.7379   -2.2681 H   0  0  0  0  0  0  0  0  0  0  0  0
    6.8140   -3.0241    1.9864 H   0  0  0  0  0  0  0  0  0  0  0  0
    5.1548   -2.4616    1.7947 H   0  0  0  0  0  0  0  0  0  0  0  0
    5.4244   -4.2625    3.5010 H   0  0  0  0  0  0  0  0  0  0  0  0
    4.2462   -4.4816    2.2147 H   0  0  0  0  0  0  0  0  0  0  0  0
    7.9445   -5.0154    2.5437 H   0  0  0  0  0  0  0  0  0  0  0  0
    7.8971   -6.7543    2.3774 H   0  0  0  0  0  0  0  0  0  0  0  0
    7.1792   -5.9937    3.8009 H   0  0  0  0  0  0  0  0  0  0  0  0
  1  2  2  0
  1 26  1  0
  1 27  1  0
  2  3  1  0
  2 28  1  0
  3 25  1  0
  3  4  1  6
  3  5  1  0
  4 29  1  0
  4 30  1  0
  4 31  1  0
  5  6  1  0
  5 32  1  0
  5 33  1  0
  6  7  2  0
  6  8  1  0
  8 14  1  0
  8  9  1  1
  8 10  1  0
  9 34  1  0
  9 35  1  0
  9 36  1  0
 10 11  1  0
 10 25  1  0
 10 37  1  6
 11 12  1  0
 11 38  1  0
 11 39  1  0
 12 13  1  0
 12 14  1  0
 12 40  1  1
 13 41  1  0
 13 42  1  0
 13 43  1  0
 14 23  1  0
 14 15  1  6
 15 16  1  0
 16 23  1  0
 16 17  1  0
 16 44  1  6
 17 18  1  0
 18 19  1  0
 18 21  1  0
 18 45  1  6
 19 20  1  0
 20 46  1  0
 20 47  1  0
 20 48  1  0
 21 22  1  0
 21 49  1  0
 21 50  1  0
 22 23  1  0
 22 51  1  0
 22 52  1  0
 23 24  1  1
 24 53  1  0
 24 54  1  0
 24 55  1  0
M  END
>  <i_m_ct_stereo_status>  (170) 
1

>  <s_m_source_file>  (170) 
/var/tmp/pbs.5076255.sched01/tmpar858yha/42b8svm9_t.sdf

>  <i_m_source_file_index>  (170) 
24

>  <i_lp_mmshare_version>  (170) 
48012

>  <i_f3d_flags>  (170) 
0

>  <s_epik_input>  (170) 
Tz1DMVtDSDJdW0NAXShbQ0gzXSkoW0NIXT1bQ0gyXSlPW0NASF0oW0NIMl1bQ0BIXTJbQ0gzXSlbQ0BAXTEoW0NIM10pW0NAQF0yM1tDQEBdNChbQ0gzXSlbQ0BASF0oTzMpT1tDQEBIXShPW0NIM10pW0NIMl1bQ0gyXTQ=

>  <s_epik_cmdline>  (170) 
J2VwaWtfcHl0aG9uJywgJy1waHQnLCAnMi4wJywgJy1waCcsICc3LjAnLCAnLXRuJywgJzgnLCAnLW1hJywgJzIwMCcsICctaW1hZScsICc8aW5maWxlLm1hZT4nLCAnLW9tYWUnLCAnPG91dGZpbGUubWFlPic=

>  <r_lp_tautomer_probability>  (170) 
1

>  <r_epik_Ionization_Penalty>  (170) 
5.29167e-12

>  <r_epik_Ionization_Penalty_Charging>  (170) 
0

>  <r_epik_Ionization_Penalty_Neutral>  (170) 
5.29167e-12

>  <r_epik_State_Penalty>  (170) 
-0

>  <r_epik_Charging_Adjusted_Penalty>  (170) 
0

>  <i_epik_Tot_Q>  (170) 
0

>  <i_epik_Tot_abs_Q>  (170) 
0

>  <s_epik_Chemistry_Notes>  (170) 
This compound contains an acetal/aminal-like group ( X-CH(R)-Y where X, Y are N, S, or O) that may be acid/base labile, releasing an aldehyde.

>  <s_lp_Force_Field>  (170) 
OPLS3e

>  <r_lp_Energy>  (170) 
24.4359

>  <b_lp_Chiralities_Consistent>  (170) 
1

>  <s_lp_Variant>  (170) 
48:0-1

>  <s_i_glide_gridfile>  (170) 
pfpi4k_grid

>  <i_i_glide_lignum>  (170) 
24

>  <i_i_glide_rotatable_bonds>  (170) 
2

>  <r_i_docking_score>  (170) 
-2.11432

>  <r_i_glide_ligand_efficiency>  (170) 
-0.0845729

>  <r_i_glide_ligand_efficiency_sa>  (170) 
-0.247293

>  <r_i_glide_ligand_efficiency_ln>  (170) 
-0.501158

>  <r_i_glide_gscore>  (170) 
-2.11432

>  <r_i_glide_lipo>  (170) 
-0.261868

>  <r_i_glide_hbond>  (170) 
0

>  <r_i_glide_metal>  (170) 
-0

>  <r_i_glide_rewards>  (170) 
-1.20766

>  <r_i_glide_evdw>  (170) 
-18.8635

>  <r_i_glide_ecoul>  (170) 
1.0011

>  <r_i_glide_erotb>  (170) 
0.155201

>  <r_i_glide_esite>  (170) 
-0.00698901

>  <r_i_glide_emodel>  (170) 
-17.5666

>  <r_i_glide_energy>  (170) 
-17.8624

>  <r_i_glide_einternal>  (170) 
0.649127

>  <r_i_glide_intrahb_reward>  (170) 
-0

>  <i_i_glide_confnum>  (170) 
4

>  <i_i_glide_posenum>  (170) 
24

>  <r_i_glide_eff_state_penalty>  (170) 
0

>  <ligand_id>  (170) 
48

>  <original_smiles>  (170) 
C=CC1(C)CC(=O)C2(C)C(CC(C)C23OC2OC(OC)CCC23C)O1

>  <smiles>  (170) 
[H]C([H])=C([H])C1(C([H])([H])[H])OC2([H])C([H])([H])C([H])(C([H])([H])[H])C3(OC4([H])OC([H])(OC([H])([H])[H])C([H])([H])C([H])([H])C43C([H])([H])[H])C2(C([H])([H])[H])C(=O)C1([H])[H]

$$$$
48:0:2
     RDKit          3D

 55 58  0  0  1  0  0  0  0  0999 V2000
   -1.9140    4.0269    3.2863 C   0  0  0  0  0  0  0  0  0  0  0  0
   -2.0333    2.8189    3.8421 C   0  0  0  0  0  0  0  0  0  0  0  0
   -0.8769    1.9275    4.3150 C   0  0  1  0  0  0  0  0  0  0  0  0
   -1.1951    1.5479    5.7730 C   0  0  0  0  0  0  0  0  0  0  0  0
   -0.9314    0.6309    3.4307 C   0  0  0  0  0  0  0  0  0  0  0  0
    0.3199   -0.2052    3.5914 C   0  0  0  0  0  0  0  0  0  0  0  0
    0.2599   -1.4183    3.8050 O   0  0  0  0  0  0  0  0  0  0  0  0
    1.6265    0.6263    3.4980 C   0  0  1  0  0  0  0  0  0  0  0  0
    1.6367    1.2957    2.0690 C   0  0  0  0  0  0  0  0  0  0  0  0
    1.5108    1.7276    4.5462 C   0  0  1  0  0  0  0  0  0  0  0  0
    2.9469    2.2931    4.5488 C   0  0  0  0  0  0  0  0  0  0  0  0
    3.8395    1.0383    4.4253 C   0  0  1  0  0  0  0  0  0  0  0  0
    4.4861    0.6562    5.7604 C   0  0  0  0  0  0  0  0  0  0  0  0
    2.9621   -0.0984    3.7760 C   0  0  1  0  0  0  0  0  0  0  0  0
    2.8709   -1.2795    4.6642 O   0  0  0  0  0  0  0  0  0  0  0  0
    3.5160   -2.1145    3.6690 C   0  0  1  0  0  0  0  0  0  0  0  0
    2.6857   -3.1526    3.1580 O   0  0  0  0  0  0  0  0  0  0  0  0
    3.0795   -3.6947    1.9215 C   0  0  1  0  0  0  0  0  0  0  0  0
    2.2455   -4.7237    1.5247 O   0  0  0  0  0  0  0  0  0  0  0  0
    2.7429   -5.5358    0.4753 C   0  0  0  0  0  0  0  0  0  0  0  0
    3.0368   -2.5856    0.8072 C   0  0  0  0  0  0  0  0  0  0  0  0
    2.7763   -1.2599    1.4090 C   0  0  0  0  0  0  0  0  0  0  0  0
    3.5961   -0.9645    2.6705 C   0  0  1  0  0  0  0  0  0  0  0  0
    4.9987   -0.5542    2.2003 C   0  0  0  0  0  0  0  0  0  0  0  0
    0.4035    2.5884    4.2648 O   0  0  0  0  0  0  0  0  0  0  0  0
   -0.9661    4.4881    3.0862 H   0  0  0  0  0  0  0  0  0  0  0  0
   -2.8102    4.5717    3.0004 H   0  0  0  0  0  0  0  0  0  0  0  0
   -3.0284    2.4183    3.9934 H   0  0  0  0  0  0  0  0  0  0  0  0
   -2.1961    1.1305    5.8665 H   0  0  0  0  0  0  0  0  0  0  0  0
   -1.1335    2.4399    6.4064 H   0  0  0  0  0  0  0  0  0  0  0  0
   -0.5145    0.7970    6.1762 H   0  0  0  0  0  0  0  0  0  0  0  0
   -1.8052    0.0224    3.6797 H   0  0  0  0  0  0  0  0  0  0  0  0
   -1.0115    0.8802    2.3675 H   0  0  0  0  0  0  0  0  0  0  0  0
    2.6467    1.6765    1.8885 H   0  0  0  0  0  0  0  0  0  0  0  0
    0.9819    2.1358    2.0074 H   0  0  0  0  0  0  0  0  0  0  0  0
    1.4202    0.5817    1.2901 H   0  0  0  0  0  0  0  0  0  0  0  0
    1.4184    1.3241    5.5695 H   0  0  0  0  0  0  0  0  0  0  0  0
    3.1229    2.9272    3.6697 H   0  0  0  0  0  0  0  0  0  0  0  0
    3.2061    2.9113    5.4117 H   0  0  0  0  0  0  0  0  0  0  0  0
    4.6597    1.3087    3.7556 H   0  0  0  0  0  0  0  0  0  0  0  0
    3.7429    0.4884    6.5344 H   0  0  0  0  0  0  0  0  0  0  0  0
    5.1414    1.4523    6.0930 H   0  0  0  0  0  0  0  0  0  0  0  0
    5.0958   -0.2372    5.6738 H   0  0  0  0  0  0  0  0  0  0  0  0
    4.4846   -2.5031    4.0111 H   0  0  0  0  0  0  0  0  0  0  0  0
    4.0973   -4.0735    2.0245 H   0  0  0  0  0  0  0  0  0  0  0  0
    1.9802   -6.2661    0.2016 H   0  0  0  0  0  0  0  0  0  0  0  0
    3.6360   -6.0655    0.8178 H   0  0  0  0  0  0  0  0  0  0  0  0
    2.9916   -4.9609   -0.4219 H   0  0  0  0  0  0  0  0  0  0  0  0
    3.9986   -2.5809    0.2639 H   0  0  0  0  0  0  0  0  0  0  0  0
    2.2536   -2.8092    0.0739 H   0  0  0  0  0  0  0  0  0  0  0  0
    2.8917   -0.4620    0.6439 H   0  0  0  0  0  0  0  0  0  0  0  0
    1.6937   -1.2767    1.6494 H   0  0  0  0  0  0  0  0  0  0  0  0
    5.4310   -1.2325    1.4809 H   0  0  0  0  0  0  0  0  0  0  0  0
    5.6877   -0.4727    3.0471 H   0  0  0  0  0  0  0  0  0  0  0  0
    4.9286    0.4265    1.7364 H   0  0  0  0  0  0  0  0  0  0  0  0
  1  2  2  0
  1 26  1  0
  1 27  1  0
  2  3  1  0
  2 28  1  0
  3 25  1  0
  3  4  1  1
  3  5  1  0
  4 29  1  0
  4 30  1  0
  4 31  1  0
  5  6  1  0
  5 32  1  0
  5 33  1  0
  6  7  2  0
  6  8  1  0
  8 14  1  0
  8  9  1  6
  8 10  1  0
  9 34  1  0
  9 35  1  0
  9 36  1  0
 10 11  1  0
 10 25  1  0
 10 37  1  1
 11 12  1  0
 11 38  1  0
 11 39  1  0
 12 13  1  0
 12 14  1  0
 12 40  1  6
 13 41  1  0
 13 42  1  0
 13 43  1  0
 14 23  1  0
 14 15  1  1
 15 16  1  0
 16 23  1  0
 16 17  1  0
 16 44  1  1
 17 18  1  0
 18 19  1  0
 18 21  1  0
 18 45  1  1
 19 20  1  0
 20 46  1  0
 20 47  1  0
 20 48  1  0
 21 22  1  0
 21 49  1  0
 21 50  1  0
 22 23  1  0
 22 51  1  0
 22 52  1  0
 23 24  1  6
 24 53  1  0
 24 54  1  0
 24 55  1  0
M  END
>  <i_m_ct_stereo_status>  (171) 
1

>  <s_m_source_file>  (171) 
/var/tmp/pbs.5076255.sched01/tmpar858yha/42b8svm9_t.sdf

>  <i_m_source_file_index>  (171) 
24

>  <i_lp_mmshare_version>  (171) 
48012

>  <i_f3d_flags>  (171) 
0

>  <s_epik_input>  (171) 
Tz1DMVtDSDJdW0NAXShbQ0gzXSkoW0NIXT1bQ0gyXSlPW0NASF0oW0NIMl1bQ0BIXTJbQ0gzXSlbQ0BAXTEoW0NIM10pW0NAQF0yM1tDQEBdNChbQ0gzXSlbQ0BASF0oTzMpT1tDQEBIXShPW0NIM10pW0NIMl1bQ0gyXTQ=

>  <s_epik_cmdline>  (171) 
J2VwaWtfcHl0aG9uJywgJy1waHQnLCAnMi4wJywgJy1waCcsICc3LjAnLCAnLXRuJywgJzgnLCAnLW1hJywgJzIwMCcsICctaW1hZScsICc8aW5maWxlLm1hZT4nLCAnLW9tYWUnLCAnPG91dGZpbGUubWFlPic=

>  <r_lp_tautomer_probability>  (171) 
1

>  <r_epik_Ionization_Penalty>  (171) 
5.29167e-12

>  <r_epik_Ionization_Penalty_Charging>  (171) 
0

>  <r_epik_Ionization_Penalty_Neutral>  (171) 
5.29167e-12

>  <r_epik_State_Penalty>  (171) 
-0

>  <r_epik_Charging_Adjusted_Penalty>  (171) 
0

>  <i_epik_Tot_Q>  (171) 
0

>  <i_epik_Tot_abs_Q>  (171) 
0

>  <s_epik_Chemistry_Notes>  (171) 
This compound contains an acetal/aminal-like group ( X-CH(R)-Y where X, Y are N, S, or O) that may be acid/base labile, releasing an aldehyde.

>  <s_lp_Force_Field>  (171) 
OPLS3e

>  <r_lp_Energy>  (171) 
24.4359

>  <b_lp_Chiralities_Consistent>  (171) 
1

>  <s_lp_Variant>  (171) 
48:0-1

>  <s_i_glide_gridfile>  (171) 
pfpi4k_grid

>  <i_i_glide_lignum>  (171) 
24

>  <i_i_glide_rotatable_bonds>  (171) 
2

>  <r_i_docking_score>  (171) 
-1.93574

>  <r_i_glide_ligand_efficiency>  (171) 
-0.0774295

>  <r_i_glide_ligand_efficiency_sa>  (171) 
-0.226405

>  <r_i_glide_ligand_efficiency_ln>  (171) 
-0.458828

>  <r_i_glide_gscore>  (171) 
-1.93574

>  <r_i_glide_lipo>  (171) 
-0.148099

>  <r_i_glide_hbond>  (171) 
-0.000215409

>  <r_i_glide_metal>  (171) 
-0

>  <r_i_glide_rewards>  (171) 
-1.01974

>  <r_i_glide_evdw>  (171) 
-20.1503

>  <r_i_glide_ecoul>  (171) 
0.679332

>  <r_i_glide_erotb>  (171) 
0.155201

>  <r_i_glide_esite>  (171) 
-0.0172685

>  <r_i_glide_emodel>  (171) 
-17.1437

>  <r_i_glide_energy>  (171) 
-19.471

>  <r_i_glide_einternal>  (171) 
2.71755

>  <r_i_glide_intrahb_reward>  (171) 
-0

>  <i_i_glide_confnum>  (171) 
3

>  <i_i_glide_posenum>  (171) 
35

>  <r_i_glide_eff_state_penalty>  (171) 
0

>  <ligand_id>  (171) 
48

>  <original_smiles>  (171) 
C=CC1(C)CC(=O)C2(C)C(CC(C)C23OC2OC(OC)CCC23C)O1

>  <smiles>  (171) 
[H]C([H])=C([H])C1(C([H])([H])[H])OC2([H])C([H])([H])C([H])(C([H])([H])[H])C3(OC4([H])OC([H])(OC([H])([H])[H])C([H])([H])C([H])([H])C43C([H])([H])[H])C2(C([H])([H])[H])C(=O)C1([H])[H]

$$$$
49:0:0
     RDKit          3D

 39 43  0  0  1  0  0  0  0  0999 V2000
    4.8657   -6.5387    3.8479 C   0  0  0  0  0  0  0  0  0  0  0  0
    4.4058   -6.8622    2.4051 C   0  0  2  0  0  0  0  0  0  0  0  0
    4.3857   -5.5757    1.5243 C   0  0  2  0  0  0  0  0  0  0  0  0
    3.0223   -4.9188    1.4568 C   0  0  0  0  0  0  0  0  0  0  0  0
    3.0527   -3.5437    0.8104 C   0  0  0  0  0  0  0  0  0  0  0  0
    3.6104   -3.6436   -0.6224 C   0  0  0  0  0  0  0  0  0  0  0  0
    4.9523   -4.4052   -0.6765 C   0  0  0  0  0  0  0  0  0  0  0  0
    4.9048   -5.7529    0.0849 C   0  0  0  0  0  0  0  0  0  0  0  0
    1.9468   -5.4868    1.8044 N   0  0  0  0  0  0  0  0  0  0  0  0
    1.9438   -6.8339    2.2019 C   0  0  0  0  0  0  0  0  0  0  0  0
    0.6809   -7.4666    2.3376 C   0  0  0  0  0  0  0  0  0  0  0  0
   -0.5757   -7.0207    2.1817 N   0  0  0  0  0  0  0  0  0  0  0  0
   -1.4291   -8.1079    2.4807 N   0  0  0  0  0  0  0  0  0  0  0  0
   -0.6434   -9.1497    2.7801 C   0  0  0  0  0  0  0  0  0  0  0  0
    0.6122   -8.7418    2.6851 N   0  0  0  0  0  0  0  0  0  0  0  0
    1.7289   -9.5283    2.9179 C   0  0  0  0  0  0  0  0  0  0  0  0
    1.7205  -10.8984    3.2813 C   0  0  0  0  0  0  0  0  0  0  0  0
    2.9178  -11.5927    3.5011 C   0  0  0  0  0  0  0  0  0  0  0  0
    4.1218  -10.9028    3.3432 C   0  0  0  0  0  0  0  0  0  0  0  0
    4.1686   -9.5987    3.0072 N   0  0  0  0  0  0  0  0  0  0  0  0
    3.0151   -8.9167    2.7899 C   0  0  0  0  0  0  0  0  0  0  0  0
    3.0800   -7.5752    2.4487 N   0  0  0  0  0  0  0  0  0  0  0  0
    5.8546   -6.0784    3.8554 H   0  0  0  0  0  0  0  0  0  0  0  0
    4.9403   -7.4371    4.4638 H   0  0  0  0  0  0  0  0  0  0  0  0
    4.1838   -5.8509    4.3518 H   0  0  0  0  0  0  0  0  0  0  0  0
    5.1373   -7.5415    1.9640 H   0  0  0  0  0  0  0  0  0  0  0  0
    3.6658   -2.8725    1.4113 H   0  0  0  0  0  0  0  0  0  0  0  0
    3.7240   -2.6465   -1.0515 H   0  0  0  0  0  0  0  0  0  0  0  0
    2.8788   -4.1556   -1.2485 H   0  0  0  0  0  0  0  0  0  0  0  0
    5.2178   -4.5873   -1.7177 H   0  0  0  0  0  0  0  0  0  0  0  0
    5.7409   -3.7752   -0.2624 H   0  0  0  0  0  0  0  0  0  0  0  0
    4.2652   -6.4562   -0.4504 H   0  0  0  0  0  0  0  0  0  0  0  0
    5.9043   -6.1871    0.0999 H   0  0  0  0  0  0  0  0  0  0  0  0
   -0.9839  -10.1388    3.0472 H   0  0  0  0  0  0  0  0  0  0  0  0
    0.7917  -11.4384    3.3953 H   0  0  0  0  0  0  0  0  0  0  0  0
    2.9103  -12.6408    3.7737 H   0  0  0  0  0  0  0  0  0  0  0  0
    5.0626  -11.4059    3.5033 H   0  0  0  0  0  0  0  0  0  0  0  0
    2.0543   -3.1111    0.7886 H   0  0  0  0  0  0  0  0  0  0  0  0
    5.0508   -4.8511    1.9908 H   0  0  0  0  0  0  0  0  0  0  0  0
  1  2  1  0
  1 23  1  0
  1 24  1  0
  1 25  1  0
  2 22  1  0
  2 26  1  6
  2  3  1  0
  3  4  1  0
  3  8  1  0
  3 39  1  1
  4  9  2  0
  4  5  1  0
  5  6  1  0
  5 27  1  0
  5 38  1  0
  6  7  1  0
  6 28  1  0
  6 29  1  0
  7  8  1  0
  7 30  1  0
  7 31  1  0
  8 32  1  0
  8 33  1  0
  9 10  1  0
 10 22  2  0
 10 11  1  0
 11 15  1  0
 11 12  2  0
 12 13  1  0
 13 14  2  0
 14 15  1  0
 14 34  1  0
 15 16  1  0
 16 21  2  0
 16 17  1  0
 17 18  2  0
 17 35  1  0
 18 19  1  0
 18 36  1  0
 19 20  2  0
 19 37  1  0
 20 21  1  0
 21 22  1  0
M  CHG  1  22   1
M  END
>  <i_m_ct_stereo_status>  (172) 
1

>  <s_m_source_file>  (172) 
/var/tmp/pbs.5076255.sched01/tmpar858yha/42b8svm9_t.sdf

>  <i_m_source_file_index>  (172) 
25

>  <i_lp_mmshare_version>  (172) 
48012

>  <i_f3d_flags>  (172) 
0

>  <s_epik_input>  (172) 
W2NIXTFbY0hdW2NIXW5jKE4yW0NAQEhdM1tDSDNdKWMxbihbY0hdbm40KWM0QzI9TkMoPUMzNSlbQ0gyXVtDSDJdW0NIMl1bQ0gyXTU=

>  <s_epik_cmdline>  (172) 
J2VwaWtfcHl0aG9uJywgJy1waHQnLCAnMi4wJywgJy1waCcsICc3LjAnLCAnLXRuJywgJzgnLCAnLW1hJywgJzIwMCcsICctaW1hZScsICc8aW5maWxlLm1hZT4nLCAnLW9tYWUnLCAnPG91dGZpbGUubWFlPic=

>  <r_lp_tautomer_probability>  (172) 
0.999601

>  <r_epik_Ionization_Penalty>  (172) 
0.003833

>  <r_epik_Ionization_Penalty_Charging>  (172) 
0

>  <r_epik_Ionization_Penalty_Neutral>  (172) 
0.003833

>  <r_epik_State_Penalty>  (172) 
0.00273645

>  <r_epik_Charging_Adjusted_Penalty>  (172) 
0.00273645

>  <i_epik_Tot_Q>  (172) 
1

>  <i_epik_Tot_abs_Q>  (172) 
1

>  <s_epik_Chemistry_Notes>  (172) 
This compound has an imine and may undergo hydrolysis.

>  <s_lp_Force_Field>  (172) 
OPLS3e

>  <r_lp_Energy>  (172) 
48.3634

>  <b_lp_Chiralities_Consistent>  (172) 
1

>  <s_lp_Variant>  (172) 
49:0-1

>  <s_i_glide_gridfile>  (172) 
pfpi4k_grid

>  <i_i_glide_lignum>  (172) 
25

>  <i_i_glide_rotatable_bonds>  (172) 
0

>  <r_i_docking_score>  (172) 
-4.13199

>  <r_i_glide_ligand_efficiency>  (172) 
-0.187818

>  <r_i_glide_ligand_efficiency_sa>  (172) 
-0.526273

>  <r_i_glide_ligand_efficiency_ln>  (172) 
-1.01001

>  <r_i_glide_gscore>  (172) 
-4.13199

>  <r_i_glide_lipo>  (172) 
-0.288309

>  <r_i_glide_hbond>  (172) 
-0.000875537

>  <r_i_glide_metal>  (172) 
-0

>  <r_i_glide_rewards>  (172) 
-1.409

>  <r_i_glide_evdw>  (172) 
-26.0589

>  <r_i_glide_ecoul>  (172) 
-6.1494

>  <r_i_glide_erotb>  (172) 
0

>  <r_i_glide_esite>  (172) 
-0.20845

>  <r_i_glide_emodel>  (172) 
-42.2425

>  <r_i_glide_energy>  (172) 
-32.2083

>  <r_i_glide_einternal>  (172) 
0

>  <r_i_glide_intrahb_reward>  (172) 
-0

>  <i_i_glide_confnum>  (172) 
2

>  <i_i_glide_posenum>  (172) 
19

>  <r_i_glide_eff_state_penalty>  (172) 
0

>  <ligand_id>  (172) 
49

>  <original_smiles>  (172) 
CC1C2=C(CCCC2)N=C2c3nncn3-c3cccnc3N21

>  <smiles>  (172) 
[H]c1nc2c(c([H])c1[H])n1c([H])nnc1c1[n+]2C([H])(C([H])([H])[H])C2([H])C(=N1)C([H])([H])C([H])([H])C([H])([H])C2([H])[H]

$$$$
49:0:1
     RDKit          3D

 39 43  0  0  1  0  0  0  0  0999 V2000
    4.7063   -5.0071    0.0427 C   0  0  0  0  0  0  0  0  0  0  0  0
    3.4741   -4.1091   -0.2301 C   0  0  2  0  0  0  0  0  0  0  0  0
    3.6429   -3.3014   -1.5502 C   0  0  2  0  0  0  0  0  0  0  0  0
    4.1979   -1.9119   -1.3334 C   0  0  0  0  0  0  0  0  0  0  0  0
    4.5892   -1.2165   -2.6195 C   0  0  0  0  0  0  0  0  0  0  0  0
    3.3792   -1.1105   -3.5666 C   0  0  0  0  0  0  0  0  0  0  0  0
    2.6789   -2.4706   -3.7662 C   0  0  0  0  0  0  0  0  0  0  0  0
    2.3809   -3.1841   -2.4306 C   0  0  0  0  0  0  0  0  0  0  0  0
    4.2554   -1.3387   -0.2077 N   0  0  0  0  0  0  0  0  0  0  0  0
    3.6662   -1.9322    0.9227 C   0  0  0  0  0  0  0  0  0  0  0  0
    3.5096   -1.1279    2.0787 C   0  0  0  0  0  0  0  0  0  0  0  0
    3.8395    0.1452    2.3485 N   0  0  0  0  0  0  0  0  0  0  0  0
    3.4625    0.3833    3.6919 N   0  0  0  0  0  0  0  0  0  0  0  0
    2.9104   -0.7453    4.1468 C   0  0  0  0  0  0  0  0  0  0  0  0
    2.9474   -1.6356    3.1664 N   0  0  0  0  0  0  0  0  0  0  0  0
    2.4733   -2.9342    3.2515 C   0  0  0  0  0  0  0  0  0  0  0  0
    1.8580   -3.5229    4.3847 C   0  0  0  0  0  0  0  0  0  0  0  0
    1.4134   -4.8535    4.3602 C   0  0  0  0  0  0  0  0  0  0  0  0
    1.6047   -5.5831    3.1864 C   0  0  0  0  0  0  0  0  0  0  0  0
    2.1750   -5.0535    2.0877 N   0  0  0  0  0  0  0  0  0  0  0  0
    2.6146   -3.7655    2.0977 C   0  0  0  0  0  0  0  0  0  0  0  0
    3.2203   -3.2367    0.9666 N   0  0  0  0  0  0  0  0  0  0  0  0
    4.8792   -5.6968   -0.7847 H   0  0  0  0  0  0  0  0  0  0  0  0
    4.5758   -5.6230    0.9330 H   0  0  0  0  0  0  0  0  0  0  0  0
    5.6176   -4.4218    0.1735 H   0  0  0  0  0  0  0  0  0  0  0  0
    2.6088   -4.7596   -0.3635 H   0  0  0  0  0  0  0  0  0  0  0  0
    5.3884   -1.7872   -3.0901 H   0  0  0  0  0  0  0  0  0  0  0  0
    3.6847   -0.7028   -4.5322 H   0  0  0  0  0  0  0  0  0  0  0  0
    2.6671   -0.3955   -3.1496 H   0  0  0  0  0  0  0  0  0  0  0  0
    1.7428   -2.3221   -4.3036 H   0  0  0  0  0  0  0  0  0  0  0  0
    3.2935   -3.1147   -4.3945 H   0  0  0  0  0  0  0  0  0  0  0  0
    1.5994   -2.6564   -1.9003 H   0  0  0  0  0  0  0  0  0  0  0  0
    1.9565   -4.1651   -2.6383 H   0  0  0  0  0  0  0  0  0  0  0  0
    2.5158   -0.8924    5.1414 H   0  0  0  0  0  0  0  0  0  0  0  0
    1.7144   -2.9592    5.2929 H   0  0  0  0  0  0  0  0  0  0  0  0
    0.9453   -5.2991    5.2256 H   0  0  0  0  0  0  0  0  0  0  0  0
    1.2804   -6.6112    3.1223 H   0  0  0  0  0  0  0  0  0  0  0  0
    4.9767   -0.2220   -2.3992 H   0  0  0  0  0  0  0  0  0  0  0  0
    4.3740   -3.8311   -2.1591 H   0  0  0  0  0  0  0  0  0  0  0  0
  1  2  1  0
  1 23  1  0
  1 24  1  0
  1 25  1  0
  2 22  1  0
  2 26  1  6
  2  3  1  0
  3  4  1  0
  3  8  1  0
  3 39  1  6
  4  9  2  0
  4  5  1  0
  5  6  1  0
  5 27  1  0
  5 38  1  0
  6  7  1  0
  6 28  1  0
  6 29  1  0
  7  8  1  0
  7 30  1  0
  7 31  1  0
  8 32  1  0
  8 33  1  0
  9 10  1  0
 10 22  2  0
 10 11  1  0
 11 15  1  0
 11 12  2  0
 12 13  1  0
 13 14  2  0
 14 15  1  0
 14 34  1  0
 15 16  1  0
 16 21  2  0
 16 17  1  0
 17 18  2  0
 17 35  1  0
 18 19  1  0
 18 36  1  0
 19 20  2  0
 19 37  1  0
 20 21  1  0
 21 22  1  0
M  CHG  1  22   1
M  END
>  <i_m_ct_stereo_status>  (173) 
1

>  <s_m_source_file>  (173) 
/var/tmp/pbs.5076255.sched01/tmpar858yha/42b8svm9_t.sdf

>  <i_m_source_file_index>  (173) 
25

>  <i_lp_mmshare_version>  (173) 
48012

>  <i_f3d_flags>  (173) 
0

>  <s_epik_input>  (173) 
W2NIXTFbY0hdW2NIXW5jKE4yW0NAQEhdM1tDSDNdKWMxbihbY0hdbm40KWM0QzI9TkMoPUMzNSlbQ0gyXVtDSDJdW0NIMl1bQ0gyXTU=

>  <s_epik_cmdline>  (173) 
J2VwaWtfcHl0aG9uJywgJy1waHQnLCAnMi4wJywgJy1waCcsICc3LjAnLCAnLXRuJywgJzgnLCAnLW1hJywgJzIwMCcsICctaW1hZScsICc8aW5maWxlLm1hZT4nLCAnLW9tYWUnLCAnPG91dGZpbGUubWFlPic=

>  <r_lp_tautomer_probability>  (173) 
0.999601

>  <r_epik_Ionization_Penalty>  (173) 
0.003833

>  <r_epik_Ionization_Penalty_Charging>  (173) 
0

>  <r_epik_Ionization_Penalty_Neutral>  (173) 
0.003833

>  <r_epik_State_Penalty>  (173) 
0.00273645

>  <r_epik_Charging_Adjusted_Penalty>  (173) 
0.00273645

>  <i_epik_Tot_Q>  (173) 
1

>  <i_epik_Tot_abs_Q>  (173) 
1

>  <s_epik_Chemistry_Notes>  (173) 
This compound has an imine and may undergo hydrolysis.

>  <s_lp_Force_Field>  (173) 
OPLS3e

>  <r_lp_Energy>  (173) 
48.3634

>  <b_lp_Chiralities_Consistent>  (173) 
1

>  <s_lp_Variant>  (173) 
49:0-1

>  <s_i_glide_gridfile>  (173) 
pfpi4k_grid

>  <i_i_glide_lignum>  (173) 
25

>  <i_i_glide_rotatable_bonds>  (173) 
0

>  <r_i_docking_score>  (173) 
-3.84736

>  <r_i_glide_ligand_efficiency>  (173) 
-0.17488

>  <r_i_glide_ligand_efficiency_sa>  (173) 
-0.490021

>  <r_i_glide_ligand_efficiency_ln>  (173) 
-0.940436

>  <r_i_glide_gscore>  (173) 
-3.84736

>  <r_i_glide_lipo>  (173) 
-0.584884

>  <r_i_glide_hbond>  (173) 
0

>  <r_i_glide_metal>  (173) 
-0

>  <r_i_glide_rewards>  (173) 
-1.409

>  <r_i_glide_evdw>  (173) 
-25.6758

>  <r_i_glide_ecoul>  (173) 
-3.42084

>  <r_i_glide_erotb>  (173) 
0

>  <r_i_glide_esite>  (173) 
-0.0565613

>  <r_i_glide_emodel>  (173) 
-38.432

>  <r_i_glide_energy>  (173) 
-29.0966

>  <r_i_glide_einternal>  (173) 
0

>  <r_i_glide_intrahb_reward>  (173) 
-0

>  <i_i_glide_confnum>  (173) 
2

>  <i_i_glide_posenum>  (173) 
37

>  <r_i_glide_eff_state_penalty>  (173) 
0

>  <ligand_id>  (173) 
49

>  <original_smiles>  (173) 
CC1C2=C(CCCC2)N=C2c3nncn3-c3cccnc3N21

>  <smiles>  (173) 
[H]c1nc2c(c([H])c1[H])n1c([H])nnc1c1[n+]2C([H])(C([H])([H])[H])C2([H])C(=N1)C([H])([H])C([H])([H])C([H])([H])C2([H])[H]

$$$$
49:0:2
     RDKit          3D

 39 43  0  0  1  0  0  0  0  0999 V2000
    4.1631    0.1259    2.9398 C   0  0  0  0  0  0  0  0  0  0  0  0
    2.8340   -0.1589    2.1997 C   0  0  2  0  0  0  0  0  0  0  0  0
    1.6144    0.1357    3.1237 C   0  0  2  0  0  0  0  0  0  0  0  0
    1.1123   -1.0919    3.8561 C   0  0  0  0  0  0  0  0  0  0  0  0
    0.0881   -0.7746    4.9320 C   0  0  0  0  0  0  0  0  0  0  0  0
   -1.1197   -0.0371    4.3193 C   0  0  0  0  0  0  0  0  0  0  0  0
   -0.6999    1.1663    3.4495 C   0  0  0  0  0  0  0  0  0  0  0  0
    0.4161    0.8157    2.4348 C   0  0  0  0  0  0  0  0  0  0  0  0
    1.4312   -2.2779    3.5515 N   0  0  0  0  0  0  0  0  0  0  0  0
    2.2198   -2.5404    2.4178 C   0  0  0  0  0  0  0  0  0  0  0  0
    2.3289   -3.8922    1.9995 C   0  0  0  0  0  0  0  0  0  0  0  0
    1.8190   -5.0376    2.4826 N   0  0  0  0  0  0  0  0  0  0  0  0
    2.2351   -6.0669    1.6038 N   0  0  0  0  0  0  0  0  0  0  0  0
    2.9853   -5.4939    0.6576 C   0  0  0  0  0  0  0  0  0  0  0  0
    3.0147   -4.1924    0.9037 N   0  0  0  0  0  0  0  0  0  0  0  0
    3.6586   -3.2471    0.1213 C   0  0  0  0  0  0  0  0  0  0  0  0
    4.4070   -3.5121   -1.0537 C   0  0  0  0  0  0  0  0  0  0  0  0
    5.0409   -2.4780   -1.7592 C   0  0  0  0  0  0  0  0  0  0  0  0
    4.9038   -1.1779   -1.2687 C   0  0  0  0  0  0  0  0  0  0  0  0
    4.2138   -0.8899   -0.1524 N   0  0  0  0  0  0  0  0  0  0  0  0
    3.5794   -1.8794    0.5302 C   0  0  0  0  0  0  0  0  0  0  0  0
    2.8613   -1.5683    1.6756 N   0  0  0  0  0  0  0  0  0  0  0  0
    4.1971    1.1585    3.2850 H   0  0  0  0  0  0  0  0  0  0  0  0
    5.0296   -0.0133    2.2916 H   0  0  0  0  0  0  0  0  0  0  0  0
    4.3024   -0.5114    3.8153 H   0  0  0  0  0  0  0  0  0  0  0  0
    2.7663    0.5165    1.3439 H   0  0  0  0  0  0  0  0  0  0  0  0
    0.5555   -0.1614    5.7026 H   0  0  0  0  0  0  0  0  0  0  0  0
   -1.8067    0.2855    5.1036 H   0  0  0  0  0  0  0  0  0  0  0  0
   -1.6863   -0.7323    3.7030 H   0  0  0  0  0  0  0  0  0  0  0  0
   -1.5703    1.5479    2.9152 H   0  0  0  0  0  0  0  0  0  0  0  0
   -0.3620    1.9750    4.0993 H   0  0  0  0  0  0  0  0  0  0  0  0
    0.0203    0.1600    1.6585 H   0  0  0  0  0  0  0  0  0  0  0  0
    0.7398    1.7288    1.9333 H   0  0  0  0  0  0  0  0  0  0  0  0
    3.4649   -6.0124   -0.1586 H   0  0  0  0  0  0  0  0  0  0  0  0
    4.5157   -4.5211   -1.4246 H   0  0  0  0  0  0  0  0  0  0  0  0
    5.6164   -2.6902   -2.6503 H   0  0  0  0  0  0  0  0  0  0  0  0
    5.3720   -0.3510   -1.7767 H   0  0  0  0  0  0  0  0  0  0  0  0
   -0.2397   -1.6955    5.4161 H   0  0  0  0  0  0  0  0  0  0  0  0
    1.9497    0.8305    3.8934 H   0  0  0  0  0  0  0  0  0  0  0  0
  1  2  1  0
  1 23  1  0
  1 24  1  0
  1 25  1  0
  2 22  1  0
  2 26  1  6
  2  3  1  0
  3  4  1  0
  3  8  1  0
  3 39  1  1
  4  9  2  0
  4  5  1  0
  5  6  1  0
  5 27  1  0
  5 38  1  0
  6  7  1  0
  6 28  1  0
  6 29  1  0
  7  8  1  0
  7 30  1  0
  7 31  1  0
  8 32  1  0
  8 33  1  0
  9 10  1  0
 10 22  2  0
 10 11  1  0
 11 15  1  0
 11 12  2  0
 12 13  1  0
 13 14  2  0
 14 15  1  0
 14 34  1  0
 15 16  1  0
 16 21  2  0
 16 17  1  0
 17 18  2  0
 17 35  1  0
 18 19  1  0
 18 36  1  0
 19 20  2  0
 19 37  1  0
 20 21  1  0
 21 22  1  0
M  CHG  1  22   1
M  END
>  <i_m_ct_stereo_status>  (174) 
1

>  <s_m_source_file>  (174) 
/var/tmp/pbs.5076255.sched01/tmpar858yha/42b8svm9_t.sdf

>  <i_m_source_file_index>  (174) 
25

>  <i_lp_mmshare_version>  (174) 
48012

>  <i_f3d_flags>  (174) 
0

>  <s_epik_input>  (174) 
W2NIXTFbY0hdW2NIXW5jKE4yW0NAQEhdM1tDSDNdKWMxbihbY0hdbm40KWM0QzI9TkMoPUMzNSlbQ0gyXVtDSDJdW0NIMl1bQ0gyXTU=

>  <s_epik_cmdline>  (174) 
J2VwaWtfcHl0aG9uJywgJy1waHQnLCAnMi4wJywgJy1waCcsICc3LjAnLCAnLXRuJywgJzgnLCAnLW1hJywgJzIwMCcsICctaW1hZScsICc8aW5maWxlLm1hZT4nLCAnLW9tYWUnLCAnPG91dGZpbGUubWFlPic=

>  <r_lp_tautomer_probability>  (174) 
0.999601

>  <r_epik_Ionization_Penalty>  (174) 
0.003833

>  <r_epik_Ionization_Penalty_Charging>  (174) 
0

>  <r_epik_Ionization_Penalty_Neutral>  (174) 
0.003833

>  <r_epik_State_Penalty>  (174) 
0.00273645

>  <r_epik_Charging_Adjusted_Penalty>  (174) 
0.00273645

>  <i_epik_Tot_Q>  (174) 
1

>  <i_epik_Tot_abs_Q>  (174) 
1

>  <s_epik_Chemistry_Notes>  (174) 
This compound has an imine and may undergo hydrolysis.

>  <s_lp_Force_Field>  (174) 
OPLS3e

>  <r_lp_Energy>  (174) 
48.3634

>  <b_lp_Chiralities_Consistent>  (174) 
1

>  <s_lp_Variant>  (174) 
49:0-1

>  <s_i_glide_gridfile>  (174) 
pfpi4k_grid

>  <i_i_glide_lignum>  (174) 
25

>  <i_i_glide_rotatable_bonds>  (174) 
0

>  <r_i_docking_score>  (174) 
-3.48706

>  <r_i_glide_ligand_efficiency>  (174) 
-0.158503

>  <r_i_glide_ligand_efficiency_sa>  (174) 
-0.444131

>  <r_i_glide_ligand_efficiency_ln>  (174) 
-0.852365

>  <r_i_glide_gscore>  (174) 
-3.48706

>  <r_i_glide_lipo>  (174) 
-0.00474679

>  <r_i_glide_hbond>  (174) 
0

>  <r_i_glide_metal>  (174) 
-0

>  <r_i_glide_rewards>  (174) 
-1.409

>  <r_i_glide_evdw>  (174) 
-24.8593

>  <r_i_glide_ecoul>  (174) 
-4.39351

>  <r_i_glide_erotb>  (174) 
0

>  <r_i_glide_esite>  (174) 
-0.17132

>  <r_i_glide_emodel>  (174) 
-37.6974

>  <r_i_glide_energy>  (174) 
-29.2528

>  <r_i_glide_einternal>  (174) 
0

>  <r_i_glide_intrahb_reward>  (174) 
-0

>  <i_i_glide_confnum>  (174) 
1

>  <i_i_glide_posenum>  (174) 
14

>  <r_i_glide_eff_state_penalty>  (174) 
0

>  <ligand_id>  (174) 
49

>  <original_smiles>  (174) 
CC1C2=C(CCCC2)N=C2c3nncn3-c3cccnc3N21

>  <smiles>  (174) 
[H]c1nc2c(c([H])c1[H])n1c([H])nnc1c1[n+]2C([H])(C([H])([H])[H])C2([H])C(=N1)C([H])([H])C([H])([H])C([H])([H])C2([H])[H]

$$$$
50:0:0
     RDKit          3D

 12 13  0  0  1  0  0  0  0  0999 V2000
    1.8485  -10.4130    2.8822 C   0  0  0  0  0  0  0  0  0  0  0  0
    2.5061   -9.4331    2.1143 C   0  0  0  0  0  0  0  0  0  0  0  0
    1.9531   -8.2669    1.7176 N   0  0  0  0  0  0  0  0  0  0  0  0
    0.6652   -8.1079    2.1149 C   0  0  0  0  0  0  0  0  0  0  0  0
   -0.1773   -7.0967    1.9120 N   0  0  0  0  0  0  0  0  0  0  0  0
   -1.3602   -7.4671    2.5456 N   0  0  0  0  0  0  0  0  0  0  0  0
   -1.2992   -8.6330    3.1179 N   0  0  0  0  0  0  0  0  0  0  0  0
   -0.0403   -9.0554    2.8697 N   0  0  0  0  0  0  0  0  0  0  0  0
    0.5075  -10.2616    3.2974 C   0  0  0  0  0  0  0  0  0  0  0  0
    2.3792  -11.3166    3.1423 H   0  0  0  0  0  0  0  0  0  0  0  0
    3.5301   -9.5975    1.8062 H   0  0  0  0  0  0  0  0  0  0  0  0
   -0.0706  -10.9669    3.8796 H   0  0  0  0  0  0  0  0  0  0  0  0
  1  9  2  0
  1  2  1  0
  1 10  1  0
  2  3  2  0
  2 11  1  0
  3  4  1  0
  4  8  1  0
  4  5  2  0
  5  6  1  0
  6  7  2  0
  7  8  1  0
  8  9  1  0
  9 12  1  0
M  END
>  <i_m_ct_stereo_status>  (175) 
1

>  <s_m_source_file>  (175) 
/var/tmp/pbs.5076255.sched01/tmpar858yha/42b8svm9_t.sdf

>  <i_m_source_file_index>  (175) 
26

>  <i_lp_mmshare_version>  (175) 
48012

>  <i_f3d_flags>  (175) 
0

>  <s_epik_input>  (175) 
bjFbY0hdW2NIXVtjSF1uKGMxMilubm4y

>  <s_epik_cmdline>  (175) 
J2VwaWtfcHl0aG9uJywgJy1waHQnLCAnMi4wJywgJy1waCcsICc3LjAnLCAnLXRuJywgJzgnLCAnLW1hJywgJzIwMCcsICctaW1hZScsICc8aW5maWxlLm1hZT4nLCAnLW9tYWUnLCAnPG91dGZpbGUubWFlPic=

>  <r_lp_tautomer_probability>  (175) 
1

>  <r_epik_Ionization_Penalty>  (175) 
3.47943e-11

>  <r_epik_Ionization_Penalty_Charging>  (175) 
0

>  <r_epik_Ionization_Penalty_Neutral>  (175) 
3.47943e-11

>  <r_epik_State_Penalty>  (175) 
-0

>  <r_epik_Charging_Adjusted_Penalty>  (175) 
0

>  <i_epik_Tot_Q>  (175) 
0

>  <i_epik_Tot_abs_Q>  (175) 
0

>  <s_lp_Force_Field>  (175) 
OPLS3e

>  <r_lp_Energy>  (175) 
14.6899

>  <b_lp_Chiralities_Consistent>  (175) 
1

>  <s_lp_Variant>  (175) 
50:0-1

>  <s_i_glide_gridfile>  (175) 
pfpi4k_grid

>  <i_i_glide_lignum>  (175) 
26

>  <i_i_glide_rotatable_bonds>  (175) 
0

>  <r_i_docking_score>  (175) 
-3.98091

>  <r_i_glide_ligand_efficiency>  (175) 
-0.442324

>  <r_i_glide_ligand_efficiency_sa>  (175) 
-0.92007

>  <r_i_glide_ligand_efficiency_ln>  (175) 
-1.24512

>  <r_i_glide_gscore>  (175) 
-3.98091

>  <r_i_glide_lipo>  (175) 
-0.0957746

>  <r_i_glide_hbond>  (175) 
0

>  <r_i_glide_metal>  (175) 
-0

>  <r_i_glide_rewards>  (175) 
-2.25

>  <r_i_glide_evdw>  (175) 
-16.2133

>  <r_i_glide_ecoul>  (175) 
-3.44572

>  <r_i_glide_erotb>  (175) 
0

>  <r_i_glide_esite>  (175) 
-0.307614

>  <r_i_glide_emodel>  (175) 
-25.6428

>  <r_i_glide_energy>  (175) 
-19.659

>  <r_i_glide_einternal>  (175) 
0

>  <r_i_glide_intrahb_reward>  (175) 
-0

>  <i_i_glide_confnum>  (175) 
1

>  <i_i_glide_posenum>  (175) 
34

>  <r_i_glide_eff_state_penalty>  (175) 
0

>  <ligand_id>  (175) 
50

>  <original_smiles>  (175) 
c1cnc2nnnn2c1

>  <smiles>  (175) 
[H]c1nc2nnnn2c([H])c1[H]

$$$$
50:0:1
     RDKit          3D

 12 13  0  0  1  0  0  0  0  0999 V2000
    0.2407  -10.1176    3.0060 C   0  0  0  0  0  0  0  0  0  0  0  0
   -0.9620   -9.3967    2.8758 C   0  0  0  0  0  0  0  0  0  0  0  0
   -1.0607   -8.1442    2.3877 N   0  0  0  0  0  0  0  0  0  0  0  0
    0.1296   -7.6163    2.0083 C   0  0  0  0  0  0  0  0  0  0  0  0
    0.4035   -6.4260    1.4837 N   0  0  0  0  0  0  0  0  0  0  0  0
    1.7840   -6.4069    1.3025 N   0  0  0  0  0  0  0  0  0  0  0  0
    2.3692   -7.5061    1.6785 N   0  0  0  0  0  0  0  0  0  0  0  0
    1.3555   -8.2826    2.1184 N   0  0  0  0  0  0  0  0  0  0  0  0
    1.4859   -9.5734    2.6229 C   0  0  0  0  0  0  0  0  0  0  0  0
    0.2132  -11.1159    3.4166 H   0  0  0  0  0  0  0  0  0  0  0  0
   -1.8914   -9.8541    3.1832 H   0  0  0  0  0  0  0  0  0  0  0  0
    2.4497  -10.0580    2.6919 H   0  0  0  0  0  0  0  0  0  0  0  0
  1  9  2  0
  1  2  1  0
  1 10  1  0
  2  3  2  0
  2 11  1  0
  3  4  1  0
  4  8  1  0
  4  5  2  0
  5  6  1  0
  6  7  2  0
  7  8  1  0
  8  9  1  0
  9 12  1  0
M  END
>  <i_m_ct_stereo_status>  (176) 
1

>  <s_m_source_file>  (176) 
/var/tmp/pbs.5076255.sched01/tmpar858yha/42b8svm9_t.sdf

>  <i_m_source_file_index>  (176) 
26

>  <i_lp_mmshare_version>  (176) 
48012

>  <i_f3d_flags>  (176) 
0

>  <s_epik_input>  (176) 
bjFbY0hdW2NIXVtjSF1uKGMxMilubm4y

>  <s_epik_cmdline>  (176) 
J2VwaWtfcHl0aG9uJywgJy1waHQnLCAnMi4wJywgJy1waCcsICc3LjAnLCAnLXRuJywgJzgnLCAnLW1hJywgJzIwMCcsICctaW1hZScsICc8aW5maWxlLm1hZT4nLCAnLW9tYWUnLCAnPG91dGZpbGUubWFlPic=

>  <r_lp_tautomer_probability>  (176) 
1

>  <r_epik_Ionization_Penalty>  (176) 
3.47943e-11

>  <r_epik_Ionization_Penalty_Charging>  (176) 
0

>  <r_epik_Ionization_Penalty_Neutral>  (176) 
3.47943e-11

>  <r_epik_State_Penalty>  (176) 
-0

>  <r_epik_Charging_Adjusted_Penalty>  (176) 
0

>  <i_epik_Tot_Q>  (176) 
0

>  <i_epik_Tot_abs_Q>  (176) 
0

>  <s_lp_Force_Field>  (176) 
OPLS3e

>  <r_lp_Energy>  (176) 
14.6899

>  <b_lp_Chiralities_Consistent>  (176) 
1

>  <s_lp_Variant>  (176) 
50:0-1

>  <s_i_glide_gridfile>  (176) 
pfpi4k_grid

>  <i_i_glide_lignum>  (176) 
26

>  <i_i_glide_rotatable_bonds>  (176) 
0

>  <r_i_docking_score>  (176) 
-3.91551

>  <r_i_glide_ligand_efficiency>  (176) 
-0.435057

>  <r_i_glide_ligand_efficiency_sa>  (176) 
-0.904954

>  <r_i_glide_ligand_efficiency_ln>  (176) 
-1.22466

>  <r_i_glide_gscore>  (176) 
-3.91551

>  <r_i_glide_lipo>  (176) 
-0.077281

>  <r_i_glide_hbond>  (176) 
0

>  <r_i_glide_metal>  (176) 
-0

>  <r_i_glide_rewards>  (176) 
-2.25

>  <r_i_glide_evdw>  (176) 
-14.4358

>  <r_i_glide_ecoul>  (176) 
-4.08919

>  <r_i_glide_erotb>  (176) 
0

>  <r_i_glide_esite>  (176) 
-0.253061

>  <r_i_glide_emodel>  (176) 
-24.4107

>  <r_i_glide_energy>  (176) 
-18.525

>  <r_i_glide_einternal>  (176) 
0

>  <r_i_glide_intrahb_reward>  (176) 
-0

>  <i_i_glide_confnum>  (176) 
1

>  <i_i_glide_posenum>  (176) 
12

>  <r_i_glide_eff_state_penalty>  (176) 
0

>  <ligand_id>  (176) 
50

>  <original_smiles>  (176) 
c1cnc2nnnn2c1

>  <smiles>  (176) 
[H]c1nc2nnnn2c([H])c1[H]

$$$$
50:0:2
     RDKit          3D

 12 13  0  0  1  0  0  0  0  0999 V2000
    1.5031  -10.3229    2.9033 C   0  0  0  0  0  0  0  0  0  0  0  0
    0.1642   -9.9838    3.1758 C   0  0  0  0  0  0  0  0  0  0  0  0
   -0.4197   -8.8146    2.8498 N   0  0  0  0  0  0  0  0  0  0  0  0
    0.4095   -7.9518    2.2130 C   0  0  0  0  0  0  0  0  0  0  0  0
    0.1762   -6.7254    1.7500 N   0  0  0  0  0  0  0  0  0  0  0  0
    1.3836   -6.3014    1.2012 N   0  0  0  0  0  0  0  0  0  0  0  0
    2.3349   -7.1813    1.3029 N   0  0  0  0  0  0  0  0  0  0  0  0
    1.7504   -8.2288    1.9218 N   0  0  0  0  0  0  0  0  0  0  0  0
    2.3769   -9.4316    2.2436 C   0  0  0  0  0  0  0  0  0  0  0  0
    1.8712  -11.2941    3.2042 H   0  0  0  0  0  0  0  0  0  0  0  0
   -0.4731  -10.6934    3.6803 H   0  0  0  0  0  0  0  0  0  0  0  0
    3.4125   -9.6138    1.9980 H   0  0  0  0  0  0  0  0  0  0  0  0
  1  9  2  0
  1  2  1  0
  1 10  1  0
  2  3  2  0
  2 11  1  0
  3  4  1  0
  4  8  1  0
  4  5  2  0
  5  6  1  0
  6  7  2  0
  7  8  1  0
  8  9  1  0
  9 12  1  0
M  END
>  <i_m_ct_stereo_status>  (177) 
1

>  <s_m_source_file>  (177) 
/var/tmp/pbs.5076255.sched01/tmpar858yha/42b8svm9_t.sdf

>  <i_m_source_file_index>  (177) 
26

>  <i_lp_mmshare_version>  (177) 
48012

>  <i_f3d_flags>  (177) 
0

>  <s_epik_input>  (177) 
bjFbY0hdW2NIXVtjSF1uKGMxMilubm4y

>  <s_epik_cmdline>  (177) 
J2VwaWtfcHl0aG9uJywgJy1waHQnLCAnMi4wJywgJy1waCcsICc3LjAnLCAnLXRuJywgJzgnLCAnLW1hJywgJzIwMCcsICctaW1hZScsICc8aW5maWxlLm1hZT4nLCAnLW9tYWUnLCAnPG91dGZpbGUubWFlPic=

>  <r_lp_tautomer_probability>  (177) 
1

>  <r_epik_Ionization_Penalty>  (177) 
3.47943e-11

>  <r_epik_Ionization_Penalty_Charging>  (177) 
0

>  <r_epik_Ionization_Penalty_Neutral>  (177) 
3.47943e-11

>  <r_epik_State_Penalty>  (177) 
-0

>  <r_epik_Charging_Adjusted_Penalty>  (177) 
0

>  <i_epik_Tot_Q>  (177) 
0

>  <i_epik_Tot_abs_Q>  (177) 
0

>  <s_lp_Force_Field>  (177) 
OPLS3e

>  <r_lp_Energy>  (177) 
14.6899

>  <b_lp_Chiralities_Consistent>  (177) 
1

>  <s_lp_Variant>  (177) 
50:0-1

>  <s_i_glide_gridfile>  (177) 
pfpi4k_grid

>  <i_i_glide_lignum>  (177) 
26

>  <i_i_glide_rotatable_bonds>  (177) 
0

>  <r_i_docking_score>  (177) 
-3.90643

>  <r_i_glide_ligand_efficiency>  (177) 
-0.434048

>  <r_i_glide_ligand_efficiency_sa>  (177) 
-0.902857

>  <r_i_glide_ligand_efficiency_ln>  (177) 
-1.22182

>  <r_i_glide_gscore>  (177) 
-3.90643

>  <r_i_glide_lipo>  (177) 
-0.154441

>  <r_i_glide_hbond>  (177) 
0

>  <r_i_glide_metal>  (177) 
-0

>  <r_i_glide_rewards>  (177) 
-2.25

>  <r_i_glide_evdw>  (177) 
-13.9295

>  <r_i_glide_ecoul>  (177) 
-3.64994

>  <r_i_glide_erotb>  (177) 
0

>  <r_i_glide_esite>  (177) 
-0.258025

>  <r_i_glide_emodel>  (177) 
-23.451

>  <r_i_glide_energy>  (177) 
-17.5795

>  <r_i_glide_einternal>  (177) 
0

>  <r_i_glide_intrahb_reward>  (177) 
-0

>  <i_i_glide_confnum>  (177) 
2

>  <i_i_glide_posenum>  (177) 
19

>  <r_i_glide_eff_state_penalty>  (177) 
0

>  <ligand_id>  (177) 
50

>  <original_smiles>  (177) 
c1cnc2nnnn2c1

>  <smiles>  (177) 
[H]c1nc2nnnn2c([H])c1[H]

$$$$
51:0:0
     RDKit          3D

 30 31  0  0  1  0  0  0  0  0999 V2000
    1.7507    0.1683    2.2220 C   0  0  0  0  0  0  0  0  0  0  0  0
    3.1312   -0.2056    1.8393 N   0  0  1  0  0  0  0  0  0  0  0  0
    3.8435   -0.9882    2.8870 C   0  0  0  0  0  0  0  0  0  0  0  0
    5.2933   -1.2346    2.4829 C   0  0  0  0  0  0  0  0  0  0  0  0
    5.3826   -1.9095    1.1155 C   0  0  0  0  0  0  0  0  0  0  0  0
    4.5989   -1.1503    0.0082 C   0  0  1  0  0  0  0  0  0  0  0  0
    4.5800   -1.8508   -1.3533 C   0  0  0  0  0  0  0  0  0  0  0  0
    5.5570   -2.8081   -1.6980 C   0  0  0  0  0  0  0  0  0  0  0  0
    5.4623   -3.4572   -2.9389 C   0  0  0  0  0  0  0  0  0  0  0  0
    4.5035   -3.2214   -3.8478 N   0  0  0  0  0  0  0  0  0  0  0  0
    3.5757   -2.3079   -3.5361 C   0  0  0  0  0  0  0  0  0  0  0  0
    3.5831   -1.5771   -2.3319 C   0  0  0  0  0  0  0  0  0  0  0  0
    3.1752   -0.9099    0.5347 C   0  0  0  0  0  0  0  0  0  0  0  0
    1.1278   -0.7297    2.3133 H   0  0  0  0  0  0  0  0  0  0  0  0
    1.2729    0.8129    1.4755 H   0  0  0  0  0  0  0  0  0  0  0  0
    1.7209    0.6942    3.1800 H   0  0  0  0  0  0  0  0  0  0  0  0
    3.7958   -0.4704    3.8410 H   0  0  0  0  0  0  0  0  0  0  0  0
    3.3199   -1.9403    2.9997 H   0  0  0  0  0  0  0  0  0  0  0  0
    5.8445   -0.2999    2.4498 H   0  0  0  0  0  0  0  0  0  0  0  0
    5.7840   -1.8656    3.2216 H   0  0  0  0  0  0  0  0  0  0  0  0
    6.4458   -1.9874    0.8808 H   0  0  0  0  0  0  0  0  0  0  0  0
    4.9857   -2.9284    1.1874 H   0  0  0  0  0  0  0  0  0  0  0  0
    5.0839   -0.1820   -0.1287 H   0  0  0  0  0  0  0  0  0  0  0  0
    6.3617   -3.1177   -1.0492 H   0  0  0  0  0  0  0  0  0  0  0  0
    6.1898   -4.2148   -3.1661 H   0  0  0  0  0  0  0  0  0  0  0  0
    2.8015   -2.1280   -4.2684 H   0  0  0  0  0  0  0  0  0  0  0  0
    2.7838   -0.8724   -2.2002 H   0  0  0  0  0  0  0  0  0  0  0  0
    2.6236   -1.8519    0.5968 H   0  0  0  0  0  0  0  0  0  0  0  0
    2.6271   -0.2888   -0.1392 H   0  0  0  0  0  0  0  0  0  0  0  0
    3.6380    0.6677    1.7203 H   0  0  0  0  0  0  0  0  0  0  0  0
  1  2  1  0
  1 14  1  0
  1 15  1  0
  1 16  1  0
  2 13  1  0
  2  3  1  0
  2 30  1  6
  3  4  1  0
  3 17  1  0
  3 18  1  0
  4  5  1  0
  4 19  1  0
  4 20  1  0
  5  6  1  0
  5 21  1  0
  5 22  1  0
  6  7  1  0
  6 13  1  0
  6 23  1  6
  7 12  1  0
  7  8  2  0
  8  9  1  0
  8 24  1  0
  9 10  2  0
  9 25  1  0
 10 11  1  0
 11 12  2  0
 11 26  1  0
 12 27  1  0
 13 28  1  0
 13 29  1  0
M  CHG  1   2   1
M  END
>  <i_m_ct_stereo_status>  (178) 
1

>  <s_m_source_file>  (178) 
/var/tmp/pbs.5076255.sched01/tmpar858yha/42b8svm9_t.sdf

>  <i_m_source_file_index>  (178) 
27

>  <i_lp_mmshare_version>  (178) 
48012

>  <i_f3d_flags>  (178) 
0

>  <s_epik_input>  (178) 
W0NIM11OMVtDSDJdW0NIMl1bQ0gyXVtDQEhdKFtDSDJdMSljMltjSF1bY0hdbltjSF1bY0hdMg==

>  <s_epik_cmdline>  (178) 
J2VwaWtfcHl0aG9uJywgJy1waHQnLCAnMi4wJywgJy1waCcsICc3LjAnLCAnLXRuJywgJzgnLCAnLW1hJywgJzIwMCcsICctaW1hZScsICc8aW5maWxlLm1hZT4nLCAnLW9tYWUnLCAnPG91dGZpbGUubWFlPic=

>  <r_epik_Ionization_Penalty>  (178) 
0.00584175

>  <r_epik_Ionization_Penalty_Charging>  (178) 
0.00260917

>  <r_epik_Ionization_Penalty_Neutral>  (178) 
0.00323258

>  <r_epik_State_Penalty>  (178) 
0.00644238

>  <r_epik_Charging_Adjusted_Penalty>  (178) 
0.00905155

>  <i_epik_Tot_Q>  (178) 
1

>  <i_epik_Tot_abs_Q>  (178) 
1

>  <s_lp_Force_Field>  (178) 
OPLS3e

>  <r_lp_Energy>  (178) 
28.9637

>  <b_lp_Chiralities_Consistent>  (178) 
1

>  <s_lp_Variant>  (178) 
51:0-1

>  <s_i_glide_gridfile>  (178) 
pfpi4k_grid

>  <i_i_glide_lignum>  (178) 
27

>  <i_i_glide_rotatable_bonds>  (178) 
1

>  <r_i_docking_score>  (178) 
-3.95513

>  <r_i_glide_ligand_efficiency>  (178) 
-0.30424

>  <r_i_glide_ligand_efficiency_sa>  (178) 
-0.715371

>  <r_i_glide_ligand_efficiency_ln>  (178) 
-1.10945

>  <r_i_glide_gscore>  (178) 
-3.95513

>  <r_i_glide_lipo>  (178) 
-0.623186

>  <r_i_glide_hbond>  (178) 
-6.17112e-05

>  <r_i_glide_metal>  (178) 
-0

>  <r_i_glide_rewards>  (178) 
-2.20046

>  <r_i_glide_evdw>  (178) 
-16.3215

>  <r_i_glide_ecoul>  (178) 
-5.34358

>  <r_i_glide_erotb>  (178) 
0.498475

>  <r_i_glide_esite>  (178) 
-0.0122846

>  <r_i_glide_emodel>  (178) 
-26.4016

>  <r_i_glide_energy>  (178) 
-21.6651

>  <r_i_glide_einternal>  (178) 
3.74187

>  <r_i_glide_intrahb_reward>  (178) 
-0

>  <i_i_glide_confnum>  (178) 
3

>  <i_i_glide_posenum>  (178) 
26

>  <r_i_glide_eff_state_penalty>  (178) 
0

>  <ligand_id>  (178) 
51

>  <original_smiles>  (178) 
CN1CCCC(c2ccncc2)C1

>  <smiles>  (178) 
[H]c1nc([H])c([H])c(C2([H])C([H])([H])C([H])([H])C([H])([H])[N+]([H])(C([H])([H])[H])C2([H])[H])c1[H]

$$$$
51:0:1
     RDKit          3D

 30 31  0  0  1  0  0  0  0  0999 V2000
    0.9092    2.1193    1.8821 C   0  0  0  0  0  0  0  0  0  0  0  0
    1.6013    0.9008    2.3632 N   0  0  1  0  0  0  0  0  0  0  0  0
    0.6573   -0.2226    2.5978 C   0  0  0  0  0  0  0  0  0  0  0  0
    1.3730   -1.4421    3.1979 C   0  0  0  0  0  0  0  0  0  0  0  0
    2.5319   -1.8870    2.3006 C   0  0  0  0  0  0  0  0  0  0  0  0
    3.4772   -0.7101    1.9968 C   0  0  1  0  0  0  0  0  0  0  0  0
    4.5659   -1.1170    1.0246 C   0  0  0  0  0  0  0  0  0  0  0  0
    4.2523   -1.4778   -0.3049 C   0  0  0  0  0  0  0  0  0  0  0  0
    5.2965   -1.8451   -1.1723 C   0  0  0  0  0  0  0  0  0  0  0  0
    6.5953   -1.8586   -0.7989 N   0  0  0  0  0  0  0  0  0  0  0  0
    6.8878   -1.5297    0.4790 C   0  0  0  0  0  0  0  0  0  0  0  0
    5.9183   -1.1403    1.4200 C   0  0  0  0  0  0  0  0  0  0  0  0
    2.6988    0.4996    1.4515 C   0  0  0  0  0  0  0  0  0  0  0  0
    0.4396    1.9310    0.9103 H   0  0  0  0  0  0  0  0  0  0  0  0
    1.6112    2.9475    1.7681 H   0  0  0  0  0  0  0  0  0  0  0  0
    0.1202    2.4408    2.5648 H   0  0  0  0  0  0  0  0  0  0  0  0
   -0.1482    0.0948    3.2571 H   0  0  0  0  0  0  0  0  0  0  0  0
    0.2126   -0.4975    1.6433 H   0  0  0  0  0  0  0  0  0  0  0  0
    1.7451   -1.2021    4.1938 H   0  0  0  0  0  0  0  0  0  0  0  0
    0.6682   -2.2658    3.3210 H   0  0  0  0  0  0  0  0  0  0  0  0
    3.0874   -2.7037    2.7676 H   0  0  0  0  0  0  0  0  0  0  0  0
    2.1225   -2.2825    1.3693 H   0  0  0  0  0  0  0  0  0  0  0  0
    3.9496   -0.4047    2.9335 H   0  0  0  0  0  0  0  0  0  0  0  0
    3.2306   -1.4731   -0.6642 H   0  0  0  0  0  0  0  0  0  0  0  0
    5.0778   -2.1214   -2.1954 H   0  0  0  0  0  0  0  0  0  0  0  0
    7.9344   -1.5500    0.7448 H   0  0  0  0  0  0  0  0  0  0  0  0
    6.2188   -0.8599    2.4194 H   0  0  0  0  0  0  0  0  0  0  0  0
    2.2586    0.2490    0.4841 H   0  0  0  0  0  0  0  0  0  0  0  0
    3.3841    1.3358    1.2979 H   0  0  0  0  0  0  0  0  0  0  0  0
    2.0254    1.1312    3.2507 H   0  0  0  0  0  0  0  0  0  0  0  0
  1  2  1  0
  1 14  1  0
  1 15  1  0
  1 16  1  0
  2 13  1  0
  2  3  1  0
  2 30  1  1
  3  4  1  0
  3 17  1  0
  3 18  1  0
  4  5  1  0
  4 19  1  0
  4 20  1  0
  5  6  1  0
  5 21  1  0
  5 22  1  0
  6  7  1  0
  6 13  1  0
  6 23  1  1
  7 12  1  0
  7  8  2  0
  8  9  1  0
  8 24  1  0
  9 10  2  0
  9 25  1  0
 10 11  1  0
 11 12  2  0
 11 26  1  0
 12 27  1  0
 13 28  1  0
 13 29  1  0
M  CHG  1   2   1
M  END
>  <i_m_ct_stereo_status>  (179) 
1

>  <s_m_source_file>  (179) 
/var/tmp/pbs.5076255.sched01/tmpar858yha/42b8svm9_t.sdf

>  <i_m_source_file_index>  (179) 
27

>  <i_lp_mmshare_version>  (179) 
48012

>  <i_f3d_flags>  (179) 
0

>  <s_epik_input>  (179) 
W0NIM11OMVtDSDJdW0NIMl1bQ0gyXVtDQEhdKFtDSDJdMSljMltjSF1bY0hdbltjSF1bY0hdMg==

>  <s_epik_cmdline>  (179) 
J2VwaWtfcHl0aG9uJywgJy1waHQnLCAnMi4wJywgJy1waCcsICc3LjAnLCAnLXRuJywgJzgnLCAnLW1hJywgJzIwMCcsICctaW1hZScsICc8aW5maWxlLm1hZT4nLCAnLW9tYWUnLCAnPG91dGZpbGUubWFlPic=

>  <r_epik_Ionization_Penalty>  (179) 
0.00584175

>  <r_epik_Ionization_Penalty_Charging>  (179) 
0.00260917

>  <r_epik_Ionization_Penalty_Neutral>  (179) 
0.00323258

>  <r_epik_State_Penalty>  (179) 
0.00644238

>  <r_epik_Charging_Adjusted_Penalty>  (179) 
0.00905155

>  <i_epik_Tot_Q>  (179) 
1

>  <i_epik_Tot_abs_Q>  (179) 
1

>  <s_lp_Force_Field>  (179) 
OPLS3e

>  <r_lp_Energy>  (179) 
28.9637

>  <b_lp_Chiralities_Consistent>  (179) 
1

>  <s_lp_Variant>  (179) 
51:0-1

>  <s_i_glide_gridfile>  (179) 
pfpi4k_grid

>  <i_i_glide_lignum>  (179) 
27

>  <i_i_glide_rotatable_bonds>  (179) 
1

>  <r_i_docking_score>  (179) 
-3.80498

>  <r_i_glide_ligand_efficiency>  (179) 
-0.292691

>  <r_i_glide_ligand_efficiency_sa>  (179) 
-0.688214

>  <r_i_glide_ligand_efficiency_ln>  (179) 
-1.06733

>  <r_i_glide_gscore>  (179) 
-3.80498

>  <r_i_glide_lipo>  (179) 
-0.21048

>  <r_i_glide_hbond>  (179) 
-0.16

>  <r_i_glide_metal>  (179) 
-0

>  <r_i_glide_rewards>  (179) 
-2.20046

>  <r_i_glide_evdw>  (179) 
-13.8717

>  <r_i_glide_ecoul>  (179) 
-6.77667

>  <r_i_glide_erotb>  (179) 
0.498475

>  <r_i_glide_esite>  (179) 
-0.0224326

>  <r_i_glide_emodel>  (179) 
-27.0829

>  <r_i_glide_energy>  (179) 
-20.6484

>  <r_i_glide_einternal>  (179) 
0.0300604

>  <r_i_glide_intrahb_reward>  (179) 
-0

>  <i_i_glide_confnum>  (179) 
3

>  <i_i_glide_posenum>  (179) 
30

>  <r_i_glide_eff_state_penalty>  (179) 
0

>  <ligand_id>  (179) 
51

>  <original_smiles>  (179) 
CN1CCCC(c2ccncc2)C1

>  <smiles>  (179) 
[H]c1nc([H])c([H])c(C2([H])C([H])([H])C([H])([H])C([H])([H])[N+]([H])(C([H])([H])[H])C2([H])[H])c1[H]

$$$$
51:0:2
     RDKit          3D

 30 31  0  0  1  0  0  0  0  0999 V2000
    2.0009   -2.3046    2.9867 C   0  0  0  0  0  0  0  0  0  0  0  0
    3.0698   -2.8206    2.0877 N   0  0  1  0  0  0  0  0  0  0  0  0
    3.1269   -4.3043    2.0808 C   0  0  0  0  0  0  0  0  0  0  0  0
    4.3241   -4.8093    1.2544 C   0  0  0  0  0  0  0  0  0  0  0  0
    4.2359   -4.2732   -0.1759 C   0  0  0  0  0  0  0  0  0  0  0  0
    4.0993   -2.7363   -0.1920 C   0  0  1  0  0  0  0  0  0  0  0  0
    3.9054   -2.1813   -1.6024 C   0  0  0  0  0  0  0  0  0  0  0  0
    3.1826   -2.8886   -2.5869 C   0  0  0  0  0  0  0  0  0  0  0  0
    3.0466   -2.3232   -3.8637 C   0  0  0  0  0  0  0  0  0  0  0  0
    3.5658   -1.1258   -4.2078 N   0  0  0  0  0  0  0  0  0  0  0  0
    4.2038   -0.4177   -3.2437 C   0  0  0  0  0  0  0  0  0  0  0  0
    4.4296   -0.9207   -1.9503 C   0  0  0  0  0  0  0  0  0  0  0  0
    2.9400   -2.2766    0.7133 C   0  0  0  0  0  0  0  0  0  0  0  0
    1.0108   -2.5966    2.6259 H   0  0  0  0  0  0  0  0  0  0  0  0
    2.0318   -1.2093    3.0490 H   0  0  0  0  0  0  0  0  0  0  0  0
    2.1237   -2.6961    4.0037 H   0  0  0  0  0  0  0  0  0  0  0  0
    3.2074   -4.6869    3.0986 H   0  0  0  0  0  0  0  0  0  0  0  0
    2.1991   -4.7034    1.6675 H   0  0  0  0  0  0  0  0  0  0  0  0
    5.2691   -4.5282    1.7233 H   0  0  0  0  0  0  0  0  0  0  0  0
    4.3103   -5.9000    1.2157 H   0  0  0  0  0  0  0  0  0  0  0  0
    5.1045   -4.5812   -0.7553 H   0  0  0  0  0  0  0  0  0  0  0  0
    3.3624   -4.7378   -0.6359 H   0  0  0  0  0  0  0  0  0  0  0  0
    5.0217   -2.3057    0.2042 H   0  0  0  0  0  0  0  0  0  0  0  0
    2.7224   -3.8462   -2.3914 H   0  0  0  0  0  0  0  0  0  0  0  0
    2.5152   -2.8614   -4.6328 H   0  0  0  0  0  0  0  0  0  0  0  0
    4.5693    0.5610   -3.5256 H   0  0  0  0  0  0  0  0  0  0  0  0
    4.9534   -0.3078   -1.2270 H   0  0  0  0  0  0  0  0  0  0  0  0
    2.0004   -2.6127    0.2769 H   0  0  0  0  0  0  0  0  0  0  0  0
    2.9033   -1.1818    0.7445 H   0  0  0  0  0  0  0  0  0  0  0  0
    3.9546   -2.4947    2.4522 H   0  0  0  0  0  0  0  0  0  0  0  0
  1  2  1  0
  1 14  1  0
  1 15  1  0
  1 16  1  0
  2 13  1  0
  2  3  1  0
  2 30  1  1
  3  4  1  0
  3 17  1  0
  3 18  1  0
  4  5  1  0
  4 19  1  0
  4 20  1  0
  5  6  1  0
  5 21  1  0
  5 22  1  0
  6  7  1  0
  6 13  1  0
  6 23  1  1
  7 12  1  0
  7  8  2  0
  8  9  1  0
  8 24  1  0
  9 10  2  0
  9 25  1  0
 10 11  1  0
 11 12  2  0
 11 26  1  0
 12 27  1  0
 13 28  1  0
 13 29  1  0
M  CHG  1   2   1
M  END
>  <i_m_ct_stereo_status>  (180) 
1

>  <s_m_source_file>  (180) 
/var/tmp/pbs.5076255.sched01/tmpar858yha/42b8svm9_t.sdf

>  <i_m_source_file_index>  (180) 
27

>  <i_lp_mmshare_version>  (180) 
48012

>  <i_f3d_flags>  (180) 
0

>  <s_epik_input>  (180) 
W0NIM11OMVtDSDJdW0NIMl1bQ0gyXVtDQEhdKFtDSDJdMSljMltjSF1bY0hdbltjSF1bY0hdMg==

>  <s_epik_cmdline>  (180) 
J2VwaWtfcHl0aG9uJywgJy1waHQnLCAnMi4wJywgJy1waCcsICc3LjAnLCAnLXRuJywgJzgnLCAnLW1hJywgJzIwMCcsICctaW1hZScsICc8aW5maWxlLm1hZT4nLCAnLW9tYWUnLCAnPG91dGZpbGUubWFlPic=

>  <r_epik_Ionization_Penalty>  (180) 
0.00584175

>  <r_epik_Ionization_Penalty_Charging>  (180) 
0.00260917

>  <r_epik_Ionization_Penalty_Neutral>  (180) 
0.00323258

>  <r_epik_State_Penalty>  (180) 
0.00644238

>  <r_epik_Charging_Adjusted_Penalty>  (180) 
0.00905155

>  <i_epik_Tot_Q>  (180) 
1

>  <i_epik_Tot_abs_Q>  (180) 
1

>  <s_lp_Force_Field>  (180) 
OPLS3e

>  <r_lp_Energy>  (180) 
28.9637

>  <b_lp_Chiralities_Consistent>  (180) 
1

>  <s_lp_Variant>  (180) 
51:0-1

>  <s_i_glide_gridfile>  (180) 
pfpi4k_grid

>  <i_i_glide_lignum>  (180) 
27

>  <i_i_glide_rotatable_bonds>  (180) 
1

>  <r_i_docking_score>  (180) 
-3.71605

>  <r_i_glide_ligand_efficiency>  (180) 
-0.28585

>  <r_i_glide_ligand_efficiency_sa>  (180) 
-0.67213

>  <r_i_glide_ligand_efficiency_ln>  (180) 
-1.04239

>  <r_i_glide_gscore>  (180) 
-3.71605

>  <r_i_glide_lipo>  (180) 
-0.379959

>  <r_i_glide_hbond>  (180) 
-0.0208939

>  <r_i_glide_metal>  (180) 
-0

>  <r_i_glide_rewards>  (180) 
-2.20046

>  <r_i_glide_evdw>  (180) 
-16.1662

>  <r_i_glide_ecoul>  (180) 
-5.34664

>  <r_i_glide_erotb>  (180) 
0.498475

>  <r_i_glide_esite>  (180) 
-0.00291489

>  <r_i_glide_emodel>  (180) 
-26.5695

>  <r_i_glide_energy>  (180) 
-21.5128

>  <r_i_glide_einternal>  (180) 
2.27352

>  <r_i_glide_intrahb_reward>  (180) 
-0

>  <i_i_glide_confnum>  (180) 
3

>  <i_i_glide_posenum>  (180) 
27

>  <r_i_glide_eff_state_penalty>  (180) 
0

>  <ligand_id>  (180) 
51

>  <original_smiles>  (180) 
CN1CCCC(c2ccncc2)C1

>  <smiles>  (180) 
[H]c1nc([H])c([H])c(C2([H])C([H])([H])C([H])([H])C([H])([H])[N+]([H])(C([H])([H])[H])C2([H])[H])c1[H]

$$$$
52:0:0
     RDKit          3D

 18 20  0  0  1  0  0  0  0  0999 V2000
    4.3778   -7.9051    1.3608 C   0  0  0  0  0  0  0  0  0  0  0  0
    5.5888   -7.1262    1.2876 N   0  0  0  0  0  0  0  0  0  0  0  0
    6.7771   -7.6110    1.7782 N   0  0  0  0  0  0  0  0  0  0  0  0
    7.6956   -6.6496    1.5521 C   0  0  0  0  0  0  0  0  0  0  0  0
    7.1696   -5.4898    0.9008 C   0  0  0  0  0  0  0  0  0  0  0  0
    5.8376   -5.8858    0.7785 C   0  0  0  0  0  0  0  0  0  0  0  0
    4.9657   -5.0174    0.1645 N   0  0  0  0  0  0  0  0  0  0  0  0
    5.4359   -3.8368   -0.2780 N   0  0  0  0  0  0  0  0  0  0  0  0
    6.7467   -3.4992   -0.1276 C   0  0  0  0  0  0  0  0  0  0  0  0
    7.3542   -2.3804   -0.5121 N   0  0  0  0  0  0  0  0  0  0  0  0
    8.6523   -2.6057   -0.1083 C   0  0  0  0  0  0  0  0  0  0  0  0
    8.9016   -3.7805    0.4763 N   0  0  0  0  0  0  0  0  0  0  0  0
    7.6615   -4.2767    0.4474 N   0  0  0  0  0  0  0  0  0  0  0  0
    3.5540   -7.3548    0.9145 H   0  0  0  0  0  0  0  0  0  0  0  0
    4.1486   -8.1122    2.4041 H   0  0  0  0  0  0  0  0  0  0  0  0
    4.5164   -8.8431    0.8277 H   0  0  0  0  0  0  0  0  0  0  0  0
    8.7312   -6.7561    1.8389 H   0  0  0  0  0  0  0  0  0  0  0  0
    9.4218   -1.8668   -0.2537 H   0  0  0  0  0  0  0  0  0  0  0  0
  1  2  1  0
  1 14  1  0
  1 15  1  0
  1 16  1  0
  2  6  1  0
  2  3  1  0
  3  4  2  0
  4  5  1  0
  4 17  1  0
  5 13  1  0
  5  6  2  0
  6  7  1  0
  7  8  2  0
  8  9  1  0
  9 13  1  0
  9 10  2  0
 10 11  1  0
 11 12  2  0
 11 18  1  0
 12 13  1  0
M  END
>  <i_m_ct_stereo_status>  (181) 
1

>  <s_m_source_file>  (181) 
/var/tmp/pbs.5076255.sched01/tmpar858yha/42b8svm9_t.sdf

>  <i_m_source_file_index>  (181) 
28

>  <i_lp_mmshare_version>  (181) 
48012

>  <i_f3d_flags>  (181) 
0

>  <s_epik_input>  (181) 
W2NIXTFubihbQ0gzXSljKGMxMilubmMzbjJuW2NIXW4z

>  <s_epik_cmdline>  (181) 
J2VwaWtfcHl0aG9uJywgJy1waHQnLCAnMi4wJywgJy1waCcsICc3LjAnLCAnLXRuJywgJzgnLCAnLW1hJywgJzIwMCcsICctaW1hZScsICc8aW5maWxlLm1hZT4nLCAnLW9tYWUnLCAnPG91dGZpbGUubWFlPic=

>  <r_lp_tautomer_probability>  (181) 
1

>  <r_epik_Ionization_Penalty>  (181) 
1.08174e-11

>  <r_epik_Ionization_Penalty_Charging>  (181) 
0

>  <r_epik_Ionization_Penalty_Neutral>  (181) 
1.08174e-11

>  <r_epik_State_Penalty>  (181) 
-0

>  <r_epik_Charging_Adjusted_Penalty>  (181) 
0

>  <i_epik_Tot_Q>  (181) 
0

>  <i_epik_Tot_abs_Q>  (181) 
0

>  <s_lp_Force_Field>  (181) 
OPLS3e

>  <r_lp_Energy>  (181) 
17.9625

>  <b_lp_Chiralities_Consistent>  (181) 
1

>  <s_lp_Variant>  (181) 
52:0-1

>  <s_i_glide_gridfile>  (181) 
pfpi4k_grid

>  <i_i_glide_lignum>  (181) 
28

>  <i_i_glide_rotatable_bonds>  (181) 
0

>  <r_i_docking_score>  (181) 
-4.44529

>  <r_i_glide_ligand_efficiency>  (181) 
-0.341945

>  <r_i_glide_ligand_efficiency_sa>  (181) 
-0.804028

>  <r_i_glide_ligand_efficiency_ln>  (181) 
-1.24694

>  <r_i_glide_gscore>  (181) 
-4.44529

>  <r_i_glide_lipo>  (181) 
-0.118511

>  <r_i_glide_hbond>  (181) 
-0.133901

>  <r_i_glide_metal>  (181) 
-0

>  <r_i_glide_rewards>  (181) 
-2.84523

>  <r_i_glide_evdw>  (181) 
-17.1363

>  <r_i_glide_ecoul>  (181) 
-3.04664

>  <r_i_glide_erotb>  (181) 
0

>  <r_i_glide_esite>  (181) 
-0.033838

>  <r_i_glide_emodel>  (181) 
-26.5405

>  <r_i_glide_energy>  (181) 
-20.1829

>  <r_i_glide_einternal>  (181) 
0

>  <r_i_glide_intrahb_reward>  (181) 
-0

>  <i_i_glide_confnum>  (181) 
1

>  <i_i_glide_posenum>  (181) 
2

>  <r_i_glide_eff_state_penalty>  (181) 
0

>  <ligand_id>  (181) 
52

>  <original_smiles>  (181) 
Cn1ncc2c1nnc1ncnn12

>  <smiles>  (181) 
[H]c1nc2nnc3c(c([H])nn3C([H])([H])[H])n2n1

$$$$
52:0:1
     RDKit          3D

 18 20  0  0  1  0  0  0  0  0999 V2000
    0.8398  -11.5621    4.1590 C   0  0  0  0  0  0  0  0  0  0  0  0
    1.6844  -10.6167    3.4838 N   0  0  0  0  0  0  0  0  0  0  0  0
    3.0391  -10.8222    3.3811 N   0  0  0  0  0  0  0  0  0  0  0  0
    3.5222   -9.7665    2.6988 C   0  0  0  0  0  0  0  0  0  0  0  0
    2.5297   -8.8036    2.3355 C   0  0  0  0  0  0  0  0  0  0  0  0
    1.4036   -9.4311    2.8689 C   0  0  0  0  0  0  0  0  0  0  0  0
    0.1916   -8.7966    2.7263 N   0  0  0  0  0  0  0  0  0  0  0  0
    0.1562   -7.6164    2.0735 N   0  0  0  0  0  0  0  0  0  0  0  0
    1.2911   -7.0535    1.5719 C   0  0  0  0  0  0  0  0  0  0  0  0
    1.4103   -5.9116    0.9021 N   0  0  0  0  0  0  0  0  0  0  0  0
    2.7718   -5.8535    0.6599 C   0  0  0  0  0  0  0  0  0  0  0  0
    3.4943   -6.8752    1.1344 N   0  0  0  0  0  0  0  0  0  0  0  0
    2.5037   -7.5855    1.6807 N   0  0  0  0  0  0  0  0  0  0  0  0
   -0.1844  -11.2030    4.1324 H   0  0  0  0  0  0  0  0  0  0  0  0
    1.1573  -11.6710    5.1955 H   0  0  0  0  0  0  0  0  0  0  0  0
    0.8871  -12.5209    3.6498 H   0  0  0  0  0  0  0  0  0  0  0  0
    4.5696   -9.6579    2.4646 H   0  0  0  0  0  0  0  0  0  0  0  0
    3.2250   -5.0317    0.1156 H   0  0  0  0  0  0  0  0  0  0  0  0
  1  2  1  0
  1 14  1  0
  1 15  1  0
  1 16  1  0
  2  6  1  0
  2  3  1  0
  3  4  2  0
  4  5  1  0
  4 17  1  0
  5 13  1  0
  5  6  2  0
  6  7  1  0
  7  8  2  0
  8  9  1  0
  9 13  1  0
  9 10  2  0
 10 11  1  0
 11 12  2  0
 11 18  1  0
 12 13  1  0
M  END
>  <i_m_ct_stereo_status>  (182) 
1

>  <s_m_source_file>  (182) 
/var/tmp/pbs.5076255.sched01/tmpar858yha/42b8svm9_t.sdf

>  <i_m_source_file_index>  (182) 
28

>  <i_lp_mmshare_version>  (182) 
48012

>  <i_f3d_flags>  (182) 
0

>  <s_epik_input>  (182) 
W2NIXTFubihbQ0gzXSljKGMxMilubmMzbjJuW2NIXW4z

>  <s_epik_cmdline>  (182) 
J2VwaWtfcHl0aG9uJywgJy1waHQnLCAnMi4wJywgJy1waCcsICc3LjAnLCAnLXRuJywgJzgnLCAnLW1hJywgJzIwMCcsICctaW1hZScsICc8aW5maWxlLm1hZT4nLCAnLW9tYWUnLCAnPG91dGZpbGUubWFlPic=

>  <r_lp_tautomer_probability>  (182) 
1

>  <r_epik_Ionization_Penalty>  (182) 
1.08174e-11

>  <r_epik_Ionization_Penalty_Charging>  (182) 
0

>  <r_epik_Ionization_Penalty_Neutral>  (182) 
1.08174e-11

>  <r_epik_State_Penalty>  (182) 
-0

>  <r_epik_Charging_Adjusted_Penalty>  (182) 
0

>  <i_epik_Tot_Q>  (182) 
0

>  <i_epik_Tot_abs_Q>  (182) 
0

>  <s_lp_Force_Field>  (182) 
OPLS3e

>  <r_lp_Energy>  (182) 
17.9625

>  <b_lp_Chiralities_Consistent>  (182) 
1

>  <s_lp_Variant>  (182) 
52:0-1

>  <s_i_glide_gridfile>  (182) 
pfpi4k_grid

>  <i_i_glide_lignum>  (182) 
28

>  <i_i_glide_rotatable_bonds>  (182) 
0

>  <r_i_docking_score>  (182) 
-4.14869

>  <r_i_glide_ligand_efficiency>  (182) 
-0.31913

>  <r_i_glide_ligand_efficiency_sa>  (182) 
-0.750381

>  <r_i_glide_ligand_efficiency_ln>  (182) 
-1.16374

>  <r_i_glide_gscore>  (182) 
-4.14869

>  <r_i_glide_lipo>  (182) 
-0.0321453

>  <r_i_glide_hbond>  (182) 
-0.15816

>  <r_i_glide_metal>  (182) 
-0

>  <r_i_glide_rewards>  (182) 
-2.38715

>  <r_i_glide_evdw>  (182) 
-17.5228

>  <r_i_glide_ecoul>  (182) 
-3.41448

>  <r_i_glide_erotb>  (182) 
0

>  <r_i_glide_esite>  (182) 
-0.182925

>  <r_i_glide_emodel>  (182) 
-26.8664

>  <r_i_glide_energy>  (182) 
-20.9373

>  <r_i_glide_einternal>  (182) 
0

>  <r_i_glide_intrahb_reward>  (182) 
-0

>  <i_i_glide_confnum>  (182) 
1

>  <i_i_glide_posenum>  (182) 
1

>  <r_i_glide_eff_state_penalty>  (182) 
0

>  <ligand_id>  (182) 
52

>  <original_smiles>  (182) 
Cn1ncc2c1nnc1ncnn12

>  <smiles>  (182) 
[H]c1nc2nnc3c(c([H])nn3C([H])([H])[H])n2n1

$$$$
52:0:2
     RDKit          3D

 18 20  0  0  1  0  0  0  0  0999 V2000
    4.9578   -5.8358    0.3466 C   0  0  0  0  0  0  0  0  0  0  0  0
    4.2311   -6.9643    0.8659 N   0  0  0  0  0  0  0  0  0  0  0  0
    4.8288   -8.1929    1.0121 N   0  0  0  0  0  0  0  0  0  0  0  0
    3.8801   -9.0131    1.5131 C   0  0  0  0  0  0  0  0  0  0  0  0
    2.6181   -8.3776    1.7188 C   0  0  0  0  0  0  0  0  0  0  0  0
    2.9385   -7.0921    1.2821 C   0  0  0  0  0  0  0  0  0  0  0  0
    1.9472   -6.1402    1.3033 N   0  0  0  0  0  0  0  0  0  0  0  0
    0.7271   -6.4942    1.7426 N   0  0  0  0  0  0  0  0  0  0  0  0
    0.4710   -7.7629    2.1673 C   0  0  0  0  0  0  0  0  0  0  0  0
   -0.6731   -8.2428    2.6297 N   0  0  0  0  0  0  0  0  0  0  0  0
   -0.3402   -9.5573    2.8919 C   0  0  0  0  0  0  0  0  0  0  0  0
    0.9223   -9.9165    2.6394 N   0  0  0  0  0  0  0  0  0  0  0  0
    1.3660   -8.7452    2.1865 N   0  0  0  0  0  0  0  0  0  0  0  0
    4.3091   -4.9629    0.2982 H   0  0  0  0  0  0  0  0  0  0  0  0
    5.3124   -6.0673   -0.6537 H   0  0  0  0  0  0  0  0  0  0  0  0
    5.8053   -5.6236    0.9958 H   0  0  0  0  0  0  0  0  0  0  0  0
    4.0700  -10.0547    1.7272 H   0  0  0  0  0  0  0  0  0  0  0  0
   -1.0655  -10.2587    3.2797 H   0  0  0  0  0  0  0  0  0  0  0  0
  1  2  1  0
  1 14  1  0
  1 15  1  0
  1 16  1  0
  2  6  1  0
  2  3  1  0
  3  4  2  0
  4  5  1  0
  4 17  1  0
  5 13  1  0
  5  6  2  0
  6  7  1  0
  7  8  2  0
  8  9  1  0
  9 13  1  0
  9 10  2  0
 10 11  1  0
 11 12  2  0
 11 18  1  0
 12 13  1  0
M  END
>  <i_m_ct_stereo_status>  (183) 
1

>  <s_m_source_file>  (183) 
/var/tmp/pbs.5076255.sched01/tmpar858yha/42b8svm9_t.sdf

>  <i_m_source_file_index>  (183) 
28

>  <i_lp_mmshare_version>  (183) 
48012

>  <i_f3d_flags>  (183) 
0

>  <s_epik_input>  (183) 
W2NIXTFubihbQ0gzXSljKGMxMilubmMzbjJuW2NIXW4z

>  <s_epik_cmdline>  (183) 
J2VwaWtfcHl0aG9uJywgJy1waHQnLCAnMi4wJywgJy1waCcsICc3LjAnLCAnLXRuJywgJzgnLCAnLW1hJywgJzIwMCcsICctaW1hZScsICc8aW5maWxlLm1hZT4nLCAnLW9tYWUnLCAnPG91dGZpbGUubWFlPic=

>  <r_lp_tautomer_probability>  (183) 
1

>  <r_epik_Ionization_Penalty>  (183) 
1.08174e-11

>  <r_epik_Ionization_Penalty_Charging>  (183) 
0

>  <r_epik_Ionization_Penalty_Neutral>  (183) 
1.08174e-11

>  <r_epik_State_Penalty>  (183) 
-0

>  <r_epik_Charging_Adjusted_Penalty>  (183) 
0

>  <i_epik_Tot_Q>  (183) 
0

>  <i_epik_Tot_abs_Q>  (183) 
0

>  <s_lp_Force_Field>  (183) 
OPLS3e

>  <r_lp_Energy>  (183) 
17.9625

>  <b_lp_Chiralities_Consistent>  (183) 
1

>  <s_lp_Variant>  (183) 
52:0-1

>  <s_i_glide_gridfile>  (183) 
pfpi4k_grid

>  <i_i_glide_lignum>  (183) 
28

>  <i_i_glide_rotatable_bonds>  (183) 
0

>  <r_i_docking_score>  (183) 
-3.99657

>  <r_i_glide_ligand_efficiency>  (183) 
-0.307428

>  <r_i_glide_ligand_efficiency_sa>  (183) 
-0.722867

>  <r_i_glide_ligand_efficiency_ln>  (183) 
-1.12107

>  <r_i_glide_gscore>  (183) 
-3.99657

>  <r_i_glide_lipo>  (183) 
-0.119058

>  <r_i_glide_hbond>  (183) 
0

>  <r_i_glide_metal>  (183) 
-0

>  <r_i_glide_rewards>  (183) 
-2.43797

>  <r_i_glide_evdw>  (183) 
-19.0857

>  <r_i_glide_ecoul>  (183) 
-1.82293

>  <r_i_glide_erotb>  (183) 
0

>  <r_i_glide_esite>  (183) 
-0.211816

>  <r_i_glide_emodel>  (183) 
-26.6147

>  <r_i_glide_energy>  (183) 
-20.9086

>  <r_i_glide_einternal>  (183) 
0

>  <r_i_glide_intrahb_reward>  (183) 
-0

>  <i_i_glide_confnum>  (183) 
2

>  <i_i_glide_posenum>  (183) 
20

>  <r_i_glide_eff_state_penalty>  (183) 
0

>  <ligand_id>  (183) 
52

>  <original_smiles>  (183) 
Cn1ncc2c1nnc1ncnn12

>  <smiles>  (183) 
[H]c1nc2nnc3c(c([H])nn3C([H])([H])[H])n2n1

$$$$
53:0:0
     RDKit          3D

 32 35  0  0  1  0  0  0  0  0999 V2000
    7.4321   -2.8257   -1.9197 N   0  0  0  0  0  0  0  0  0  0  0  0
    6.0489   -2.9209   -1.7657 C   0  0  0  0  0  0  0  0  0  0  0  0
    5.1935   -3.0379   -2.8868 C   0  0  0  0  0  0  0  0  0  0  0  0
    3.7948   -3.0521   -2.7253 C   0  0  0  0  0  0  0  0  0  0  0  0
    3.2439   -2.9675   -1.4339 C   0  0  0  0  0  0  0  0  0  0  0  0
    4.0931   -2.8817   -0.3104 C   0  0  0  0  0  0  0  0  0  0  0  0
    3.5449   -2.7814    0.9967 N   0  0  0  0  0  0  0  0  0  0  0  0
    3.7392   -1.6477    1.7255 C   0  0  0  0  0  0  0  0  0  0  0  0
    4.3684   -0.6713    1.3102 O   0  0  0  0  0  0  0  0  0  0  0  0
    3.1553   -1.6028    3.1148 C   0  0  0  0  0  0  0  0  0  0  0  0
    3.3517   -0.4504    3.9049 C   0  0  0  0  0  0  0  0  0  0  0  0
    2.8232   -0.3795    5.2027 C   0  0  0  0  0  0  0  0  0  0  0  0
    2.0944   -1.4660    5.7137 C   0  0  0  0  0  0  0  0  0  0  0  0
    1.8959   -2.6189    4.9298 C   0  0  0  0  0  0  0  0  0  0  0  0
    2.4230   -2.7017    3.6185 C   0  0  0  0  0  0  0  0  0  0  0  0
    2.2500   -3.8846    2.7533 C   0  0  0  0  0  0  0  0  0  0  0  0
    1.5465   -4.9357    3.2246 N   0  0  0  0  0  0  0  0  0  0  0  0
    1.3910   -6.0076    2.4412 N   0  0  0  0  0  0  0  0  0  0  0  0
    1.9103   -6.0643    1.2090 N   0  0  0  0  0  0  0  0  0  0  0  0
    2.6145   -5.0448    0.7095 N   0  0  0  0  0  0  0  0  0  0  0  0
    2.8045   -3.9249    1.4559 C   0  0  0  0  0  0  0  0  0  0  0  0
    5.4921   -2.8647   -0.4786 C   0  0  0  0  0  0  0  0  0  0  0  0
    7.8583   -3.0386   -2.8245 H   0  0  0  0  0  0  0  0  0  0  0  0
    8.0604   -2.9342   -1.1359 H   0  0  0  0  0  0  0  0  0  0  0  0
    5.6061   -3.0981   -3.8773 H   0  0  0  0  0  0  0  0  0  0  0  0
    3.1356   -3.1196   -3.5801 H   0  0  0  0  0  0  0  0  0  0  0  0
    2.1701   -2.9683   -1.3046 H   0  0  0  0  0  0  0  0  0  0  0  0
    3.9112    0.3899    3.5197 H   0  0  0  0  0  0  0  0  0  0  0  0
    2.9793    0.5068    5.7985 H   0  0  0  0  0  0  0  0  0  0  0  0
    1.6873   -1.4186    6.7098 H   0  0  0  0  0  0  0  0  0  0  0  0
    1.3348   -3.4495    5.3409 H   0  0  0  0  0  0  0  0  0  0  0  0
    6.1383   -2.7852    0.3858 H   0  0  0  0  0  0  0  0  0  0  0  0
  1  2  1  0
  1 23  1  0
  1 24  1  0
  2 22  2  0
  2  3  1  0
  3  4  2  0
  3 25  1  0
  4  5  1  0
  4 26  1  0
  5  6  2  0
  5 27  1  0
  6  7  1  0
  6 22  1  0
  7 21  1  0
  7  8  1  0
  8  9  2  0
  8 10  1  0
 10 15  2  0
 10 11  1  0
 11 12  2  0
 11 28  1  0
 12 13  1  0
 12 29  1  0
 13 14  2  0
 13 30  1  0
 14 15  1  0
 14 31  1  0
 15 16  1  0
 16 21  2  0
 16 17  1  0
 17 18  2  0
 18 19  1  0
 19 20  2  0
 20 21  1  0
 22 32  1  0
M  END
>  <i_m_ct_stereo_status>  (184) 
1

>  <s_m_source_file>  (184) 
/var/tmp/pbs.5076255.sched01/tmpar858yha/42b8svm9_t.sdf

>  <i_m_source_file_index>  (184) 
29

>  <i_lp_mmshare_version>  (184) 
48012

>  <i_f3d_flags>  (184) 
0

>  <s_epik_input>  (184) 
W05IMl1jMVtjSF1bY0hdW2NIXWMoW2NIXTEpLW4oYzI9TyljKG5ubm4zKWMzYyhjMjQpW2NIXVtjSF1bY0hdW2NIXTQ=

>  <s_epik_cmdline>  (184) 
J2VwaWtfcHl0aG9uJywgJy1waHQnLCAnMi4wJywgJy1waCcsICc3LjAnLCAnLXRuJywgJzgnLCAnLW1hJywgJzIwMCcsICctaW1hZScsICc8aW5maWxlLm1hZT4nLCAnLW9tYWUnLCAnPG91dGZpbGUubWFlPic=

>  <r_lp_tautomer_probability>  (184) 
1

>  <r_epik_Ionization_Penalty>  (184) 
1.67396e-05

>  <r_epik_Ionization_Penalty_Charging>  (184) 
6.29138e-12

>  <r_epik_Ionization_Penalty_Neutral>  (184) 
1.67396e-05

>  <r_epik_State_Penalty>  (184) 
-0

>  <r_epik_Charging_Adjusted_Penalty>  (184) 
6.29138e-12

>  <i_epik_Tot_Q>  (184) 
0

>  <i_epik_Tot_abs_Q>  (184) 
0

>  <s_lp_Force_Field>  (184) 
OPLS3e

>  <r_lp_Energy>  (184) 
53.3891

>  <b_lp_Chiralities_Consistent>  (184) 
1

>  <s_lp_Variant>  (184) 
53:0-1

>  <s_i_glide_gridfile>  (184) 
pfpi4k_grid

>  <i_i_glide_lignum>  (184) 
29

>  <i_i_glide_rotatable_bonds>  (184) 
1

>  <r_i_docking_score>  (184) 
-3.92252

>  <r_i_glide_ligand_efficiency>  (184) 
-0.178296

>  <r_i_glide_ligand_efficiency_sa>  (184) 
-0.499593

>  <r_i_glide_ligand_efficiency_ln>  (184) 
-0.958806

>  <r_i_glide_gscore>  (184) 
-3.92252

>  <r_i_glide_lipo>  (184) 
-0.259792

>  <r_i_glide_hbond>  (184) 
-0.32

>  <r_i_glide_metal>  (184) 
-0

>  <r_i_glide_rewards>  (184) 
-1.42991

>  <r_i_glide_evdw>  (184) 
-23.0214

>  <r_i_glide_ecoul>  (184) 
-5.09477

>  <r_i_glide_erotb>  (184) 
0.216259

>  <r_i_glide_esite>  (184) 
-0.213782

>  <r_i_glide_emodel>  (184) 
-35.0274

>  <r_i_glide_energy>  (184) 
-28.1162

>  <r_i_glide_einternal>  (184) 
0.0762335

>  <r_i_glide_intrahb_reward>  (184) 
-0

>  <i_i_glide_confnum>  (184) 
1

>  <i_i_glide_posenum>  (184) 
40

>  <r_i_glide_eff_state_penalty>  (184) 
0

>  <ligand_id>  (184) 
53

>  <original_smiles>  (184) 
Nc1cccc(-n2c(=O)c3ccccc3c3nnnnc32)c1

>  <smiles>  (184) 
[H]c1c([H])c(N([H])[H])c([H])c(-n2c(=O)c3c([H])c([H])c([H])c([H])c3c3nnnnc32)c1[H]

$$$$
53:0:1
     RDKit          3D

 32 35  0  0  1  0  0  0  0  0999 V2000
    2.0793   -2.6513   -3.9189 N   0  0  0  0  0  0  0  0  0  0  0  0
    3.1290   -2.9384   -3.0630 C   0  0  0  0  0  0  0  0  0  0  0  0
    4.4363   -3.1092   -3.5504 C   0  0  0  0  0  0  0  0  0  0  0  0
    5.4960   -3.3951   -2.6714 C   0  0  0  0  0  0  0  0  0  0  0  0
    5.2429   -3.5181   -1.2929 C   0  0  0  0  0  0  0  0  0  0  0  0
    3.9302   -3.3481   -0.8018 C   0  0  0  0  0  0  0  0  0  0  0  0
    3.6601   -3.4790    0.5853 N   0  0  0  0  0  0  0  0  0  0  0  0
    2.8524   -4.4828    1.0270 C   0  0  0  0  0  0  0  0  0  0  0  0
    2.3176   -5.3083    0.2844 O   0  0  0  0  0  0  0  0  0  0  0  0
    2.5877   -4.5707    2.5024 C   0  0  0  0  0  0  0  0  0  0  0  0
    1.7441   -5.5965    2.9868 C   0  0  0  0  0  0  0  0  0  0  0  0
    1.4698   -5.7005    4.3568 C   0  0  0  0  0  0  0  0  0  0  0  0
    2.0406   -4.7792    5.2480 C   0  0  0  0  0  0  0  0  0  0  0  0
    2.8812   -3.7544    4.7737 C   0  0  0  0  0  0  0  0  0  0  0  0
    3.1671   -3.6391    3.3929 C   0  0  0  0  0  0  0  0  0  0  0  0
    4.0419   -2.5865    2.8289 C   0  0  0  0  0  0  0  0  0  0  0  0
    4.6004   -1.6939    3.6692 N   0  0  0  0  0  0  0  0  0  0  0  0
    5.3842   -0.7420    3.1596 N   0  0  0  0  0  0  0  0  0  0  0  0
    5.6286   -0.6542    1.8487 N   0  0  0  0  0  0  0  0  0  0  0  0
    5.0851   -1.5085    0.9812 N   0  0  0  0  0  0  0  0  0  0  0  0
    4.2836   -2.5065    1.4396 C   0  0  0  0  0  0  0  0  0  0  0  0
    2.8757   -3.0579   -1.6890 C   0  0  0  0  0  0  0  0  0  0  0  0
    2.1930   -2.5065   -4.9213 H   0  0  0  0  0  0  0  0  0  0  0  0
    1.1436   -2.4938   -3.5688 H   0  0  0  0  0  0  0  0  0  0  0  0
    4.6127   -3.0358   -4.6078 H   0  0  0  0  0  0  0  0  0  0  0  0
    6.4973   -3.5332   -3.0548 H   0  0  0  0  0  0  0  0  0  0  0  0
    6.0494   -3.7485   -0.6128 H   0  0  0  0  0  0  0  0  0  0  0  0
    1.3083   -6.3138    2.3069 H   0  0  0  0  0  0  0  0  0  0  0  0
    0.8317   -6.4940    4.7176 H   0  0  0  0  0  0  0  0  0  0  0  0
    1.8437   -4.8594    6.3011 H   0  0  0  0  0  0  0  0  0  0  0  0
    3.3158   -3.0551    5.4722 H   0  0  0  0  0  0  0  0  0  0  0  0
    1.8682   -2.9307   -1.3153 H   0  0  0  0  0  0  0  0  0  0  0  0
  1  2  1  0
  1 23  1  0
  1 24  1  0
  2 22  2  0
  2  3  1  0
  3  4  2  0
  3 25  1  0
  4  5  1  0
  4 26  1  0
  5  6  2  0
  5 27  1  0
  6  7  1  0
  6 22  1  0
  7 21  1  0
  7  8  1  0
  8  9  2  0
  8 10  1  0
 10 15  2  0
 10 11  1  0
 11 12  2  0
 11 28  1  0
 12 13  1  0
 12 29  1  0
 13 14  2  0
 13 30  1  0
 14 15  1  0
 14 31  1  0
 15 16  1  0
 16 21  2  0
 16 17  1  0
 17 18  2  0
 18 19  1  0
 19 20  2  0
 20 21  1  0
 22 32  1  0
M  END
>  <i_m_ct_stereo_status>  (185) 
1

>  <s_m_source_file>  (185) 
/var/tmp/pbs.5076255.sched01/tmpar858yha/42b8svm9_t.sdf

>  <i_m_source_file_index>  (185) 
29

>  <i_lp_mmshare_version>  (185) 
48012

>  <i_f3d_flags>  (185) 
0

>  <s_epik_input>  (185) 
W05IMl1jMVtjSF1bY0hdW2NIXWMoW2NIXTEpLW4oYzI9TyljKG5ubm4zKWMzYyhjMjQpW2NIXVtjSF1bY0hdW2NIXTQ=

>  <s_epik_cmdline>  (185) 
J2VwaWtfcHl0aG9uJywgJy1waHQnLCAnMi4wJywgJy1waCcsICc3LjAnLCAnLXRuJywgJzgnLCAnLW1hJywgJzIwMCcsICctaW1hZScsICc8aW5maWxlLm1hZT4nLCAnLW9tYWUnLCAnPG91dGZpbGUubWFlPic=

>  <r_lp_tautomer_probability>  (185) 
1

>  <r_epik_Ionization_Penalty>  (185) 
1.67396e-05

>  <r_epik_Ionization_Penalty_Charging>  (185) 
6.29138e-12

>  <r_epik_Ionization_Penalty_Neutral>  (185) 
1.67396e-05

>  <r_epik_State_Penalty>  (185) 
-0

>  <r_epik_Charging_Adjusted_Penalty>  (185) 
6.29138e-12

>  <i_epik_Tot_Q>  (185) 
0

>  <i_epik_Tot_abs_Q>  (185) 
0

>  <s_lp_Force_Field>  (185) 
OPLS3e

>  <r_lp_Energy>  (185) 
53.3891

>  <b_lp_Chiralities_Consistent>  (185) 
1

>  <s_lp_Variant>  (185) 
53:0-1

>  <s_i_glide_gridfile>  (185) 
pfpi4k_grid

>  <i_i_glide_lignum>  (185) 
29

>  <i_i_glide_rotatable_bonds>  (185) 
1

>  <r_i_docking_score>  (185) 
-3.54234

>  <r_i_glide_ligand_efficiency>  (185) 
-0.161016

>  <r_i_glide_ligand_efficiency_sa>  (185) 
-0.451172

>  <r_i_glide_ligand_efficiency_ln>  (185) 
-0.865878

>  <r_i_glide_gscore>  (185) 
-3.54234

>  <r_i_glide_lipo>  (185) 
-0.598502

>  <r_i_glide_hbond>  (185) 
-0.32

>  <r_i_glide_metal>  (185) 
-0

>  <r_i_glide_rewards>  (185) 
-1.44086

>  <r_i_glide_evdw>  (185) 
-24.6132

>  <r_i_glide_ecoul>  (185) 
-1.1186

>  <r_i_glide_erotb>  (185) 
0.216259

>  <r_i_glide_esite>  (185) 
-0.00078835

>  <r_i_glide_emodel>  (185) 
-31.9525

>  <r_i_glide_energy>  (185) 
-25.7318

>  <r_i_glide_einternal>  (185) 
0.0761825

>  <r_i_glide_intrahb_reward>  (185) 
-0

>  <i_i_glide_confnum>  (185) 
2

>  <i_i_glide_posenum>  (185) 
4

>  <r_i_glide_eff_state_penalty>  (185) 
0

>  <ligand_id>  (185) 
53

>  <original_smiles>  (185) 
Nc1cccc(-n2c(=O)c3ccccc3c3nnnnc32)c1

>  <smiles>  (185) 
[H]c1c([H])c(N([H])[H])c([H])c(-n2c(=O)c3c([H])c([H])c([H])c([H])c3c3nnnnc32)c1[H]

$$$$
53:0:2
     RDKit          3D

 32 35  0  0  1  0  0  0  0  0999 V2000
    0.7753    1.3447    1.7063 N   0  0  0  0  0  0  0  0  0  0  0  0
    1.9027    0.7604    2.2946 C   0  0  0  0  0  0  0  0  0  0  0  0
    2.6014    1.4122    3.3333 C   0  0  0  0  0  0  0  0  0  0  0  0
    3.7091    0.7956    3.9546 C   0  0  0  0  0  0  0  0  0  0  0  0
    4.1345   -0.4768    3.5279 C   0  0  0  0  0  0  0  0  0  0  0  0
    3.4503   -1.1270    2.4767 C   0  0  0  0  0  0  0  0  0  0  0  0
    3.8594   -2.4154    2.0396 N   0  0  0  0  0  0  0  0  0  0  0  0
    3.0801   -3.5032    2.2903 C   0  0  0  0  0  0  0  0  0  0  0  0
    1.9976   -3.4352    2.8820 O   0  0  0  0  0  0  0  0  0  0  0  0
    3.5836   -4.8445    1.8332 C   0  0  0  0  0  0  0  0  0  0  0  0
    2.8096   -6.0016    2.0844 C   0  0  0  0  0  0  0  0  0  0  0  0
    3.2576   -7.2660    1.6802 C   0  0  0  0  0  0  0  0  0  0  0  0
    4.4883   -7.3814    1.0121 C   0  0  0  0  0  0  0  0  0  0  0  0
    5.2687   -6.2295    0.7663 C   0  0  0  0  0  0  0  0  0  0  0  0
    4.8260   -4.9512    1.1693 C   0  0  0  0  0  0  0  0  0  0  0  0
    5.6051   -3.7207    0.9309 C   0  0  0  0  0  0  0  0  0  0  0  0
    6.7874   -3.8126    0.2853 N   0  0  0  0  0  0  0  0  0  0  0  0
    7.4891   -2.6922    0.0714 N   0  0  0  0  0  0  0  0  0  0  0  0
    7.0473   -1.4964    0.4797 N   0  0  0  0  0  0  0  0  0  0  0  0
    5.8742   -1.3668    1.1025 N   0  0  0  0  0  0  0  0  0  0  0  0
    5.1239   -2.4676    1.3594 C   0  0  0  0  0  0  0  0  0  0  0  0
    2.3403   -0.5057    1.8669 C   0  0  0  0  0  0  0  0  0  0  0  0
    0.4789    2.2921    1.9211 H   0  0  0  0  0  0  0  0  0  0  0  0
    0.2942    0.9007    0.9258 H   0  0  0  0  0  0  0  0  0  0  0  0
    2.2832    2.3842    3.6639 H   0  0  0  0  0  0  0  0  0  0  0  0
    4.2360    1.2950    4.7549 H   0  0  0  0  0  0  0  0  0  0  0  0
    4.9849   -0.9558    3.9941 H   0  0  0  0  0  0  0  0  0  0  0  0
    1.8693   -5.9250    2.6021 H   0  0  0  0  0  0  0  0  0  0  0  0
    2.6604   -8.1433    1.8720 H   0  0  0  0  0  0  0  0  0  0  0  0
    4.8417   -8.3511    0.6910 H   0  0  0  0  0  0  0  0  0  0  0  0
    6.2177   -6.3261    0.2529 H   0  0  0  0  0  0  0  0  0  0  0  0
    1.8255   -1.0141    1.0688 H   0  0  0  0  0  0  0  0  0  0  0  0
  1  2  1  0
  1 23  1  0
  1 24  1  0
  2 22  2  0
  2  3  1  0
  3  4  2  0
  3 25  1  0
  4  5  1  0
  4 26  1  0
  5  6  2  0
  5 27  1  0
  6  7  1  0
  6 22  1  0
  7 21  1  0
  7  8  1  0
  8  9  2  0
  8 10  1  0
 10 15  2  0
 10 11  1  0
 11 12  2  0
 11 28  1  0
 12 13  1  0
 12 29  1  0
 13 14  2  0
 13 30  1  0
 14 15  1  0
 14 31  1  0
 15 16  1  0
 16 21  2  0
 16 17  1  0
 17 18  2  0
 18 19  1  0
 19 20  2  0
 20 21  1  0
 22 32  1  0
M  END
>  <i_m_ct_stereo_status>  (186) 
1

>  <s_m_source_file>  (186) 
/var/tmp/pbs.5076255.sched01/tmpar858yha/42b8svm9_t.sdf

>  <i_m_source_file_index>  (186) 
29

>  <i_lp_mmshare_version>  (186) 
48012

>  <i_f3d_flags>  (186) 
0

>  <s_epik_input>  (186) 
W05IMl1jMVtjSF1bY0hdW2NIXWMoW2NIXTEpLW4oYzI9TyljKG5ubm4zKWMzYyhjMjQpW2NIXVtjSF1bY0hdW2NIXTQ=

>  <s_epik_cmdline>  (186) 
J2VwaWtfcHl0aG9uJywgJy1waHQnLCAnMi4wJywgJy1waCcsICc3LjAnLCAnLXRuJywgJzgnLCAnLW1hJywgJzIwMCcsICctaW1hZScsICc8aW5maWxlLm1hZT4nLCAnLW9tYWUnLCAnPG91dGZpbGUubWFlPic=

>  <r_lp_tautomer_probability>  (186) 
1

>  <r_epik_Ionization_Penalty>  (186) 
1.67396e-05

>  <r_epik_Ionization_Penalty_Charging>  (186) 
6.29138e-12

>  <r_epik_Ionization_Penalty_Neutral>  (186) 
1.67396e-05

>  <r_epik_State_Penalty>  (186) 
-0

>  <r_epik_Charging_Adjusted_Penalty>  (186) 
6.29138e-12

>  <i_epik_Tot_Q>  (186) 
0

>  <i_epik_Tot_abs_Q>  (186) 
0

>  <s_lp_Force_Field>  (186) 
OPLS3e

>  <r_lp_Energy>  (186) 
53.3891

>  <b_lp_Chiralities_Consistent>  (186) 
1

>  <s_lp_Variant>  (186) 
53:0-1

>  <s_i_glide_gridfile>  (186) 
pfpi4k_grid

>  <i_i_glide_lignum>  (186) 
29

>  <i_i_glide_rotatable_bonds>  (186) 
1

>  <r_i_docking_score>  (186) 
-3.21752

>  <r_i_glide_ligand_efficiency>  (186) 
-0.146251

>  <r_i_glide_ligand_efficiency_sa>  (186) 
-0.409801

>  <r_i_glide_ligand_efficiency_ln>  (186) 
-0.786479

>  <r_i_glide_gscore>  (186) 
-3.21752

>  <r_i_glide_lipo>  (186) 
-0.400648

>  <r_i_glide_hbond>  (186) 
-0.0764566

>  <r_i_glide_metal>  (186) 
-0

>  <r_i_glide_rewards>  (186) 
-1.48528

>  <r_i_glide_evdw>  (186) 
-23.4566

>  <r_i_glide_ecoul>  (186) 
-1.30462

>  <r_i_glide_erotb>  (186) 
0.216259

>  <r_i_glide_esite>  (186) 
-0.102868

>  <r_i_glide_emodel>  (186) 
-30.4614

>  <r_i_glide_energy>  (186) 
-24.7612

>  <r_i_glide_einternal>  (186) 
0.0332841

>  <r_i_glide_intrahb_reward>  (186) 
-0

>  <i_i_glide_confnum>  (186) 
5

>  <i_i_glide_posenum>  (186) 
30

>  <r_i_glide_eff_state_penalty>  (186) 
0

>  <ligand_id>  (186) 
53

>  <original_smiles>  (186) 
Nc1cccc(-n2c(=O)c3ccccc3c3nnnnc32)c1

>  <smiles>  (186) 
[H]c1c([H])c(N([H])[H])c([H])c(-n2c(=O)c3c([H])c([H])c([H])c([H])c3c3nnnnc32)c1[H]

$$$$
54:0:0
     RDKit          3D

 26 28  0  0  1  0  0  0  0  0999 V2000
    6.5731   -5.8178    0.4727 F   0  0  0  0  0  0  0  0  0  0  0  0
    6.5204   -4.6695    1.1411 C   0  0  0  0  0  0  0  0  0  0  0  0
    6.0131   -4.9410    2.3429 F   0  0  0  0  0  0  0  0  0  0  0  0
    7.7619   -4.2050    1.2791 F   0  0  0  0  0  0  0  0  0  0  0  0
    5.6359   -3.6739    0.3553 C   0  0  2  0  0  0  0  0  0  0  0  0
    6.1832   -3.3659   -1.0735 C   0  0  0  0  0  0  0  0  0  0  0  0
    5.4154   -2.2151   -1.7720 C   0  0  1  0  0  0  0  0  0  0  0  0
    4.0453   -2.6452   -2.1975 C   0  0  0  0  0  0  0  0  0  0  0  0
    3.0452   -3.0435   -1.4200 N   0  0  0  0  0  0  0  0  0  0  0  0
    2.0094   -3.3241   -2.2900 C   0  0  0  0  0  0  0  0  0  0  0  0
    2.4399   -3.0579   -3.5615 C   0  0  0  0  0  0  0  0  0  0  0  0
    3.7335   -2.6210   -3.5200 O   0  0  0  0  0  0  0  0  0  0  0  0
    5.3952   -1.0817   -0.8614 N   0  0  0  0  0  0  0  0  0  0  0  0
    5.2239   -1.2004    0.5064 C   0  0  0  0  0  0  0  0  0  0  0  0
    4.9005   -0.2567    1.3639 N   0  0  0  0  0  0  0  0  0  0  0  0
    4.8226   -1.0022    2.5072 C   0  0  0  0  0  0  0  0  0  0  0  0
    5.0885   -2.3040    2.3772 N   0  0  0  0  0  0  0  0  0  0  0  0
    5.3754   -2.4103    1.0555 N   0  0  0  0  0  0  0  0  0  0  0  0
    4.6673   -4.1554    0.2468 H   0  0  0  0  0  0  0  0  0  0  0  0
    7.2236   -3.0533   -0.9752 H   0  0  0  0  0  0  0  0  0  0  0  0
    6.1812   -4.2585   -1.6970 H   0  0  0  0  0  0  0  0  0  0  0  0
    5.9450   -1.9220   -2.6757 H   0  0  0  0  0  0  0  0  0  0  0  0
    1.0546   -3.6954   -1.9486 H   0  0  0  0  0  0  0  0  0  0  0  0
    1.9746   -3.1234   -4.5329 H   0  0  0  0  0  0  0  0  0  0  0  0
    5.1477   -0.1737   -1.2361 H   0  0  0  0  0  0  0  0  0  0  0  0
    4.5463   -0.5732    3.4602 H   0  0  0  0  0  0  0  0  0  0  0  0
  1  2  1  0
  2  3  1  0
  2  4  1  0
  2  5  1  0
  5 18  1  0
  5  6  1  0
  5 19  1  6
  6  7  1  0
  6 20  1  0
  6 21  1  0
  7  8  1  0
  7 13  1  0
  7 22  1  6
  8 12  1  0
  8  9  2  0
  9 10  1  0
 10 11  2  0
 10 23  1  0
 11 12  1  0
 11 24  1  0
 13 14  1  0
 13 25  1  0
 14 18  1  0
 14 15  2  0
 15 16  1  0
 16 17  2  0
 16 26  1  0
 17 18  1  0
M  END
>  <i_m_ct_stereo_status>  (187) 
1

>  <s_m_source_file>  (187) 
/var/tmp/pbs.5076255.sched01/tmpar858yha/42b8svm9_t.sdf

>  <i_m_source_file_index>  (187) 
30

>  <i_lp_mmshare_version>  (187) 
48012

>  <i_f3d_flags>  (187) 
0

>  <s_epik_input>  (187) 
bjFbY0hdbm4oYzEyKVtDQEhdKEMoRikoRilGKVtDSDJdW0NASF0oW05IXTIpYzNuW2NIXVtjSF1vMw==

>  <s_epik_cmdline>  (187) 
J2VwaWtfcHl0aG9uJywgJy1waHQnLCAnMi4wJywgJy1waCcsICc3LjAnLCAnLXRuJywgJzgnLCAnLW1hJywgJzIwMCcsICctaW1hZScsICc8aW5maWxlLm1hZT4nLCAnLW9tYWUnLCAnPG91dGZpbGUubWFlPic=

>  <r_lp_tautomer_probability>  (187) 
1

>  <r_epik_Ionization_Penalty>  (187) 
0.000335911

>  <r_epik_Ionization_Penalty_Charging>  (187) 
0

>  <r_epik_Ionization_Penalty_Neutral>  (187) 
0.000335911

>  <r_epik_State_Penalty>  (187) 
-0

>  <r_epik_Charging_Adjusted_Penalty>  (187) 
0

>  <i_epik_Tot_Q>  (187) 
0

>  <i_epik_Tot_abs_Q>  (187) 
0

>  <s_lp_Force_Field>  (187) 
OPLS3e

>  <r_lp_Energy>  (187) 
20.3387

>  <b_lp_Chiralities_Consistent>  (187) 
1

>  <s_lp_Variant>  (187) 
54:0-1

>  <s_i_glide_gridfile>  (187) 
pfpi4k_grid

>  <i_i_glide_lignum>  (187) 
30

>  <i_i_glide_rotatable_bonds>  (187) 
2

>  <r_i_docking_score>  (187) 
-4.34019

>  <r_i_glide_ligand_efficiency>  (187) 
-0.241121

>  <r_i_glide_ligand_efficiency_sa>  (187) 
-0.631917

>  <r_i_glide_ligand_efficiency_ln>  (187) 
-1.11562

>  <r_i_glide_gscore>  (187) 
-4.34019

>  <r_i_glide_lipo>  (187) 
-0.73396

>  <r_i_glide_hbond>  (187) 
-0.219274

>  <r_i_glide_metal>  (187) 
-0

>  <r_i_glide_rewards>  (187) 
-2.24571

>  <r_i_glide_evdw>  (187) 
-21.3095

>  <r_i_glide_ecoul>  (187) 
-1.92282

>  <r_i_glide_erotb>  (187) 
0.263166

>  <r_i_glide_esite>  (187) 
-0.0505061

>  <r_i_glide_emodel>  (187) 
-28.4425

>  <r_i_glide_energy>  (187) 
-23.2323

>  <r_i_glide_einternal>  (187) 
1.30974

>  <r_i_glide_intrahb_reward>  (187) 
-0

>  <i_i_glide_confnum>  (187) 
3

>  <i_i_glide_posenum>  (187) 
18

>  <r_i_glide_eff_state_penalty>  (187) 
0

>  <ligand_id>  (187) 
54

>  <original_smiles>  (187) 
FC(F)(F)C1CC(c2ncco2)Nc2ncnn21

>  <smiles>  (187) 
[H]c1nc2n(n1)C([H])(C(F)(F)F)C([H])([H])C([H])(c1nc([H])c([H])o1)N2[H]

$$$$
54:0:1
     RDKit          3D

 26 28  0  0  1  0  0  0  0  0999 V2000
    6.2355   -5.8730    0.4749 F   0  0  0  0  0  0  0  0  0  0  0  0
    6.0313   -4.7593    1.1686 C   0  0  0  0  0  0  0  0  0  0  0  0
    5.2974   -5.0902    2.2294 F   0  0  0  0  0  0  0  0  0  0  0  0
    7.2128   -4.3007    1.5763 F   0  0  0  0  0  0  0  0  0  0  0  0
    5.3074   -3.7312    0.2701 C   0  0  2  0  0  0  0  0  0  0  0  0
    6.0959   -3.3967   -1.0298 C   0  0  0  0  0  0  0  0  0  0  0  0
    5.4846   -2.2188   -1.8133 C   0  0  1  0  0  0  0  0  0  0  0  0
    4.1810   -2.5768   -2.4533 C   0  0  0  0  0  0  0  0  0  0  0  0
    3.9327   -2.7692   -3.7502 N   0  0  0  0  0  0  0  0  0  0  0  0
    2.5802   -3.0661   -3.8051 C   0  0  0  0  0  0  0  0  0  0  0  0
    2.0939   -3.0588   -2.5298 C   0  0  0  0  0  0  0  0  0  0  0  0
    3.0937   -2.7425   -1.6553 O   0  0  0  0  0  0  0  0  0  0  0  0
    5.3578   -1.1061   -0.8877 N   0  0  0  0  0  0  0  0  0  0  0  0
    4.9399   -1.2448    0.4243 C   0  0  0  0  0  0  0  0  0  0  0  0
    4.5057   -0.3005    1.2386 N   0  0  0  0  0  0  0  0  0  0  0  0
    4.2066   -1.0790    2.3268 C   0  0  0  0  0  0  0  0  0  0  0  0
    4.4568   -2.3877    2.2083 N   0  0  0  0  0  0  0  0  0  0  0  0
    4.9634   -2.4734    0.9518 N   0  0  0  0  0  0  0  0  0  0  0  0
    4.3647   -4.1897   -0.0237 H   0  0  0  0  0  0  0  0  0  0  0  0
    7.1107   -3.1214   -0.7502 H   0  0  0  0  0  0  0  0  0  0  0  0
    6.1798   -4.2561   -1.6955 H   0  0  0  0  0  0  0  0  0  0  0  0
    6.1614   -1.9457   -2.6193 H   0  0  0  0  0  0  0  0  0  0  0  0
    2.0629   -3.2737   -4.7235 H   0  0  0  0  0  0  0  0  0  0  0  0
    1.1062   -3.2246   -2.1157 H   0  0  0  0  0  0  0  0  0  0  0  0
    5.1702   -0.1904   -1.2773 H   0  0  0  0  0  0  0  0  0  0  0  0
    3.7797   -0.6782    3.2324 H   0  0  0  0  0  0  0  0  0  0  0  0
  1  2  1  0
  2  3  1  0
  2  4  1  0
  2  5  1  0
  5 18  1  0
  5  6  1  0
  5 19  1  6
  6  7  1  0
  6 20  1  0
  6 21  1  0
  7  8  1  0
  7 13  1  0
  7 22  1  6
  8 12  1  0
  8  9  2  0
  9 10  1  0
 10 11  2  0
 10 23  1  0
 11 12  1  0
 11 24  1  0
 13 14  1  0
 13 25  1  0
 14 18  1  0
 14 15  2  0
 15 16  1  0
 16 17  2  0
 16 26  1  0
 17 18  1  0
M  END
>  <i_m_ct_stereo_status>  (188) 
1

>  <s_m_source_file>  (188) 
/var/tmp/pbs.5076255.sched01/tmpar858yha/42b8svm9_t.sdf

>  <i_m_source_file_index>  (188) 
30

>  <i_lp_mmshare_version>  (188) 
48012

>  <i_f3d_flags>  (188) 
0

>  <s_epik_input>  (188) 
bjFbY0hdbm4oYzEyKVtDQEhdKEMoRikoRilGKVtDSDJdW0NASF0oW05IXTIpYzNuW2NIXVtjSF1vMw==

>  <s_epik_cmdline>  (188) 
J2VwaWtfcHl0aG9uJywgJy1waHQnLCAnMi4wJywgJy1waCcsICc3LjAnLCAnLXRuJywgJzgnLCAnLW1hJywgJzIwMCcsICctaW1hZScsICc8aW5maWxlLm1hZT4nLCAnLW9tYWUnLCAnPG91dGZpbGUubWFlPic=

>  <r_lp_tautomer_probability>  (188) 
1

>  <r_epik_Ionization_Penalty>  (188) 
0.000335911

>  <r_epik_Ionization_Penalty_Charging>  (188) 
0

>  <r_epik_Ionization_Penalty_Neutral>  (188) 
0.000335911

>  <r_epik_State_Penalty>  (188) 
-0

>  <r_epik_Charging_Adjusted_Penalty>  (188) 
0

>  <i_epik_Tot_Q>  (188) 
0

>  <i_epik_Tot_abs_Q>  (188) 
0

>  <s_lp_Force_Field>  (188) 
OPLS3e

>  <r_lp_Energy>  (188) 
20.3387

>  <b_lp_Chiralities_Consistent>  (188) 
1

>  <s_lp_Variant>  (188) 
54:0-1

>  <s_i_glide_gridfile>  (188) 
pfpi4k_grid

>  <i_i_glide_lignum>  (188) 
30

>  <i_i_glide_rotatable_bonds>  (188) 
2

>  <r_i_docking_score>  (188) 
-4.16359

>  <r_i_glide_ligand_efficiency>  (188) 
-0.231311

>  <r_i_glide_ligand_efficiency_sa>  (188) 
-0.606206

>  <r_i_glide_ligand_efficiency_ln>  (188) 
-1.07023

>  <r_i_glide_gscore>  (188) 
-4.16359

>  <r_i_glide_lipo>  (188) 
-0.601295

>  <r_i_glide_hbond>  (188) 
-0.173869

>  <r_i_glide_metal>  (188) 
-0

>  <r_i_glide_rewards>  (188) 
-2.03326

>  <r_i_glide_evdw>  (188) 
-21.6966

>  <r_i_glide_ecoul>  (188) 
-3.2284

>  <r_i_glide_erotb>  (188) 
0.263166

>  <r_i_glide_esite>  (188) 
-0.0492416

>  <r_i_glide_emodel>  (188) 
-30.4177

>  <r_i_glide_energy>  (188) 
-24.925

>  <r_i_glide_einternal>  (188) 
0.364653

>  <r_i_glide_intrahb_reward>  (188) 
-0

>  <i_i_glide_confnum>  (188) 
4

>  <i_i_glide_posenum>  (188) 
1

>  <r_i_glide_eff_state_penalty>  (188) 
0

>  <ligand_id>  (188) 
54

>  <original_smiles>  (188) 
FC(F)(F)C1CC(c2ncco2)Nc2ncnn21

>  <smiles>  (188) 
[H]c1nc2n(n1)C([H])(C(F)(F)F)C([H])([H])C([H])(c1nc([H])c([H])o1)N2[H]

$$$$
54:0:2
     RDKit          3D

 26 28  0  0  1  0  0  0  0  0999 V2000
    8.4252   -3.5510   -1.1905 F   0  0  0  0  0  0  0  0  0  0  0  0
    7.7651   -3.7741   -0.0594 C   0  0  0  0  0  0  0  0  0  0  0  0
    7.9163   -5.0589    0.2517 F   0  0  0  0  0  0  0  0  0  0  0  0
    8.3458   -3.0562    0.8809 F   0  0  0  0  0  0  0  0  0  0  0  0
    6.2828   -3.3550   -0.2677 C   0  0  2  0  0  0  0  0  0  0  0  0
    6.1216   -1.8197   -0.4850 C   0  0  0  0  0  0  0  0  0  0  0  0
    4.6459   -1.3534   -0.4868 C   0  0  1  0  0  0  0  0  0  0  0  0
    3.9230   -1.8069   -1.7185 C   0  0  0  0  0  0  0  0  0  0  0  0
    3.9778   -1.2501   -2.9247 N   0  0  0  0  0  0  0  0  0  0  0  0
    3.1224   -2.0158   -3.6972 C   0  0  0  0  0  0  0  0  0  0  0  0
    2.6373   -3.0393   -2.9315 C   0  0  0  0  0  0  0  0  0  0  0  0
    3.1595   -2.9309   -1.6736 O   0  0  0  0  0  0  0  0  0  0  0  0
    4.0370   -1.8794    0.7228 N   0  0  0  0  0  0  0  0  0  0  0  0
    4.2784   -3.1362    1.2398 C   0  0  0  0  0  0  0  0  0  0  0  0
    3.5543   -3.8174    2.1122 N   0  0  0  0  0  0  0  0  0  0  0  0
    4.2813   -4.9793    2.1479 C   0  0  0  0  0  0  0  0  0  0  0  0
    5.3602   -5.0177    1.3546 N   0  0  0  0  0  0  0  0  0  0  0  0
    5.3531   -3.7897    0.7876 N   0  0  0  0  0  0  0  0  0  0  0  0
    5.9338   -3.8458   -1.1753 H   0  0  0  0  0  0  0  0  0  0  0  0
    6.6089   -1.3112    0.3472 H   0  0  0  0  0  0  0  0  0  0  0  0
    6.6185   -1.4945   -1.3957 H   0  0  0  0  0  0  0  0  0  0  0  0
    4.5941   -0.2607   -0.4563 H   0  0  0  0  0  0  0  0  0  0  0  0
    2.9196   -1.7602   -4.7183 H   0  0  0  0  0  0  0  0  0  0  0  0
    1.9450   -3.8586   -3.1167 H   0  0  0  0  0  0  0  0  0  0  0  0
    3.1510   -1.4684    0.9737 H   0  0  0  0  0  0  0  0  0  0  0  0
    4.0094   -5.8281    2.7505 H   0  0  0  0  0  0  0  0  0  0  0  0
  1  2  1  0
  2  3  1  0
  2  4  1  0
  2  5  1  0
  5 18  1  0
  5  6  1  0
  5 19  1  6
  6  7  1  0
  6 20  1  0
  6 21  1  0
  7  8  1  0
  7 13  1  0
  7 22  1  1
  8 12  1  0
  8  9  2  0
  9 10  1  0
 10 11  2  0
 10 23  1  0
 11 12  1  0
 11 24  1  0
 13 14  1  0
 13 25  1  0
 14 18  1  0
 14 15  2  0
 15 16  1  0
 16 17  2  0
 16 26  1  0
 17 18  1  0
M  END
>  <i_m_ct_stereo_status>  (189) 
1

>  <s_m_source_file>  (189) 
/var/tmp/pbs.5076255.sched01/tmpar858yha/42b8svm9_t.sdf

>  <i_m_source_file_index>  (189) 
30

>  <i_lp_mmshare_version>  (189) 
48012

>  <i_f3d_flags>  (189) 
0

>  <s_epik_input>  (189) 
bjFbY0hdbm4oYzEyKVtDQEhdKEMoRikoRilGKVtDSDJdW0NASF0oW05IXTIpYzNuW2NIXVtjSF1vMw==

>  <s_epik_cmdline>  (189) 
J2VwaWtfcHl0aG9uJywgJy1waHQnLCAnMi4wJywgJy1waCcsICc3LjAnLCAnLXRuJywgJzgnLCAnLW1hJywgJzIwMCcsICctaW1hZScsICc8aW5maWxlLm1hZT4nLCAnLW9tYWUnLCAnPG91dGZpbGUubWFlPic=

>  <r_lp_tautomer_probability>  (189) 
1

>  <r_epik_Ionization_Penalty>  (189) 
0.000335911

>  <r_epik_Ionization_Penalty_Charging>  (189) 
0

>  <r_epik_Ionization_Penalty_Neutral>  (189) 
0.000335911

>  <r_epik_State_Penalty>  (189) 
-0

>  <r_epik_Charging_Adjusted_Penalty>  (189) 
0

>  <i_epik_Tot_Q>  (189) 
0

>  <i_epik_Tot_abs_Q>  (189) 
0

>  <s_lp_Force_Field>  (189) 
OPLS3e

>  <r_lp_Energy>  (189) 
20.3387

>  <b_lp_Chiralities_Consistent>  (189) 
1

>  <s_lp_Variant>  (189) 
54:0-1

>  <s_i_glide_gridfile>  (189) 
pfpi4k_grid

>  <i_i_glide_lignum>  (189) 
30

>  <i_i_glide_rotatable_bonds>  (189) 
2

>  <r_i_docking_score>  (189) 
-3.62647

>  <r_i_glide_ligand_efficiency>  (189) 
-0.201471

>  <r_i_glide_ligand_efficiency_sa>  (189) 
-0.528003

>  <r_i_glide_ligand_efficiency_ln>  (189) 
-0.932166

>  <r_i_glide_gscore>  (189) 
-3.62647

>  <r_i_glide_lipo>  (189) 
-0.544029

>  <r_i_glide_hbond>  (189) 
0

>  <r_i_glide_metal>  (189) 
-0

>  <r_i_glide_rewards>  (189) 
-2.05791

>  <r_i_glide_evdw>  (189) 
-21.586

>  <r_i_glide_ecoul>  (189) 
-1.00151

>  <r_i_glide_erotb>  (189) 
0.263166

>  <r_i_glide_esite>  (189) 
-0.0581765

>  <r_i_glide_emodel>  (189) 
-26.6554

>  <r_i_glide_energy>  (189) 
-22.5875

>  <r_i_glide_einternal>  (189) 
1.19006

>  <r_i_glide_intrahb_reward>  (189) 
-0

>  <i_i_glide_confnum>  (189) 
4

>  <i_i_glide_posenum>  (189) 
40

>  <r_i_glide_eff_state_penalty>  (189) 
0

>  <ligand_id>  (189) 
54

>  <original_smiles>  (189) 
FC(F)(F)C1CC(c2ncco2)Nc2ncnn21

>  <smiles>  (189) 
[H]c1nc2n(n1)C([H])(C(F)(F)F)C([H])([H])C([H])(c1nc([H])c([H])o1)N2[H]

$$$$
55:0:0
     RDKit          3D

 24 26  0  0  1  0  0  0  0  0999 V2000
    4.2649   -5.8199    0.1153 C   0  0  0  0  0  0  0  0  0  0  0  0
    4.2339   -6.4117    1.2970 N   0  0  0  0  0  0  0  0  0  0  0  0
    3.6838   -5.4460    2.1193 N   0  0  0  0  0  0  0  0  0  0  0  0
    3.4027   -4.3570    1.4566 N   0  0  0  0  0  0  0  0  0  0  0  0
    3.7877   -4.5746    0.1759 N   0  0  0  0  0  0  0  0  0  0  0  0
    3.5554   -3.5875   -0.8578 C   0  0  2  0  0  0  0  0  0  0  0  0
    4.6191   -3.5363   -1.9242 C   0  0  1  0  0  0  0  0  0  0  0  0
    4.2807   -3.2493   -3.3771 C   0  0  0  0  0  0  0  0  0  0  0  0
    3.4094   -1.9967   -3.5479 C   0  0  0  0  0  0  0  0  0  0  0  0
    4.0024   -0.8102   -2.7764 C   0  0  0  0  0  0  0  0  0  0  0  0
    4.0307   -1.0576   -1.2573 C   0  0  0  0  0  0  0  0  0  0  0  0
    4.5435   -2.4333   -0.8792 C   0  0  1  0  0  0  0  0  0  0  0  0
    4.6171   -6.2992   -0.7868 H   0  0  0  0  0  0  0  0  0  0  0  0
    2.5026   -3.4499   -1.0994 H   0  0  0  0  0  0  0  0  0  0  0  0
    5.4414   -4.2402   -1.8177 H   0  0  0  0  0  0  0  0  0  0  0  0
    5.2176   -3.1234   -3.9137 H   0  0  0  0  0  0  0  0  0  0  0  0
    3.7880   -4.1209   -3.8066 H   0  0  0  0  0  0  0  0  0  0  0  0
    3.3271   -1.7489   -4.6063 H   0  0  0  0  0  0  0  0  0  0  0  0
    2.3914   -2.1916   -3.2024 H   0  0  0  0  0  0  0  0  0  0  0  0
    5.0147   -0.6283   -3.1250 H   0  0  0  0  0  0  0  0  0  0  0  0
    3.4309    0.0934   -2.9944 H   0  0  0  0  0  0  0  0  0  0  0  0
    4.6361   -0.2904   -0.7652 H   0  0  0  0  0  0  0  0  0  0  0  0
    3.0226   -0.9579   -0.8530 H   0  0  0  0  0  0  0  0  0  0  0  0
    5.3094   -2.4335   -0.1055 H   0  0  0  0  0  0  0  0  0  0  0  0
  1  5  1  0
  1  2  2  0
  1 13  1  0
  2  3  1  0
  3  4  2  0
  4  5  1  0
  5  6  1  0
  6 12  1  0
  6  7  1  0
  6 14  1  6
  7 12  1  0
  7  8  1  0
  7 15  1  6
  8  9  1  0
  8 16  1  0
  8 17  1  0
  9 10  1  0
  9 18  1  0
  9 19  1  0
 10 11  1  0
 10 20  1  0
 10 21  1  0
 11 12  1  0
 11 22  1  0
 11 23  1  0
 12 24  1  1
M  END
>  <i_m_ct_stereo_status>  (190) 
1

>  <s_m_source_file>  (190) 
/var/tmp/pbs.5076255.sched01/tmpar858yha/42b8svm9_t.sdf

>  <i_m_source_file_index>  (190) 
31

>  <i_lp_mmshare_version>  (190) 
48012

>  <i_f3d_flags>  (190) 
0

>  <s_epik_input>  (190) 
bjFubltjSF1uMVtDQEhdMltDQEBIXShbQ0BASF0yMylbQ0gyXVtDSDJdW0NIMl1bQ0gyXTM=

>  <s_epik_cmdline>  (190) 
J2VwaWtfcHl0aG9uJywgJy1waHQnLCAnMi4wJywgJy1waCcsICc3LjAnLCAnLXRuJywgJzgnLCAnLW1hJywgJzIwMCcsICctaW1hZScsICc8aW5maWxlLm1hZT4nLCAnLW9tYWUnLCAnPG91dGZpbGUubWFlPic=

>  <r_lp_tautomer_probability>  (190) 
1

>  <r_epik_Ionization_Penalty>  (190) 
4.1117e-09

>  <r_epik_Ionization_Penalty_Charging>  (190) 
0

>  <r_epik_Ionization_Penalty_Neutral>  (190) 
4.1117e-09

>  <r_epik_State_Penalty>  (190) 
-0

>  <r_epik_Charging_Adjusted_Penalty>  (190) 
0

>  <i_epik_Tot_Q>  (190) 
0

>  <i_epik_Tot_abs_Q>  (190) 
0

>  <s_lp_Force_Field>  (190) 
OPLS3e

>  <r_lp_Energy>  (190) 
20.2532

>  <b_lp_Chiralities_Consistent>  (190) 
1

>  <s_lp_Variant>  (190) 
55:0-1

>  <s_i_glide_gridfile>  (190) 
pfpi4k_grid

>  <i_i_glide_lignum>  (190) 
31

>  <i_i_glide_rotatable_bonds>  (190) 
1

>  <r_i_docking_score>  (190) 
-3.39098

>  <r_i_glide_ligand_efficiency>  (190) 
-0.282581

>  <r_i_glide_ligand_efficiency_sa>  (190) 
-0.64695

>  <r_i_glide_ligand_efficiency_ln>  (190) 
-0.973047

>  <r_i_glide_gscore>  (190) 
-3.39098

>  <r_i_glide_lipo>  (190) 
-0.453974

>  <r_i_glide_hbond>  (190) 
0

>  <r_i_glide_metal>  (190) 
-0

>  <r_i_glide_rewards>  (190) 
-2.28657

>  <r_i_glide_evdw>  (190) 
-18.9114

>  <r_i_glide_ecoul>  (190) 
-1.74412

>  <r_i_glide_erotb>  (190) 
0.564712

>  <r_i_glide_esite>  (190) 
-0.0079523

>  <r_i_glide_emodel>  (190) 
-24.8419

>  <r_i_glide_energy>  (190) 
-20.6555

>  <r_i_glide_einternal>  (190) 
0.34238

>  <r_i_glide_intrahb_reward>  (190) 
-0

>  <i_i_glide_confnum>  (190) 
4

>  <i_i_glide_posenum>  (190) 
22

>  <r_i_glide_eff_state_penalty>  (190) 
0

>  <ligand_id>  (190) 
55

>  <original_smiles>  (190) 
c1nnnn1C1C2CCCCC21

>  <smiles>  (190) 
[H]c1nnnn1C1([H])C2([H])C([H])([H])C([H])([H])C([H])([H])C([H])([H])C12[H]

$$$$
55:0:1
     RDKit          3D

 24 26  0  0  1  0  0  0  0  0999 V2000
    4.2017   -5.9707    0.5296 C   0  0  0  0  0  0  0  0  0  0  0  0
    3.4785   -6.7893    1.2791 N   0  0  0  0  0  0  0  0  0  0  0  0
    2.2260   -6.2027    1.2653 N   0  0  0  0  0  0  0  0  0  0  0  0
    2.2219   -5.1069    0.5539 N   0  0  0  0  0  0  0  0  0  0  0  0
    3.4857   -4.9402    0.0796 N   0  0  0  0  0  0  0  0  0  0  0  0
    3.9009   -3.8475   -0.7949 C   0  0  2  0  0  0  0  0  0  0  0  0
    3.5037   -2.4671   -0.3482 C   0  0  1  0  0  0  0  0  0  0  0  0
    4.4110   -1.2706   -0.5825 C   0  0  0  0  0  0  0  0  0  0  0  0
    4.9005   -1.1634   -2.0368 C   0  0  0  0  0  0  0  0  0  0  0  0
    3.7327   -1.2757   -3.0272 C   0  0  0  0  0  0  0  0  0  0  0  0
    3.0527   -2.6531   -2.9566 C   0  0  0  0  0  0  0  0  0  0  0  0
    2.7887   -3.1156   -1.5324 C   0  0  1  0  0  0  0  0  0  0  0  0
    5.2439   -6.1268    0.3036 H   0  0  0  0  0  0  0  0  0  0  0  0
    4.8626   -4.0242   -1.2764 H   0  0  0  0  0  0  0  0  0  0  0  0
    2.9406   -2.4028    0.5828 H   0  0  0  0  0  0  0  0  0  0  0  0
    3.8552   -0.3697   -0.3209 H   0  0  0  0  0  0  0  0  0  0  0  0
    5.2578   -1.3223    0.1021 H   0  0  0  0  0  0  0  0  0  0  0  0
    5.4097   -0.2124   -2.1800 H   0  0  0  0  0  0  0  0  0  0  0  0
    5.6408   -1.9352   -2.2496 H   0  0  0  0  0  0  0  0  0  0  0  0
    3.0002   -0.4967   -2.8088 H   0  0  0  0  0  0  0  0  0  0  0  0
    4.0812   -1.0910   -4.0438 H   0  0  0  0  0  0  0  0  0  0  0  0
    2.1085   -2.6290   -3.5026 H   0  0  0  0  0  0  0  0  0  0  0  0
    3.6735   -3.4022   -3.4492 H   0  0  0  0  0  0  0  0  0  0  0  0
    1.7658   -3.4506   -1.3678 H   0  0  0  0  0  0  0  0  0  0  0  0
  1  5  1  0
  1  2  2  0
  1 13  1  0
  2  3  1  0
  3  4  2  0
  4  5  1  0
  5  6  1  0
  6 12  1  0
  6  7  1  0
  6 14  1  6
  7 12  1  0
  7  8  1  0
  7 15  1  1
  8  9  1  0
  8 16  1  0
  8 17  1  0
  9 10  1  0
  9 18  1  0
  9 19  1  0
 10 11  1  0
 10 20  1  0
 10 21  1  0
 11 12  1  0
 11 22  1  0
 11 23  1  0
 12 24  1  1
M  END
>  <i_m_ct_stereo_status>  (191) 
1

>  <s_m_source_file>  (191) 
/var/tmp/pbs.5076255.sched01/tmpar858yha/42b8svm9_t.sdf

>  <i_m_source_file_index>  (191) 
31

>  <i_lp_mmshare_version>  (191) 
48012

>  <i_f3d_flags>  (191) 
0

>  <s_epik_input>  (191) 
bjFubltjSF1uMVtDQEhdMltDQEBIXShbQ0BASF0yMylbQ0gyXVtDSDJdW0NIMl1bQ0gyXTM=

>  <s_epik_cmdline>  (191) 
J2VwaWtfcHl0aG9uJywgJy1waHQnLCAnMi4wJywgJy1waCcsICc3LjAnLCAnLXRuJywgJzgnLCAnLW1hJywgJzIwMCcsICctaW1hZScsICc8aW5maWxlLm1hZT4nLCAnLW9tYWUnLCAnPG91dGZpbGUubWFlPic=

>  <r_lp_tautomer_probability>  (191) 
1

>  <r_epik_Ionization_Penalty>  (191) 
4.1117e-09

>  <r_epik_Ionization_Penalty_Charging>  (191) 
0

>  <r_epik_Ionization_Penalty_Neutral>  (191) 
4.1117e-09

>  <r_epik_State_Penalty>  (191) 
-0

>  <r_epik_Charging_Adjusted_Penalty>  (191) 
0

>  <i_epik_Tot_Q>  (191) 
0

>  <i_epik_Tot_abs_Q>  (191) 
0

>  <s_lp_Force_Field>  (191) 
OPLS3e

>  <r_lp_Energy>  (191) 
20.2532

>  <b_lp_Chiralities_Consistent>  (191) 
1

>  <s_lp_Variant>  (191) 
55:0-1

>  <s_i_glide_gridfile>  (191) 
pfpi4k_grid

>  <i_i_glide_lignum>  (191) 
31

>  <i_i_glide_rotatable_bonds>  (191) 
1

>  <r_i_docking_score>  (191) 
-3.12929

>  <r_i_glide_ligand_efficiency>  (191) 
-0.260774

>  <r_i_glide_ligand_efficiency_sa>  (191) 
-0.597023

>  <r_i_glide_ligand_efficiency_ln>  (191) 
-0.897954

>  <r_i_glide_gscore>  (191) 
-3.12929

>  <r_i_glide_lipo>  (191) 
-0.0385684

>  <r_i_glide_hbond>  (191) 
0

>  <r_i_glide_metal>  (191) 
-0

>  <r_i_glide_rewards>  (191) 
-2.38958

>  <r_i_glide_evdw>  (191) 
-19.4776

>  <r_i_glide_ecoul>  (191) 
-1.25036

>  <r_i_glide_erotb>  (191) 
0.564712

>  <r_i_glide_esite>  (191) 
-0.104418

>  <r_i_glide_emodel>  (191) 
-24.3693

>  <r_i_glide_energy>  (191) 
-20.728

>  <r_i_glide_einternal>  (191) 
0.807234

>  <r_i_glide_intrahb_reward>  (191) 
-0

>  <i_i_glide_confnum>  (191) 
1

>  <i_i_glide_posenum>  (191) 
7

>  <r_i_glide_eff_state_penalty>  (191) 
0

>  <ligand_id>  (191) 
55

>  <original_smiles>  (191) 
c1nnnn1C1C2CCCCC21

>  <smiles>  (191) 
[H]c1nnnn1C1([H])C2([H])C([H])([H])C([H])([H])C([H])([H])C([H])([H])C12[H]

$$$$
55:0:2
     RDKit          3D

 24 26  0  0  1  0  0  0  0  0999 V2000
    4.4906   -6.0157    0.2340 C   0  0  0  0  0  0  0  0  0  0  0  0
    5.0590   -6.7603    1.1688 N   0  0  0  0  0  0  0  0  0  0  0  0
    6.1629   -6.0121    1.5380 N   0  0  0  0  0  0  0  0  0  0  0  0
    6.2341   -4.9007    0.8597 N   0  0  0  0  0  0  0  0  0  0  0  0
    5.1585   -4.8795    0.0365 N   0  0  0  0  0  0  0  0  0  0  0  0
    4.9499   -3.8055   -0.9116 C   0  0  2  0  0  0  0  0  0  0  0  0
    4.3926   -2.5422   -0.3118 C   0  0  1  0  0  0  0  0  0  0  0  0
    4.7676   -1.1685   -0.8405 C   0  0  0  0  0  0  0  0  0  0  0  0
    4.6185   -1.0561   -2.3660 C   0  0  0  0  0  0  0  0  0  0  0  0
    3.2510   -1.5586   -2.8370 C   0  0  0  0  0  0  0  0  0  0  0  0
    3.0540   -3.0529   -2.5430 C   0  0  0  0  0  0  0  0  0  0  0  0
    3.4910   -3.4470   -1.1411 C   0  0  1  0  0  0  0  0  0  0  0  0
    3.6000   -6.2983   -0.3067 H   0  0  0  0  0  0  0  0  0  0  0  0
    5.6814   -3.7863   -1.7169 H   0  0  0  0  0  0  0  0  0  0  0  0
    4.2315   -2.5577    0.7646 H   0  0  0  0  0  0  0  0  0  0  0  0
    4.1242   -0.4310   -0.3589 H   0  0  0  0  0  0  0  0  0  0  0  0
    5.7886   -0.9388   -0.5365 H   0  0  0  0  0  0  0  0  0  0  0  0
    4.7493   -0.0165   -2.6687 H   0  0  0  0  0  0  0  0  0  0  0  0
    5.4032   -1.6296   -2.8584 H   0  0  0  0  0  0  0  0  0  0  0  0
    2.4800   -0.9808   -2.3285 H   0  0  0  0  0  0  0  0  0  0  0  0
    3.1212   -1.3728   -3.9042 H   0  0  0  0  0  0  0  0  0  0  0  0
    2.0061   -3.3233   -2.6825 H   0  0  0  0  0  0  0  0  0  0  0  0
    3.6210   -3.6513   -3.2570 H   0  0  0  0  0  0  0  0  0  0  0  0
    2.7457   -4.0224   -0.5961 H   0  0  0  0  0  0  0  0  0  0  0  0
  1  5  1  0
  1  2  2  0
  1 13  1  0
  2  3  1  0
  3  4  2  0
  4  5  1  0
  5  6  1  0
  6 12  1  0
  6  7  1  0
  6 14  1  6
  7 12  1  0
  7  8  1  0
  7 15  1  1
  8  9  1  0
  8 16  1  0
  8 17  1  0
  9 10  1  0
  9 18  1  0
  9 19  1  0
 10 11  1  0
 10 20  1  0
 10 21  1  0
 11 12  1  0
 11 22  1  0
 11 23  1  0
 12 24  1  1
M  END
>  <i_m_ct_stereo_status>  (192) 
1

>  <s_m_source_file>  (192) 
/var/tmp/pbs.5076255.sched01/tmpar858yha/42b8svm9_t.sdf

>  <i_m_source_file_index>  (192) 
31

>  <i_lp_mmshare_version>  (192) 
48012

>  <i_f3d_flags>  (192) 
0

>  <s_epik_input>  (192) 
bjFubltjSF1uMVtDQEhdMltDQEBIXShbQ0BASF0yMylbQ0gyXVtDSDJdW0NIMl1bQ0gyXTM=

>  <s_epik_cmdline>  (192) 
J2VwaWtfcHl0aG9uJywgJy1waHQnLCAnMi4wJywgJy1waCcsICc3LjAnLCAnLXRuJywgJzgnLCAnLW1hJywgJzIwMCcsICctaW1hZScsICc8aW5maWxlLm1hZT4nLCAnLW9tYWUnLCAnPG91dGZpbGUubWFlPic=

>  <r_lp_tautomer_probability>  (192) 
1

>  <r_epik_Ionization_Penalty>  (192) 
4.1117e-09

>  <r_epik_Ionization_Penalty_Charging>  (192) 
0

>  <r_epik_Ionization_Penalty_Neutral>  (192) 
4.1117e-09

>  <r_epik_State_Penalty>  (192) 
-0

>  <r_epik_Charging_Adjusted_Penalty>  (192) 
0

>  <i_epik_Tot_Q>  (192) 
0

>  <i_epik_Tot_abs_Q>  (192) 
0

>  <s_lp_Force_Field>  (192) 
OPLS3e

>  <r_lp_Energy>  (192) 
20.2532

>  <b_lp_Chiralities_Consistent>  (192) 
1

>  <s_lp_Variant>  (192) 
55:0-1

>  <s_i_glide_gridfile>  (192) 
pfpi4k_grid

>  <i_i_glide_lignum>  (192) 
31

>  <i_i_glide_rotatable_bonds>  (192) 
1

>  <r_i_docking_score>  (192) 
-3.12018

>  <r_i_glide_ligand_efficiency>  (192) 
-0.260015

>  <r_i_glide_ligand_efficiency_sa>  (192) 
-0.595286

>  <r_i_glide_ligand_efficiency_ln>  (192) 
-0.895342

>  <r_i_glide_gscore>  (192) 
-3.12018

>  <r_i_glide_lipo>  (192) 
-0.0702846

>  <r_i_glide_hbond>  (192) 
0

>  <r_i_glide_metal>  (192) 
-0

>  <r_i_glide_rewards>  (192) 
-2.43275

>  <r_i_glide_evdw>  (192) 
-18.8041

>  <r_i_glide_ecoul>  (192) 
-1.61105

>  <r_i_glide_erotb>  (192) 
0.564712

>  <r_i_glide_esite>  (192) 
0

>  <r_i_glide_emodel>  (192) 
-24.1998

>  <r_i_glide_energy>  (192) 
-20.4152

>  <r_i_glide_einternal>  (192) 
0.471952

>  <r_i_glide_intrahb_reward>  (192) 
-0

>  <i_i_glide_confnum>  (192) 
3

>  <i_i_glide_posenum>  (192) 
34

>  <r_i_glide_eff_state_penalty>  (192) 
0

>  <ligand_id>  (192) 
55

>  <original_smiles>  (192) 
c1nnnn1C1C2CCCCC21

>  <smiles>  (192) 
[H]c1nnnn1C1([H])C2([H])C([H])([H])C([H])([H])C([H])([H])C([H])([H])C12[H]

$$$$
55:1:0
     RDKit          3D

 24 26  0  0  1  0  0  0  0  0999 V2000
    2.9478   -3.9076   -0.5892 C   0  0  0  0  0  0  0  0  0  0  0  0
    2.6093   -4.5574    0.5108 N   0  0  0  0  0  0  0  0  0  0  0  0
    3.7777   -5.1886    0.9006 N   0  0  0  0  0  0  0  0  0  0  0  0
    4.7325   -4.9686    0.0505 N   0  0  0  0  0  0  0  0  0  0  0  0
    4.2472   -4.0948   -0.8753 N   0  0  0  0  0  0  0  0  0  0  0  0
    5.0634   -3.6311   -1.9874 C   0  0  1  0  0  0  0  0  0  0  0  0
    4.9637   -2.1534   -2.2988 C   0  0  1  0  0  0  0  0  0  0  0  0
    4.1173   -1.1228   -1.5469 C   0  0  0  0  0  0  0  0  0  0  0  0
    4.3350   -1.0828   -0.0125 C   0  0  0  0  0  0  0  0  0  0  0  0
    5.8357   -1.0399    0.3074 C   0  0  0  0  0  0  0  0  0  0  0  0
    6.6042   -2.2709   -0.2185 C   0  0  0  0  0  0  0  0  0  0  0  0
    6.2324   -2.7036   -1.6456 C   0  0  1  0  0  0  0  0  0  0  0  0
    2.2625   -3.3199   -1.1905 H   0  0  0  0  0  0  0  0  0  0  0  0
    5.1680   -4.3599   -2.7972 H   0  0  0  0  0  0  0  0  0  0  0  0
    5.0206   -1.9293   -3.3563 H   0  0  0  0  0  0  0  0  0  0  0  0
    4.3560   -0.1452   -1.9696 H   0  0  0  0  0  0  0  0  0  0  0  0
    3.0665   -1.2765   -1.7952 H   0  0  0  0  0  0  0  0  0  0  0  0
    3.8313   -0.1941    0.3935 H   0  0  0  0  0  0  0  0  0  0  0  0
    3.9063   -1.9325    0.5020 H   0  0  0  0  0  0  0  0  0  0  0  0
    6.2632   -0.1187   -0.1026 H   0  0  0  0  0  0  0  0  0  0  0  0
    5.9662   -0.9774    1.3886 H   0  0  0  0  0  0  0  0  0  0  0  0
    7.6764   -2.0700   -0.1827 H   0  0  0  0  0  0  0  0  0  0  0  0
    6.4694   -3.1165    0.4523 H   0  0  0  0  0  0  0  0  0  0  0  0
    7.0975   -2.7801   -2.2991 H   0  0  0  0  0  0  0  0  0  0  0  0
  1  5  1  0
  1  2  2  0
  1 13  1  0
  2  3  1  0
  3  4  2  0
  4  5  1  0
  5  6  1  0
  6 12  1  0
  6  7  1  0
  6 14  1  6
  7 12  1  0
  7  8  1  0
  7 15  1  6
  8  9  1  0
  8 16  1  0
  8 17  1  0
  9 10  1  0
  9 18  1  0
  9 19  1  0
 10 11  1  0
 10 20  1  0
 10 21  1  0
 11 12  1  0
 11 22  1  0
 11 23  1  0
 12 24  1  6
M  END
>  <i_m_ct_stereo_status>  (193) 
1

>  <s_m_source_file>  (193) 
/var/tmp/pbs.5076255.sched01/tmpar858yha/42b8svm9_t.sdf

>  <i_m_source_file_index>  (193) 
32

>  <i_lp_mmshare_version>  (193) 
48012

>  <i_f3d_flags>  (193) 
0

>  <s_epik_input>  (193) 
bjFubltjSF1uMVtDQEhdMltDQEBIXShbQ0BASF0yMylbQ0gyXVtDSDJdW0NIMl1bQ0gyXTM=

>  <s_epik_cmdline>  (193) 
J2VwaWtfcHl0aG9uJywgJy1waHQnLCAnMi4wJywgJy1waCcsICc3LjAnLCAnLXRuJywgJzgnLCAnLW1hJywgJzIwMCcsICctaW1hZScsICc8aW5maWxlLm1hZT4nLCAnLW9tYWUnLCAnPG91dGZpbGUubWFlPic=

>  <r_lp_tautomer_probability>  (193) 
1

>  <r_epik_Ionization_Penalty>  (193) 
4.1117e-09

>  <r_epik_Ionization_Penalty_Charging>  (193) 
0

>  <r_epik_Ionization_Penalty_Neutral>  (193) 
4.1117e-09

>  <r_epik_State_Penalty>  (193) 
-0

>  <r_epik_Charging_Adjusted_Penalty>  (193) 
0

>  <i_epik_Tot_Q>  (193) 
0

>  <i_epik_Tot_abs_Q>  (193) 
0

>  <s_lp_Force_Field>  (193) 
OPLS3e

>  <r_lp_Energy>  (193) 
20.4394

>  <b_lp_Chiralities_Consistent>  (193) 
1

>  <s_lp_Variant>  (193) 
55:0-2

>  <s_i_glide_gridfile>  (193) 
pfpi4k_grid

>  <i_i_glide_lignum>  (193) 
32

>  <i_i_glide_rotatable_bonds>  (193) 
1

>  <r_i_docking_score>  (193) 
-3.1834

>  <r_i_glide_ligand_efficiency>  (193) 
-0.265284

>  <r_i_glide_ligand_efficiency_sa>  (193) 
-0.607348

>  <r_i_glide_ligand_efficiency_ln>  (193) 
-0.913483

>  <r_i_glide_gscore>  (193) 
-3.1834

>  <r_i_glide_lipo>  (193) 
-0.18454

>  <r_i_glide_hbond>  (193) 
0

>  <r_i_glide_metal>  (193) 
-0

>  <r_i_glide_rewards>  (193) 
-2.25

>  <r_i_glide_evdw>  (193) 
-18.6277

>  <r_i_glide_ecoul>  (193) 
-1.98054

>  <r_i_glide_erotb>  (193) 
0.564712

>  <r_i_glide_esite>  (193) 
-0.0851089

>  <r_i_glide_emodel>  (193) 
-24.677

>  <r_i_glide_energy>  (193) 
-20.6082

>  <r_i_glide_einternal>  (193) 
0.000116536

>  <r_i_glide_intrahb_reward>  (193) 
-0

>  <i_i_glide_confnum>  (193) 
6

>  <i_i_glide_posenum>  (193) 
1

>  <r_i_glide_eff_state_penalty>  (193) 
0

>  <ligand_id>  (193) 
55

>  <original_smiles>  (193) 
c1nnnn1C1C2CCCCC21

>  <smiles>  (193) 
[H]c1nnnn1C1([H])C2([H])C([H])([H])C([H])([H])C([H])([H])C([H])([H])C12[H]

$$$$
55:1:1
     RDKit          3D

 24 26  0  0  1  0  0  0  0  0999 V2000
    6.7741   -1.8553    0.8994 C   0  0  0  0  0  0  0  0  0  0  0  0
    8.0020   -1.6399    0.4468 N   0  0  0  0  0  0  0  0  0  0  0  0
    8.2120   -2.7204   -0.4092 N   0  0  0  0  0  0  0  0  0  0  0  0
    7.1680   -3.4978   -0.4457 N   0  0  0  0  0  0  0  0  0  0  0  0
    6.2174   -2.9296    0.3447 N   0  0  0  0  0  0  0  0  0  0  0  0
    4.9078   -3.5356    0.5318 C   0  0  1  0  0  0  0  0  0  0  0  0
    3.7080   -2.6431    0.2175 C   0  0  1  0  0  0  0  0  0  0  0  0
    3.8204   -1.1947   -0.2705 C   0  0  0  0  0  0  0  0  0  0  0  0
    3.9761   -1.0590   -1.8005 C   0  0  0  0  0  0  0  0  0  0  0  0
    4.9871   -2.0427   -2.3948 C   0  0  0  0  0  0  0  0  0  0  0  0
    4.5140   -3.4873   -2.1526 C   0  0  0  0  0  0  0  0  0  0  0  0
    4.0826   -3.7843   -0.7167 C   0  0  1  0  0  0  0  0  0  0  0  0
    6.2881   -1.2304    1.6378 H   0  0  0  0  0  0  0  0  0  0  0  0
    4.8564   -4.2265    1.3706 H   0  0  0  0  0  0  0  0  0  0  0  0
    2.8198   -2.8094    0.8315 H   0  0  0  0  0  0  0  0  0  0  0  0
    2.9268   -0.6549    0.0502 H   0  0  0  0  0  0  0  0  0  0  0  0
    4.6351   -0.6853    0.2424 H   0  0  0  0  0  0  0  0  0  0  0  0
    3.0031   -1.1746   -2.2851 H   0  0  0  0  0  0  0  0  0  0  0  0
    4.3091   -0.0457   -2.0249 H   0  0  0  0  0  0  0  0  0  0  0  0
    5.0785   -1.8762   -3.4746 H   0  0  0  0  0  0  0  0  0  0  0  0
    5.9713   -1.8586   -1.9579 H   0  0  0  0  0  0  0  0  0  0  0  0
    3.6602   -3.6901   -2.7996 H   0  0  0  0  0  0  0  0  0  0  0  0
    5.2762   -4.2066   -2.4486 H   0  0  0  0  0  0  0  0  0  0  0  0
    3.4493   -4.6739   -0.6641 H   0  0  0  0  0  0  0  0  0  0  0  0
  1  5  1  0
  1  2  2  0
  1 13  1  0
  2  3  1  0
  3  4  2  0
  4  5  1  0
  5  6  1  0
  6 12  1  0
  6  7  1  0
  6 14  1  1
  7 12  1  0
  7  8  1  0
  7 15  1  1
  8  9  1  0
  8 16  1  0
  8 17  1  0
  9 10  1  0
  9 18  1  0
  9 19  1  0
 10 11  1  0
 10 20  1  0
 10 21  1  0
 11 12  1  0
 11 22  1  0
 11 23  1  0
 12 24  1  6
M  END
>  <i_m_ct_stereo_status>  (194) 
1

>  <s_m_source_file>  (194) 
/var/tmp/pbs.5076255.sched01/tmpar858yha/42b8svm9_t.sdf

>  <i_m_source_file_index>  (194) 
32

>  <i_lp_mmshare_version>  (194) 
48012

>  <i_f3d_flags>  (194) 
0

>  <s_epik_input>  (194) 
bjFubltjSF1uMVtDQEhdMltDQEBIXShbQ0BASF0yMylbQ0gyXVtDSDJdW0NIMl1bQ0gyXTM=

>  <s_epik_cmdline>  (194) 
J2VwaWtfcHl0aG9uJywgJy1waHQnLCAnMi4wJywgJy1waCcsICc3LjAnLCAnLXRuJywgJzgnLCAnLW1hJywgJzIwMCcsICctaW1hZScsICc8aW5maWxlLm1hZT4nLCAnLW9tYWUnLCAnPG91dGZpbGUubWFlPic=

>  <r_lp_tautomer_probability>  (194) 
1

>  <r_epik_Ionization_Penalty>  (194) 
4.1117e-09

>  <r_epik_Ionization_Penalty_Charging>  (194) 
0

>  <r_epik_Ionization_Penalty_Neutral>  (194) 
4.1117e-09

>  <r_epik_State_Penalty>  (194) 
-0

>  <r_epik_Charging_Adjusted_Penalty>  (194) 
0

>  <i_epik_Tot_Q>  (194) 
0

>  <i_epik_Tot_abs_Q>  (194) 
0

>  <s_lp_Force_Field>  (194) 
OPLS3e

>  <r_lp_Energy>  (194) 
20.4394

>  <b_lp_Chiralities_Consistent>  (194) 
1

>  <s_lp_Variant>  (194) 
55:0-2

>  <s_i_glide_gridfile>  (194) 
pfpi4k_grid

>  <i_i_glide_lignum>  (194) 
32

>  <i_i_glide_rotatable_bonds>  (194) 
1

>  <r_i_docking_score>  (194) 
-3.04739

>  <r_i_glide_ligand_efficiency>  (194) 
-0.253949

>  <r_i_glide_ligand_efficiency_sa>  (194) 
-0.581398

>  <r_i_glide_ligand_efficiency_ln>  (194) 
-0.874453

>  <r_i_glide_gscore>  (194) 
-3.04739

>  <r_i_glide_lipo>  (194) 
-0.0706822

>  <r_i_glide_hbond>  (194) 
0

>  <r_i_glide_metal>  (194) 
-0

>  <r_i_glide_rewards>  (194) 
-2.38934

>  <r_i_glide_evdw>  (194) 
-17.8241

>  <r_i_glide_ecoul>  (194) 
-1.58074

>  <r_i_glide_erotb>  (194) 
0.564712

>  <r_i_glide_esite>  (194) 
-0.023764

>  <r_i_glide_emodel>  (194) 
-23.3117

>  <r_i_glide_energy>  (194) 
-19.4048

>  <r_i_glide_einternal>  (194) 
0.00774045

>  <r_i_glide_intrahb_reward>  (194) 
-0

>  <i_i_glide_confnum>  (194) 
4

>  <i_i_glide_posenum>  (194) 
6

>  <r_i_glide_eff_state_penalty>  (194) 
0

>  <ligand_id>  (194) 
55

>  <original_smiles>  (194) 
c1nnnn1C1C2CCCCC21

>  <smiles>  (194) 
[H]c1nnnn1C1([H])C2([H])C([H])([H])C([H])([H])C([H])([H])C([H])([H])C12[H]

$$$$
55:1:2
     RDKit          3D

 24 26  0  0  1  0  0  0  0  0999 V2000
    4.5013   -4.8335   -0.2653 C   0  0  0  0  0  0  0  0  0  0  0  0
    3.4485   -5.2100    0.4437 N   0  0  0  0  0  0  0  0  0  0  0  0
    2.8551   -4.0262    0.8214 N   0  0  0  0  0  0  0  0  0  0  0  0
    3.5110   -3.0038    0.3279 N   0  0  0  0  0  0  0  0  0  0  0  0
    4.5377   -3.5086   -0.4005 N   0  0  0  0  0  0  0  0  0  0  0  0
    5.4884   -2.6361   -1.0816 C   0  0  1  0  0  0  0  0  0  0  0  0
    5.6256   -2.8262   -2.5926 C   0  0  1  0  0  0  0  0  0  0  0  0
    4.8244   -3.8403   -3.4160 C   0  0  0  0  0  0  0  0  0  0  0  0
    3.4394   -3.3531   -3.8786 C   0  0  0  0  0  0  0  0  0  0  0  0
    2.6735   -2.6264   -2.7715 C   0  0  0  0  0  0  0  0  0  0  0  0
    3.4503   -1.3663   -2.3348 C   0  0  0  0  0  0  0  0  0  0  0  0
    4.9278   -1.5945   -2.0272 C   0  0  1  0  0  0  0  0  0  0  0  0
    5.2305   -5.5079   -0.7052 H   0  0  0  0  0  0  0  0  0  0  0  0
    6.3733   -2.4161   -0.4861 H   0  0  0  0  0  0  0  0  0  0  0  0
    6.6250   -2.6600   -2.9856 H   0  0  0  0  0  0  0  0  0  0  0  0
    5.4086   -4.1284   -4.2916 H   0  0  0  0  0  0  0  0  0  0  0  0
    4.7271   -4.7494   -2.8307 H   0  0  0  0  0  0  0  0  0  0  0  0
    3.5435   -2.6943   -4.7420 H   0  0  0  0  0  0  0  0  0  0  0  0
    2.8568   -4.2105   -4.2095 H   0  0  0  0  0  0  0  0  0  0  0  0
    1.6911   -2.3216   -3.1551 H   0  0  0  0  0  0  0  0  0  0  0  0
    2.5152   -3.3019   -1.9272 H   0  0  0  0  0  0  0  0  0  0  0  0
    3.3871   -0.6057   -3.1146 H   0  0  0  0  0  0  0  0  0  0  0  0
    3.0061   -0.9137   -1.4577 H   0  0  0  0  0  0  0  0  0  0  0  0
    5.4881   -0.6627   -2.0526 H   0  0  0  0  0  0  0  0  0  0  0  0
  1  5  1  0
  1  2  2  0
  1 13  1  0
  2  3  1  0
  3  4  2  0
  4  5  1  0
  5  6  1  0
  6 12  1  0
  6  7  1  0
  6 14  1  1
  7 12  1  0
  7  8  1  0
  7 15  1  1
  8  9  1  0
  8 16  1  0
  8 17  1  0
  9 10  1  0
  9 18  1  0
  9 19  1  0
 10 11  1  0
 10 20  1  0
 10 21  1  0
 11 12  1  0
 11 22  1  0
 11 23  1  0
 12 24  1  1
M  END
>  <i_m_ct_stereo_status>  (195) 
1

>  <s_m_source_file>  (195) 
/var/tmp/pbs.5076255.sched01/tmpar858yha/42b8svm9_t.sdf

>  <i_m_source_file_index>  (195) 
32

>  <i_lp_mmshare_version>  (195) 
48012

>  <i_f3d_flags>  (195) 
0

>  <s_epik_input>  (195) 
bjFubltjSF1uMVtDQEhdMltDQEBIXShbQ0BASF0yMylbQ0gyXVtDSDJdW0NIMl1bQ0gyXTM=

>  <s_epik_cmdline>  (195) 
J2VwaWtfcHl0aG9uJywgJy1waHQnLCAnMi4wJywgJy1waCcsICc3LjAnLCAnLXRuJywgJzgnLCAnLW1hJywgJzIwMCcsICctaW1hZScsICc8aW5maWxlLm1hZT4nLCAnLW9tYWUnLCAnPG91dGZpbGUubWFlPic=

>  <r_lp_tautomer_probability>  (195) 
1

>  <r_epik_Ionization_Penalty>  (195) 
4.1117e-09

>  <r_epik_Ionization_Penalty_Charging>  (195) 
0

>  <r_epik_Ionization_Penalty_Neutral>  (195) 
4.1117e-09

>  <r_epik_State_Penalty>  (195) 
-0

>  <r_epik_Charging_Adjusted_Penalty>  (195) 
0

>  <i_epik_Tot_Q>  (195) 
0

>  <i_epik_Tot_abs_Q>  (195) 
0

>  <s_lp_Force_Field>  (195) 
OPLS3e

>  <r_lp_Energy>  (195) 
20.4394

>  <b_lp_Chiralities_Consistent>  (195) 
1

>  <s_lp_Variant>  (195) 
55:0-2

>  <s_i_glide_gridfile>  (195) 
pfpi4k_grid

>  <i_i_glide_lignum>  (195) 
32

>  <i_i_glide_rotatable_bonds>  (195) 
1

>  <r_i_docking_score>  (195) 
-3.021

>  <r_i_glide_ligand_efficiency>  (195) 
-0.25175

>  <r_i_glide_ligand_efficiency_sa>  (195) 
-0.576364

>  <r_i_glide_ligand_efficiency_ln>  (195) 
-0.866882

>  <r_i_glide_gscore>  (195) 
-3.021

>  <r_i_glide_lipo>  (195) 
-0.298987

>  <r_i_glide_hbond>  (195) 
0

>  <r_i_glide_metal>  (195) 
-0

>  <r_i_glide_rewards>  (195) 
-2.29909

>  <r_i_glide_evdw>  (195) 
-19.7364

>  <r_i_glide_ecoul>  (195) 
0.371092

>  <r_i_glide_erotb>  (195) 
0.564712

>  <r_i_glide_esite>  (195) 
-0.0564847

>  <r_i_glide_emodel>  (195) 
-23.2035

>  <r_i_glide_energy>  (195) 
-19.3653

>  <r_i_glide_einternal>  (195) 
0.0308835

>  <r_i_glide_intrahb_reward>  (195) 
-0

>  <i_i_glide_confnum>  (195) 
3

>  <i_i_glide_posenum>  (195) 
16

>  <r_i_glide_eff_state_penalty>  (195) 
0

>  <ligand_id>  (195) 
55

>  <original_smiles>  (195) 
c1nnnn1C1C2CCCCC21

>  <smiles>  (195) 
[H]c1nnnn1C1([H])C2([H])C([H])([H])C([H])([H])C([H])([H])C([H])([H])C12[H]

$$$$
56:0:0
     RDKit          3D

 30 32  0  0  1  0  0  0  0  0999 V2000
    7.2654   -3.5236    0.8032 C   0  0  0  0  0  0  0  0  0  0  0  0
    6.1805   -2.4532    0.5702 C   0  0  1  0  0  0  0  0  0  0  0  0
    5.4158   -2.0380    2.0168 C   0  0  0  0  0  0  0  0  0  0  0  0
    3.6993   -2.1891    1.8209 C   0  0  1  0  0  0  0  0  0  0  0  0
    4.1573   -1.5204    0.8294 C   0  0  0  0  0  0  0  0  0  0  0  0
    4.8966   -2.7062    0.7767 C   0  0  0  0  0  0  0  0  0  0  0  0
    4.2900   -4.1440    1.0257 C   0  0  0  0  0  0  0  0  0  0  0  0
    4.6258   -5.3224    0.0641 C   0  0  0  0  0  0  0  0  0  0  0  0
    4.2868   -4.7754    2.4655 C   0  0  0  0  0  0  0  0  0  0  0  0
    3.0959   -3.3329    0.7583 C   0  0  2  0  0  0  0  0  0  0  0  0
    3.1306   -3.1046   -0.8908 C   0  0  0  0  0  0  0  0  0  0  0  0
    4.2696   -2.7607   -1.6298 C   0  0  0  0  0  0  0  0  0  0  0  0
    3.9071   -2.5973   -3.5745 Br  0  0  0  0  0  0  0  0  0  0  0  0
    5.7448   -2.4517   -1.0318 C   0  0  0  0  0  0  0  0  0  0  0  0
    6.6770   -2.2348   -1.7908 O   0  0  0  0  0  0  0  0  0  0  0  0
    7.3680   -4.2095   -0.0372 H   0  0  0  0  0  0  0  0  0  0  0  0
    7.1167   -4.1154    1.7008 H   0  0  0  0  0  0  0  0  0  0  0  0
    8.2297   -3.0256    0.8891 H   0  0  0  0  0  0  0  0  0  0  0  0
    5.7719   -2.6543    2.8588 H   0  0  0  0  0  0  0  0  0  0  0  0
    5.7499   -1.0370    2.3411 H   0  0  0  0  0  0  0  0  0  0  0  0
    3.0268   -1.5757    2.4193 H   0  0  0  0  0  0  0  0  0  0  0  0
    4.4356   -0.4666    0.7782 H   0  0  0  0  0  0  0  0  0  0  0  0
    3.7803   -6.0081    0.0037 H   0  0  0  0  0  0  0  0  0  0  0  0
    5.4645   -5.8968    0.4547 H   0  0  0  0  0  0  0  0  0  0  0  0
    4.8990   -5.0728   -0.9575 H   0  0  0  0  0  0  0  0  0  0  0  0
    3.6068   -5.6254    2.4770 H   0  0  0  0  0  0  0  0  0  0  0  0
    3.9483   -4.1311    3.2758 H   0  0  0  0  0  0  0  0  0  0  0  0
    5.2673   -5.1615    2.7428 H   0  0  0  0  0  0  0  0  0  0  0  0
    2.1787   -3.8088    1.1010 H   0  0  0  0  0  0  0  0  0  0  0  0
    2.1867   -3.2336   -1.3920 H   0  0  0  0  0  0  0  0  0  0  0  0
  2  1  1  6
  1 16  1  0
  1 17  1  0
  1 18  1  0
  2  6  1  0
  2 14  1  0
  2  3  1  0
  3  4  1  0
  3 19  1  0
  3 20  1  0
  4 10  1  0
  4  5  1  0
  4 21  1  1
  5  6  2  0
  5 22  1  0
  6  7  1  0
  7  8  1  0
  7  9  1  0
  7 10  1  0
  8 23  1  0
  8 24  1  0
  8 25  1  0
  9 26  1  0
  9 27  1  0
  9 28  1  0
 10 11  1  0
 10 29  1  1
 11 12  2  0
 11 30  1  0
 12 13  1  0
 12 14  1  0
 14 15  2  0
M  END
>  <i_m_ct_stereo_status>  (196) 
1

>  <s_m_source_file>  (196) 
/var/tmp/pbs.5076255.sched01/tmpar858yha/42b8svm9_t.sdf

>  <i_m_source_file_index>  (196) 
33

>  <i_lp_mmshare_version>  (196) 
48012

>  <i_f3d_flags>  (196) 
0

>  <s_epik_input>  (196) 
W0NIM11bQ0BAXTEyQzM9W0NIXVtDQEhdKFtDSDJdMSlbQ0BIXShDMyhbQ0gzXSlbQ0gzXSlbQ0hdPUMoQnIpQzI9Tw==

>  <s_epik_cmdline>  (196) 
J2VwaWtfcHl0aG9uJywgJy1waHQnLCAnMi4wJywgJy1waCcsICc3LjAnLCAnLXRuJywgJzgnLCAnLW1hJywgJzIwMCcsICctaW1hZScsICc8aW5maWxlLm1hZT4nLCAnLW9tYWUnLCAnPG91dGZpbGUubWFlPic=

>  <r_lp_tautomer_probability>  (196) 
1

>  <r_epik_Ionization_Penalty>  (196) 
0

>  <r_epik_Ionization_Penalty_Charging>  (196) 
0

>  <r_epik_Ionization_Penalty_Neutral>  (196) 
0

>  <r_epik_State_Penalty>  (196) 
-0

>  <r_epik_Charging_Adjusted_Penalty>  (196) 
0

>  <i_epik_Tot_Q>  (196) 
0

>  <i_epik_Tot_abs_Q>  (196) 
0

>  <s_lp_Force_Field>  (196) 
OPLS3e

>  <r_lp_Energy>  (196) 
361.475

>  <b_lp_Chiralities_Consistent>  (196) 
1

>  <s_lp_Variant>  (196) 
56:0-1

>  <s_i_glide_gridfile>  (196) 
pfpi4k_grid

>  <i_i_glide_lignum>  (196) 
33

>  <i_i_glide_rotatable_bonds>  (196) 
0

>  <r_i_docking_score>  (196) 
-3.80347

>  <r_i_glide_ligand_efficiency>  (196) 
-0.253565

>  <r_i_glide_ligand_efficiency_sa>  (196) 
-0.625344

>  <r_i_glide_ligand_efficiency_ln>  (196) 
-1.02573

>  <r_i_glide_gscore>  (196) 
-3.80347

>  <r_i_glide_lipo>  (196) 
-0.522806

>  <r_i_glide_hbond>  (196) 
-0.16

>  <r_i_glide_metal>  (196) 
-0

>  <r_i_glide_rewards>  (196) 
-1.58753

>  <r_i_glide_evdw>  (196) 
-22.3263

>  <r_i_glide_ecoul>  (196) 
-2.63822

>  <r_i_glide_erotb>  (196) 
0

>  <r_i_glide_esite>  (196) 
-0.0210835

>  <r_i_glide_emodel>  (196) 
-31.0705

>  <r_i_glide_energy>  (196) 
-24.9645

>  <r_i_glide_einternal>  (196) 
0

>  <r_i_glide_intrahb_reward>  (196) 
-0

>  <i_i_glide_confnum>  (196) 
1

>  <i_i_glide_posenum>  (196) 
14

>  <r_i_glide_eff_state_penalty>  (196) 
0

>  <ligand_id>  (196) 
56

>  <original_smiles>  (196) 
CC12CC3C=C1C(C)(C)C3C=C(Br)C2=O

>  <smiles>  (196) 
[H]C1=C2C3(C([H])([H])[H])C(=O)C(Br)=C([H])C([H])(C1([H])C3([H])[H])C2(C([H])([H])[H])C([H])([H])[H]

$$$$
56:0:1
     RDKit          3D

 30 32  0  0  1  0  0  0  0  0999 V2000
    6.6625   -2.1551    0.6656 C   0  0  0  0  0  0  0  0  0  0  0  0
    5.2082   -1.6772    0.5219 C   0  0  1  0  0  0  0  0  0  0  0  0
    4.3852   -1.7949    1.9998 C   0  0  0  0  0  0  0  0  0  0  0  0
    2.9138   -2.6828    1.7709 C   0  0  1  0  0  0  0  0  0  0  0  0
    3.0080   -1.7894    0.8619 C   0  0  0  0  0  0  0  0  0  0  0  0
    4.1882   -2.5048    0.6796 C   0  0  0  0  0  0  0  0  0  0  0  0
    4.2866   -4.0731    0.7675 C   0  0  0  0  0  0  0  0  0  0  0  0
    5.0720   -4.8685   -0.3144 C   0  0  0  0  0  0  0  0  0  0  0  0
    4.6086   -4.7912    2.1299 C   0  0  0  0  0  0  0  0  0  0  0  0
    2.8445   -3.8527    0.5723 C   0  0  2  0  0  0  0  0  0  0  0  0
    2.7051   -3.4559   -1.0368 C   0  0  0  0  0  0  0  0  0  0  0  0
    3.5493   -2.5607   -1.7252 C   0  0  0  0  0  0  0  0  0  0  0  0
    3.1324   -2.3892   -3.6497 Br  0  0  0  0  0  0  0  0  0  0  0  0
    4.7384   -1.7009   -1.0716 C   0  0  0  0  0  0  0  0  0  0  0  0
    5.4311   -1.0145   -1.8235 O   0  0  0  0  0  0  0  0  0  0  0  0
    7.0336   -2.6288   -0.2404 H   0  0  0  0  0  0  0  0  0  0  0  0
    6.8087   -2.8427    1.4878 H   0  0  0  0  0  0  0  0  0  0  0  0
    7.2986   -1.2897    0.8482 H   0  0  0  0  0  0  0  0  0  0  0  0
    5.0090   -2.2576    2.7791 H   0  0  0  0  0  0  0  0  0  0  0  0
    4.2512   -0.7907    2.4410 H   0  0  0  0  0  0  0  0  0  0  0  0
    2.0535   -2.5002    2.4092 H   0  0  0  0  0  0  0  0  0  0  0  0
    2.7552   -0.7322    0.9171 H   0  0  0  0  0  0  0  0  0  0  0  0
    4.6223   -5.8504   -0.4674 H   0  0  0  0  0  0  0  0  0  0  0  0
    6.0918   -5.0445    0.0277 H   0  0  0  0  0  0  0  0  0  0  0  0
    5.1719   -4.4128   -1.2938 H   0  0  0  0  0  0  0  0  0  0  0  0
    4.3797   -5.8559    2.0433 H   0  0  0  0  0  0  0  0  0  0  0  0
    4.0462   -4.4529    3.0017 H   0  0  0  0  0  0  0  0  0  0  0  0
    5.6666   -4.7202    2.3825 H   0  0  0  0  0  0  0  0  0  0  0  0
    2.2391   -4.7294    0.8317 H   0  0  0  0  0  0  0  0  0  0  0  0
    1.9285   -3.9563   -1.5802 H   0  0  0  0  0  0  0  0  0  0  0  0
  2  1  1  1
  1 16  1  0
  1 17  1  0
  1 18  1  0
  2  6  1  0
  2 14  1  0
  2  3  1  0
  3  4  1  0
  3 19  1  0
  3 20  1  0
  4 10  1  0
  4  5  1  0
  4 21  1  1
  5  6  2  0
  5 22  1  0
  6  7  1  0
  7  8  1  0
  7  9  1  0
  7 10  1  0
  8 23  1  0
  8 24  1  0
  8 25  1  0
  9 26  1  0
  9 27  1  0
  9 28  1  0
 10 11  1  0
 10 29  1  1
 11 12  2  0
 11 30  1  0
 12 13  1  0
 12 14  1  0
 14 15  2  0
M  END
>  <i_m_ct_stereo_status>  (197) 
1

>  <s_m_source_file>  (197) 
/var/tmp/pbs.5076255.sched01/tmpar858yha/42b8svm9_t.sdf

>  <i_m_source_file_index>  (197) 
33

>  <i_lp_mmshare_version>  (197) 
48012

>  <i_f3d_flags>  (197) 
0

>  <s_epik_input>  (197) 
W0NIM11bQ0BAXTEyQzM9W0NIXVtDQEhdKFtDSDJdMSlbQ0BIXShDMyhbQ0gzXSlbQ0gzXSlbQ0hdPUMoQnIpQzI9Tw==

>  <s_epik_cmdline>  (197) 
J2VwaWtfcHl0aG9uJywgJy1waHQnLCAnMi4wJywgJy1waCcsICc3LjAnLCAnLXRuJywgJzgnLCAnLW1hJywgJzIwMCcsICctaW1hZScsICc8aW5maWxlLm1hZT4nLCAnLW9tYWUnLCAnPG91dGZpbGUubWFlPic=

>  <r_lp_tautomer_probability>  (197) 
1

>  <r_epik_Ionization_Penalty>  (197) 
0

>  <r_epik_Ionization_Penalty_Charging>  (197) 
0

>  <r_epik_Ionization_Penalty_Neutral>  (197) 
0

>  <r_epik_State_Penalty>  (197) 
-0

>  <r_epik_Charging_Adjusted_Penalty>  (197) 
0

>  <i_epik_Tot_Q>  (197) 
0

>  <i_epik_Tot_abs_Q>  (197) 
0

>  <s_lp_Force_Field>  (197) 
OPLS3e

>  <r_lp_Energy>  (197) 
361.475

>  <b_lp_Chiralities_Consistent>  (197) 
1

>  <s_lp_Variant>  (197) 
56:0-1

>  <s_i_glide_gridfile>  (197) 
pfpi4k_grid

>  <i_i_glide_lignum>  (197) 
33

>  <i_i_glide_rotatable_bonds>  (197) 
0

>  <r_i_docking_score>  (197) 
-3.50371

>  <r_i_glide_ligand_efficiency>  (197) 
-0.233581

>  <r_i_glide_ligand_efficiency_sa>  (197) 
-0.576059

>  <r_i_glide_ligand_efficiency_ln>  (197) 
-0.944892

>  <r_i_glide_gscore>  (197) 
-3.50371

>  <r_i_glide_lipo>  (197) 
-0.445046

>  <r_i_glide_hbond>  (197) 
-0.0109948

>  <r_i_glide_metal>  (197) 
-0

>  <r_i_glide_rewards>  (197) 
-1.58753

>  <r_i_glide_evdw>  (197) 
-22.2899

>  <r_i_glide_ecoul>  (197) 
-2.07695

>  <r_i_glide_erotb>  (197) 
0

>  <r_i_glide_esite>  (197) 
-0.0340956

>  <r_i_glide_emodel>  (197) 
-29.9905

>  <r_i_glide_energy>  (197) 
-24.3668

>  <r_i_glide_einternal>  (197) 
0

>  <r_i_glide_intrahb_reward>  (197) 
-0

>  <i_i_glide_confnum>  (197) 
1

>  <i_i_glide_posenum>  (197) 
17

>  <r_i_glide_eff_state_penalty>  (197) 
0

>  <ligand_id>  (197) 
56

>  <original_smiles>  (197) 
CC12CC3C=C1C(C)(C)C3C=C(Br)C2=O

>  <smiles>  (197) 
[H]C1=C2C3(C([H])([H])[H])C(=O)C(Br)=C([H])C([H])(C1([H])C3([H])[H])C2(C([H])([H])[H])C([H])([H])[H]

$$$$
56:0:2
     RDKit          3D

 30 32  0  0  1  0  0  0  0  0999 V2000
    6.6746   -4.1980    0.5476 C   0  0  0  0  0  0  0  0  0  0  0  0
    6.4664   -2.7347    0.1034 C   0  0  1  0  0  0  0  0  0  0  0  0
    6.3345   -1.7129    1.4421 C   0  0  0  0  0  0  0  0  0  0  0  0
    4.8968   -0.7650    1.3119 C   0  0  1  0  0  0  0  0  0  0  0  0
    5.5213   -0.6992    0.1996 C   0  0  0  0  0  0  0  0  0  0  0  0
    5.3439   -2.0836    0.3709 C   0  0  0  0  0  0  0  0  0  0  0  0
    4.0218   -2.7395    0.9211 C   0  0  0  0  0  0  0  0  0  0  0  0
    3.4115   -3.9847    0.2114 C   0  0  0  0  0  0  0  0  0  0  0  0
    3.8276   -2.9980    2.4591 C   0  0  0  0  0  0  0  0  0  0  0  0
    3.5735   -1.3985    0.5068 C   0  0  2  0  0  0  0  0  0  0  0  0
    3.5178   -1.4930   -1.1541 C   0  0  0  0  0  0  0  0  0  0  0  0
    4.5050   -2.0767   -1.9669 C   0  0  0  0  0  0  0  0  0  0  0  0
    4.0321   -2.0135   -3.8887 Br  0  0  0  0  0  0  0  0  0  0  0  0
    5.9088   -2.6778   -1.4585 C   0  0  0  0  0  0  0  0  0  0  0  0
    6.6658   -3.1631   -2.2805 O   0  0  0  0  0  0  0  0  0  0  0  0
    6.2100   -4.9067   -0.1347 H   0  0  0  0  0  0  0  0  0  0  0  0
    6.3143   -4.4130    1.5505 H   0  0  0  0  0  0  0  0  0  0  0  0
    7.7406   -4.4205    0.5341 H   0  0  0  0  0  0  0  0  0  0  0  0
    6.3443   -2.2792    2.3905 H   0  0  0  0  0  0  0  0  0  0  0  0
    7.2590   -1.1185    1.5604 H   0  0  0  0  0  0  0  0  0  0  0  0
    4.8331    0.2105    1.7880 H   0  0  0  0  0  0  0  0  0  0  0  0
    6.3747   -0.0776   -0.0508 H   0  0  0  0  0  0  0  0  0  0  0  0
    2.3281   -3.9706    0.3061 H   0  0  0  0  0  0  0  0  0  0  0  0
    3.7549   -4.8930    0.7024 H   0  0  0  0  0  0  0  0  0  0  0  0
    3.6367   -4.1225   -0.8398 H   0  0  0  0  0  0  0  0  0  0  0  0
    2.7750   -3.1986    2.6604 H   0  0  0  0  0  0  0  0  0  0  0  0
    4.0873   -2.1747    3.1274 H   0  0  0  0  0  0  0  0  0  0  0  0
    4.3840   -3.8721    2.7960 H   0  0  0  0  0  0  0  0  0  0  0  0
    2.6042   -1.1099    0.9367 H   0  0  0  0  0  0  0  0  0  0  0  0
    2.6362   -1.0767   -1.6158 H   0  0  0  0  0  0  0  0  0  0  0  0
  2  1  1  1
  1 16  1  0
  1 17  1  0
  1 18  1  0
  2  6  1  0
  2 14  1  0
  2  3  1  0
  3  4  1  0
  3 19  1  0
  3 20  1  0
  4 10  1  0
  4  5  1  0
  4 21  1  1
  5  6  2  0
  5 22  1  0
  6  7  1  0
  7  8  1  0
  7  9  1  0
  7 10  1  0
  8 23  1  0
  8 24  1  0
  8 25  1  0
  9 26  1  0
  9 27  1  0
  9 28  1  0
 10 11  1  0
 10 29  1  1
 11 12  2  0
 11 30  1  0
 12 13  1  0
 12 14  1  0
 14 15  2  0
M  END
>  <i_m_ct_stereo_status>  (198) 
1

>  <s_m_source_file>  (198) 
/var/tmp/pbs.5076255.sched01/tmpar858yha/42b8svm9_t.sdf

>  <i_m_source_file_index>  (198) 
33

>  <i_lp_mmshare_version>  (198) 
48012

>  <i_f3d_flags>  (198) 
0

>  <s_epik_input>  (198) 
W0NIM11bQ0BAXTEyQzM9W0NIXVtDQEhdKFtDSDJdMSlbQ0BIXShDMyhbQ0gzXSlbQ0gzXSlbQ0hdPUMoQnIpQzI9Tw==

>  <s_epik_cmdline>  (198) 
J2VwaWtfcHl0aG9uJywgJy1waHQnLCAnMi4wJywgJy1waCcsICc3LjAnLCAnLXRuJywgJzgnLCAnLW1hJywgJzIwMCcsICctaW1hZScsICc8aW5maWxlLm1hZT4nLCAnLW9tYWUnLCAnPG91dGZpbGUubWFlPic=

>  <r_lp_tautomer_probability>  (198) 
1

>  <r_epik_Ionization_Penalty>  (198) 
0

>  <r_epik_Ionization_Penalty_Charging>  (198) 
0

>  <r_epik_Ionization_Penalty_Neutral>  (198) 
0

>  <r_epik_State_Penalty>  (198) 
-0

>  <r_epik_Charging_Adjusted_Penalty>  (198) 
0

>  <i_epik_Tot_Q>  (198) 
0

>  <i_epik_Tot_abs_Q>  (198) 
0

>  <s_lp_Force_Field>  (198) 
OPLS3e

>  <r_lp_Energy>  (198) 
361.475

>  <b_lp_Chiralities_Consistent>  (198) 
1

>  <s_lp_Variant>  (198) 
56:0-1

>  <s_i_glide_gridfile>  (198) 
pfpi4k_grid

>  <i_i_glide_lignum>  (198) 
33

>  <i_i_glide_rotatable_bonds>  (198) 
0

>  <r_i_docking_score>  (198) 
-3.45945

>  <r_i_glide_ligand_efficiency>  (198) 
-0.23063

>  <r_i_glide_ligand_efficiency_sa>  (198) 
-0.568783

>  <r_i_glide_ligand_efficiency_ln>  (198) 
-0.932958

>  <r_i_glide_gscore>  (198) 
-3.45945

>  <r_i_glide_lipo>  (198) 
-0.626941

>  <r_i_glide_hbond>  (198) 
0

>  <r_i_glide_metal>  (198) 
-0

>  <r_i_glide_rewards>  (198) 
-1.58753

>  <r_i_glide_evdw>  (198) 
-21.5844

>  <r_i_glide_ecoul>  (198) 
-1.03238

>  <r_i_glide_erotb>  (198) 
0

>  <r_i_glide_esite>  (198) 
-0.0109033

>  <r_i_glide_emodel>  (198) 
-28.1464

>  <r_i_glide_energy>  (198) 
-22.6167

>  <r_i_glide_einternal>  (198) 
0

>  <r_i_glide_intrahb_reward>  (198) 
-0

>  <i_i_glide_confnum>  (198) 
2

>  <i_i_glide_posenum>  (198) 
25

>  <r_i_glide_eff_state_penalty>  (198) 
0

>  <ligand_id>  (198) 
56

>  <original_smiles>  (198) 
CC12CC3C=C1C(C)(C)C3C=C(Br)C2=O

>  <smiles>  (198) 
[H]C1=C2C3(C([H])([H])[H])C(=O)C(Br)=C([H])C([H])(C1([H])C3([H])[H])C2(C([H])([H])[H])C([H])([H])[H]

$$$$
57:0:0
     RDKit          3D

 53 56  0  0  1  0  0  0  0  0999 V2000
    3.3977   -7.3864    3.3128 C   0  0  0  0  0  0  0  0  0  0  0  0
    2.6047   -6.2535    2.6093 C   0  0  1  0  0  0  0  0  0  0  0  0
    1.6242   -6.9164    1.5934 C   0  0  0  0  0  0  0  0  0  0  0  0
    0.5028   -7.7742    2.2343 C   0  0  0  0  0  0  0  0  0  0  0  0
   -0.1647   -7.0699    3.4172 C   0  0  0  0  0  0  0  0  0  0  0  0
   -1.3844   -7.0562    3.5442 O   0  0  0  0  0  0  0  0  0  0  0  0
    0.7636   -6.3734    4.4145 C   0  0  0  0  0  0  0  0  0  0  0  0
    1.7183   -5.5003    3.6108 C   0  0  0  0  0  0  0  0  0  0  0  0
    1.6467   -4.1575    3.6687 C   0  0  0  0  0  0  0  0  0  0  0  0
    2.3999   -3.2189    2.7487 C   0  0  0  0  0  0  0  0  0  0  0  0
    2.9623   -3.9305    1.4944 C   0  0  2  0  0  0  0  0  0  0  0  0
    3.6031   -5.2906    1.8562 C   0  0  1  0  0  0  0  0  0  0  0  0
    4.9634   -5.0074    2.5432 C   0  0  0  0  0  0  0  0  0  0  0  0
    5.9050   -4.2391    1.5931 C   0  0  0  0  0  0  0  0  0  0  0  0
    5.3707   -2.8682    1.0895 C   0  0  2  0  0  0  0  0  0  0  0  0
    5.5412   -1.7996    2.2001 C   0  0  0  0  0  0  0  0  0  0  0  0
    3.8903   -3.0254    0.6291 C   0  0  1  0  0  0  0  0  0  0  0  0
    3.9555   -3.4631   -0.8486 C   0  0  0  0  0  0  0  0  0  0  0  0
    5.4038   -3.2663   -1.3179 C   0  0  0  0  0  0  0  0  0  0  0  0
    6.1016   -2.4355   -0.2295 C   0  0  1  0  0  0  0  0  0  0  0  0
    5.8116   -1.0714   -0.4997 O   0  0  0  0  0  0  0  0  0  0  0  0
    7.6520   -2.5710   -0.2278 C   0  0  0  0  0  0  0  0  0  0  0  0
    8.2021   -2.3212   -1.5115 O   0  0  0  0  0  0  0  0  0  0  0  0
    4.0939   -7.8633    2.6217 H   0  0  0  0  0  0  0  0  0  0  0  0
    2.7583   -8.1798    3.6994 H   0  0  0  0  0  0  0  0  0  0  0  0
    3.9683   -7.0078    4.1618 H   0  0  0  0  0  0  0  0  0  0  0  0
    1.1404   -6.1461    0.9941 H   0  0  0  0  0  0  0  0  0  0  0  0
    2.1770   -7.5351    0.8869 H   0  0  0  0  0  0  0  0  0  0  0  0
   -0.2574   -8.0198    1.4911 H   0  0  0  0  0  0  0  0  0  0  0  0
    0.8987   -8.7268    2.5868 H   0  0  0  0  0  0  0  0  0  0  0  0
    0.1838   -5.7694    5.1095 H   0  0  0  0  0  0  0  0  0  0  0  0
    1.3069   -7.1129    5.0006 H   0  0  0  0  0  0  0  0  0  0  0  0
    0.9740   -3.6843    4.3687 H   0  0  0  0  0  0  0  0  0  0  0  0
    1.7120   -2.4327    2.4327 H   0  0  0  0  0  0  0  0  0  0  0  0
    3.1730   -2.7413    3.3436 H   0  0  0  0  0  0  0  0  0  0  0  0
    2.0984   -4.1421    0.8691 H   0  0  0  0  0  0  0  0  0  0  0  0
    3.8548   -5.7995    0.9270 H   0  0  0  0  0  0  0  0  0  0  0  0
    4.8270   -4.4695    3.4815 H   0  0  0  0  0  0  0  0  0  0  0  0
    5.4722   -5.9344    2.8018 H   0  0  0  0  0  0  0  0  0  0  0  0
    6.8675   -4.0922    2.0777 H   0  0  0  0  0  0  0  0  0  0  0  0
    6.1136   -4.8987    0.7528 H   0  0  0  0  0  0  0  0  0  0  0  0
    4.9415   -0.9097    2.0063 H   0  0  0  0  0  0  0  0  0  0  0  0
    6.5753   -1.4688    2.2802 H   0  0  0  0  0  0  0  0  0  0  0  0
    5.2591   -2.1719    3.1822 H   0  0  0  0  0  0  0  0  0  0  0  0
    3.4400   -2.0307    0.6121 H   0  0  0  0  0  0  0  0  0  0  0  0
    3.6676   -4.5054   -0.9836 H   0  0  0  0  0  0  0  0  0  0  0  0
    3.2688   -2.8633   -1.4470 H   0  0  0  0  0  0  0  0  0  0  0  0
    5.8741   -4.2472   -1.3915 H   0  0  0  0  0  0  0  0  0  0  0  0
    5.4683   -2.8184   -2.3106 H   0  0  0  0  0  0  0  0  0  0  0  0
    4.8738   -0.9581   -0.4781 H   0  0  0  0  0  0  0  0  0  0  0  0
    8.0955   -1.8835    0.4920 H   0  0  0  0  0  0  0  0  0  0  0  0
    7.9629   -3.5734    0.0570 H   0  0  0  0  0  0  0  0  0  0  0  0
    9.1408   -2.4949   -1.5188 H   0  0  0  0  0  0  0  0  0  0  0  0
  2  1  1  1
  1 24  1  0
  1 25  1  0
  1 26  1  0
  2  8  1  0
  2 12  1  0
  2  3  1  0
  3  4  1  0
  3 27  1  0
  3 28  1  0
  4  5  1  0
  4 29  1  0
  4 30  1  0
  5  6  2  0
  5  7  1  0
  7  8  1  0
  7 31  1  0
  7 32  1  0
  8  9  2  0
  9 10  1  0
  9 33  1  0
 10 11  1  0
 10 34  1  0
 10 35  1  0
 11 17  1  0
 11 12  1  0
 11 36  1  6
 12 13  1  0
 12 37  1  6
 13 14  1  0
 13 38  1  0
 13 39  1  0
 14 15  1  0
 14 40  1  0
 14 41  1  0
 15 20  1  0
 15 16  1  1
 15 17  1  0
 16 42  1  0
 16 43  1  0
 16 44  1  0
 17 18  1  0
 17 45  1  6
 18 19  1  0
 18 46  1  0
 18 47  1  0
 19 20  1  0
 19 48  1  0
 19 49  1  0
 20 21  1  6
 20 22  1  0
 21 50  1  0
 22 23  1  0
 22 51  1  0
 22 52  1  0
 23 53  1  0
M  END
>  <i_m_ct_stereo_status>  (199) 
1

>  <s_m_source_file>  (199) 
/var/tmp/pbs.5076255.sched01/tmpar858yha/42b8svm9_t.sdf

>  <i_m_source_file_index>  (199) 
34

>  <i_lp_mmshare_version>  (199) 
48012

>  <i_f3d_flags>  (199) 
0

>  <s_epik_input>  (199) 
W0NIMl0xW0NIMl1DKD1PKVtDSDJdQyhbQ0BAXTEyW0NIM10pPVtDSF1bQ0gyXVtDQEBIXTNbQ0BIXTJbQ0gyXVtDSDJdW0NAXTQoW0NIM10pW0NASF0zW0NIMl1bQ0gyXVtDQF00KFtPSF0pW0NIMl1bT0hd

>  <s_epik_cmdline>  (199) 
J2VwaWtfcHl0aG9uJywgJy1waHQnLCAnMi4wJywgJy1waCcsICc3LjAnLCAnLXRuJywgJzgnLCAnLW1hJywgJzIwMCcsICctaW1hZScsICc8aW5maWxlLm1hZT4nLCAnLW9tYWUnLCAnPG91dGZpbGUubWFlPic=

>  <r_lp_tautomer_probability>  (199) 
1

>  <r_epik_Ionization_Penalty>  (199) 
9.46984e-07

>  <r_epik_Ionization_Penalty_Charging>  (199) 
0

>  <r_epik_Ionization_Penalty_Neutral>  (199) 
9.46984e-07

>  <r_epik_State_Penalty>  (199) 
-0

>  <r_epik_Charging_Adjusted_Penalty>  (199) 
0

>  <i_epik_Tot_Q>  (199) 
0

>  <i_epik_Tot_abs_Q>  (199) 
0

>  <s_lp_Force_Field>  (199) 
OPLS3e

>  <r_lp_Energy>  (199) 
49.9076

>  <b_lp_Chiralities_Consistent>  (199) 
1

>  <s_lp_Variant>  (199) 
57:0-1

>  <s_i_glide_gridfile>  (199) 
pfpi4k_grid

>  <i_i_glide_lignum>  (199) 
34

>  <i_i_glide_rotatable_bonds>  (199) 
3

>  <r_i_docking_score>  (199) 
-3.5302

>  <r_i_glide_ligand_efficiency>  (199) 
-0.153487

>  <r_i_glide_ligand_efficiency_sa>  (199) 
-0.436496

>  <r_i_glide_ligand_efficiency_ln>  (199) 
-0.853634

>  <r_i_glide_gscore>  (199) 
-3.5302

>  <r_i_glide_lipo>  (199) 
-0.329894

>  <r_i_glide_hbond>  (199) 
-0.0819964

>  <r_i_glide_metal>  (199) 
-0

>  <r_i_glide_rewards>  (199) 
-1.23784

>  <r_i_glide_evdw>  (199) 
-17.9092

>  <r_i_glide_ecoul>  (199) 
-7.03449

>  <r_i_glide_erotb>  (199) 
0.1287

>  <r_i_glide_esite>  (199) 
-0.0585337

>  <r_i_glide_emodel>  (199) 
-29.8106

>  <r_i_glide_energy>  (199) 
-24.9437

>  <r_i_glide_einternal>  (199) 
3.61919

>  <r_i_glide_intrahb_reward>  (199) 
-0

>  <i_i_glide_confnum>  (199) 
2

>  <i_i_glide_posenum>  (199) 
12

>  <r_i_glide_eff_state_penalty>  (199) 
0

>  <ligand_id>  (199) 
57

>  <original_smiles>  (199) 
CC12CCC(=O)CC1=CCC1C2CCC2(C)C1CCC2(O)CO

>  <smiles>  (199) 
[H]OC([H])([H])C1(O[H])C([H])([H])C([H])([H])C2([H])C3([H])C([H])([H])C([H])=C4C([H])([H])C(=O)C([H])([H])C([H])([H])C4(C([H])([H])[H])C3([H])C([H])([H])C([H])([H])C21C([H])([H])[H]

$$$$
57:0:1
     RDKit          3D

 53 56  0  0  1  0  0  0  0  0999 V2000
    3.5117   -7.6394    2.3843 C   0  0  0  0  0  0  0  0  0  0  0  0
    2.7222   -6.3359    2.1106 C   0  0  1  0  0  0  0  0  0  0  0  0
    1.3928   -6.7190    1.3955 C   0  0  0  0  0  0  0  0  0  0  0  0
    0.4018   -7.5432    2.2469 C   0  0  0  0  0  0  0  0  0  0  0  0
    0.2338   -6.9621    3.6559 C   0  0  0  0  0  0  0  0  0  0  0  0
   -0.8788   -6.8197    4.1544 O   0  0  0  0  0  0  0  0  0  0  0  0
    1.5112   -6.5349    4.3803 C   0  0  0  0  0  0  0  0  0  0  0  0
    2.3015   -5.6547    3.4245 C   0  0  0  0  0  0  0  0  0  0  0  0
    2.4428   -4.3368    3.6486 C   0  0  0  0  0  0  0  0  0  0  0  0
    3.0233   -3.3571    2.6551 C   0  0  0  0  0  0  0  0  0  0  0  0
    3.0739   -3.9191    1.2169 C   0  0  2  0  0  0  0  0  0  0  0  0
    3.5804   -5.3791    1.1980 C   0  0  1  0  0  0  0  0  0  0  0  0
    5.1102   -5.3547    1.4473 C   0  0  0  0  0  0  0  0  0  0  0  0
    5.8357   -4.5436    0.3563 C   0  0  0  0  0  0  0  0  0  0  0  0
    5.3855   -3.0607    0.2190 C   0  0  2  0  0  0  0  0  0  0  0  0
    6.0052   -2.2007    1.3593 C   0  0  0  0  0  0  0  0  0  0  0  0
    3.8294   -2.9898    0.2196 C   0  0  1  0  0  0  0  0  0  0  0  0
    3.3932   -3.1876   -1.2424 C   0  0  0  0  0  0  0  0  0  0  0  0
    4.6556   -3.0727   -2.1087 C   0  0  0  0  0  0  0  0  0  0  0  0
    5.7550   -2.4982   -1.1961 C   0  0  1  0  0  0  0  0  0  0  0  0
    5.5671   -1.0967   -1.2737 O   0  0  0  0  0  0  0  0  0  0  0  0
    7.1870   -2.7830   -1.7391 C   0  0  0  0  0  0  0  0  0  0  0  0
    8.2518   -2.2699   -0.9437 O   0  0  0  0  0  0  0  0  0  0  0  0
    3.8911   -8.0709    1.4566 H   0  0  0  0  0  0  0  0  0  0  0  0
    2.9074   -8.4118    2.8566 H   0  0  0  0  0  0  0  0  0  0  0  0
    4.3582   -7.4590    3.0473 H   0  0  0  0  0  0  0  0  0  0  0  0
    0.8799   -5.8187    1.0767 H   0  0  0  0  0  0  0  0  0  0  0  0
    1.5947   -7.2779    0.4869 H   0  0  0  0  0  0  0  0  0  0  0  0
   -0.5717   -7.5911    1.7561 H   0  0  0  0  0  0  0  0  0  0  0  0
    0.7363   -8.5751    2.3404 H   0  0  0  0  0  0  0  0  0  0  0  0
    1.2629   -5.9894    5.2909 H   0  0  0  0  0  0  0  0  0  0  0  0
    2.0841   -7.4132    4.6687 H   0  0  0  0  0  0  0  0  0  0  0  0
    2.1005   -3.9091    4.5800 H   0  0  0  0  0  0  0  0  0  0  0  0
    2.4024   -2.4637    2.6703 H   0  0  0  0  0  0  0  0  0  0  0  0
    3.9971   -3.0651    3.0317 H   0  0  0  0  0  0  0  0  0  0  0  0
    2.0396   -3.9329    0.8822 H   0  0  0  0  0  0  0  0  0  0  0  0
    3.4692   -5.7565    0.1825 H   0  0  0  0  0  0  0  0  0  0  0  0
    5.3451   -4.9515    2.4315 H   0  0  0  0  0  0  0  0  0  0  0  0
    5.5327   -6.3595    1.4180 H   0  0  0  0  0  0  0  0  0  0  0  0
    6.9047   -4.5700    0.5541 H   0  0  0  0  0  0  0  0  0  0  0  0
    5.6968   -5.0726   -0.5892 H   0  0  0  0  0  0  0  0  0  0  0  0
    5.5154   -1.2283    1.4407 H   0  0  0  0  0  0  0  0  0  0  0  0
    7.0603   -1.9950    1.2057 H   0  0  0  0  0  0  0  0  0  0  0  0
    5.9621   -2.7028    2.3249 H   0  0  0  0  0  0  0  0  0  0  0  0
    3.5485   -1.9613    0.4538 H   0  0  0  0  0  0  0  0  0  0  0  0
    2.9201   -4.1529   -1.4050 H   0  0  0  0  0  0  0  0  0  0  0  0
    2.6557   -2.4333   -1.5224 H   0  0  0  0  0  0  0  0  0  0  0  0
    4.9260   -4.0713   -2.4462 H   0  0  0  0  0  0  0  0  0  0  0  0
    4.4882   -2.4806   -3.0117 H   0  0  0  0  0  0  0  0  0  0  0  0
    4.6939   -0.9080   -0.9666 H   0  0  0  0  0  0  0  0  0  0  0  0
    7.3418   -3.8457   -1.8690 H   0  0  0  0  0  0  0  0  0  0  0  0
    7.2850   -2.3486   -2.7233 H   0  0  0  0  0  0  0  0  0  0  0  0
    9.0919   -2.5052   -1.3369 H   0  0  0  0  0  0  0  0  0  0  0  0
  2  1  1  1
  1 24  1  0
  1 25  1  0
  1 26  1  0
  2  8  1  0
  2 12  1  0
  2  3  1  0
  3  4  1  0
  3 27  1  0
  3 28  1  0
  4  5  1  0
  4 29  1  0
  4 30  1  0
  5  6  2  0
  5  7  1  0
  7  8  1  0
  7 31  1  0
  7 32  1  0
  8  9  2  0
  9 10  1  0
  9 33  1  0
 10 11  1  0
 10 34  1  0
 10 35  1  0
 11 17  1  0
 11 12  1  0
 11 36  1  6
 12 13  1  0
 12 37  1  6
 13 14  1  0
 13 38  1  0
 13 39  1  0
 14 15  1  0
 14 40  1  0
 14 41  1  0
 15 20  1  0
 15 16  1  1
 15 17  1  0
 16 42  1  0
 16 43  1  0
 16 44  1  0
 17 18  1  0
 17 45  1  1
 18 19  1  0
 18 46  1  0
 18 47  1  0
 19 20  1  0
 19 48  1  0
 19 49  1  0
 20 21  1  1
 20 22  1  0
 21 50  1  0
 22 23  1  0
 22 51  1  0
 22 52  1  0
 23 53  1  0
M  END
>  <i_m_ct_stereo_status>  (200) 
1

>  <s_m_source_file>  (200) 
/var/tmp/pbs.5076255.sched01/tmpar858yha/42b8svm9_t.sdf

>  <i_m_source_file_index>  (200) 
34

>  <i_lp_mmshare_version>  (200) 
48012

>  <i_f3d_flags>  (200) 
0

>  <s_epik_input>  (200) 
W0NIMl0xW0NIMl1DKD1PKVtDSDJdQyhbQ0BAXTEyW0NIM10pPVtDSF1bQ0gyXVtDQEBIXTNbQ0BIXTJbQ0gyXVtDSDJdW0NAXTQoW0NIM10pW0NASF0zW0NIMl1bQ0gyXVtDQF00KFtPSF0pW0NIMl1bT0hd

>  <s_epik_cmdline>  (200) 
J2VwaWtfcHl0aG9uJywgJy1waHQnLCAnMi4wJywgJy1waCcsICc3LjAnLCAnLXRuJywgJzgnLCAnLW1hJywgJzIwMCcsICctaW1hZScsICc8aW5maWxlLm1hZT4nLCAnLW9tYWUnLCAnPG91dGZpbGUubWFlPic=

>  <r_lp_tautomer_probability>  (200) 
1

>  <r_epik_Ionization_Penalty>  (200) 
9.46984e-07

>  <r_epik_Ionization_Penalty_Charging>  (200) 
0

>  <r_epik_Ionization_Penalty_Neutral>  (200) 
9.46984e-07

>  <r_epik_State_Penalty>  (200) 
-0

>  <r_epik_Charging_Adjusted_Penalty>  (200) 
0

>  <i_epik_Tot_Q>  (200) 
0

>  <i_epik_Tot_abs_Q>  (200) 
0

>  <s_lp_Force_Field>  (200) 
OPLS3e

>  <r_lp_Energy>  (200) 
49.9076

>  <b_lp_Chiralities_Consistent>  (200) 
1

>  <s_lp_Variant>  (200) 
57:0-1

>  <s_i_glide_gridfile>  (200) 
pfpi4k_grid

>  <i_i_glide_lignum>  (200) 
34

>  <i_i_glide_rotatable_bonds>  (200) 
3

>  <r_i_docking_score>  (200) 
-3.37616

>  <r_i_glide_ligand_efficiency>  (200) 
-0.14679

>  <r_i_glide_ligand_efficiency_sa>  (200) 
-0.41745

>  <r_i_glide_ligand_efficiency_ln>  (200) 
-0.816387

>  <r_i_glide_gscore>  (200) 
-3.37616

>  <r_i_glide_lipo>  (200) 
-0.374142

>  <r_i_glide_hbond>  (200) 
0

>  <r_i_glide_metal>  (200) 
-0

>  <r_i_glide_rewards>  (200) 
-1.23784

>  <r_i_glide_evdw>  (200) 
-18.1263

>  <r_i_glide_ecoul>  (200) 
-6.30519

>  <r_i_glide_erotb>  (200) 
0.1287

>  <r_i_glide_esite>  (200) 
-0.0407897

>  <r_i_glide_emodel>  (200) 
-28.987

>  <r_i_glide_energy>  (200) 
-24.4315

>  <r_i_glide_einternal>  (200) 
3.50635

>  <r_i_glide_intrahb_reward>  (200) 
-0

>  <i_i_glide_confnum>  (200) 
5

>  <i_i_glide_posenum>  (200) 
19

>  <r_i_glide_eff_state_penalty>  (200) 
0

>  <ligand_id>  (200) 
57

>  <original_smiles>  (200) 
CC12CCC(=O)CC1=CCC1C2CCC2(C)C1CCC2(O)CO

>  <smiles>  (200) 
[H]OC([H])([H])C1(O[H])C([H])([H])C([H])([H])C2([H])C3([H])C([H])([H])C([H])=C4C([H])([H])C(=O)C([H])([H])C([H])([H])C4(C([H])([H])[H])C3([H])C([H])([H])C([H])([H])C21C([H])([H])[H]

$$$$
57:0:2
     RDKit          3D

 53 56  0  0  1  0  0  0  0  0999 V2000
    3.3072   -7.7121    2.4288 C   0  0  0  0  0  0  0  0  0  0  0  0
    2.5041   -6.4207    2.1344 C   0  0  1  0  0  0  0  0  0  0  0  0
    1.1943   -6.8207    1.3902 C   0  0  0  0  0  0  0  0  0  0  0  0
    0.1997   -7.6648    2.2244 C   0  0  0  0  0  0  0  0  0  0  0  0
   -0.0070   -7.0923    3.6281 C   0  0  0  0  0  0  0  0  0  0  0  0
   -1.1324   -6.9762    4.1118 O   0  0  0  0  0  0  0  0  0  0  0  0
    1.2470   -6.6399    4.3780 C   0  0  0  0  0  0  0  0  0  0  0  0
    2.0465   -5.7444    3.4370 C   0  0  0  0  0  0  0  0  0  0  0  0
    2.1618   -4.4286    3.6696 C   0  0  0  0  0  0  0  0  0  0  0  0
    2.7485   -3.4359    2.6894 C   0  0  0  0  0  0  0  0  0  0  0  0
    2.8366   -3.9985    1.2517 C   0  0  2  0  0  0  0  0  0  0  0  0
    3.3687   -5.4499    1.2401 C   0  0  1  0  0  0  0  0  0  0  0  0
    4.8926   -5.3999    1.5229 C   0  0  0  0  0  0  0  0  0  0  0  0
    5.6306   -4.5783    0.4478 C   0  0  0  0  0  0  0  0  0  0  0  0
    5.1571   -3.1007    0.3003 C   0  0  2  0  0  0  0  0  0  0  0  0
    5.7392   -2.2326    1.4549 C   0  0  0  0  0  0  0  0  0  0  0  0
    3.5979   -3.0583    0.2688 C   0  0  1  0  0  0  0  0  0  0  0  0
    3.1951   -3.2688   -1.2028 C   0  0  0  0  0  0  0  0  0  0  0  0
    4.4668   -3.1299   -2.0457 C   0  0  0  0  0  0  0  0  0  0  0  0
    5.5363   -2.5328   -1.1161 C   0  0  1  0  0  0  0  0  0  0  0  0
    5.3467   -1.1271   -1.1826 O   0  0  0  0  0  0  0  0  0  0  0  0
    6.9702   -2.7936   -1.6470 C   0  0  0  0  0  0  0  0  0  0  0  0
    7.9843   -2.2722   -0.8079 O   0  0  0  0  0  0  0  0  0  0  0  0
    3.7119   -8.1381    1.5102 H   0  0  0  0  0  0  0  0  0  0  0  0
    2.7036   -8.4919    2.8913 H   0  0  0  0  0  0  0  0  0  0  0  0
    4.1374   -7.5188    3.1090 H   0  0  0  0  0  0  0  0  0  0  0  0
    0.6735   -5.9237    1.0641 H   0  0  0  0  0  0  0  0  0  0  0  0
    1.4182   -7.3753    0.4821 H   0  0  0  0  0  0  0  0  0  0  0  0
   -0.7618   -7.7280    1.7135 H   0  0  0  0  0  0  0  0  0  0  0  0
    0.5525   -8.6912    2.3242 H   0  0  0  0  0  0  0  0  0  0  0  0
    0.9706   -6.0998    5.2816 H   0  0  0  0  0  0  0  0  0  0  0  0
    1.8288   -7.5067    4.6835 H   0  0  0  0  0  0  0  0  0  0  0  0
    1.7883   -4.0073    4.5923 H   0  0  0  0  0  0  0  0  0  0  0  0
    2.1108   -2.5541    2.6869 H   0  0  0  0  0  0  0  0  0  0  0  0
    3.7083   -3.1290    3.0904 H   0  0  0  0  0  0  0  0  0  0  0  0
    1.8148   -4.0317    0.8941 H   0  0  0  0  0  0  0  0  0  0  0  0
    3.2828   -5.8280    0.2236 H   0  0  0  0  0  0  0  0  0  0  0  0
    5.0968   -4.9990    2.5148 H   0  0  0  0  0  0  0  0  0  0  0  0
    5.3295   -6.3978    1.5045 H   0  0  0  0  0  0  0  0  0  0  0  0
    6.6962   -4.5968    0.6675 H   0  0  0  0  0  0  0  0  0  0  0  0
    5.5142   -5.1123   -0.4973 H   0  0  0  0  0  0  0  0  0  0  0  0
    5.2209   -1.2749    1.5301 H   0  0  0  0  0  0  0  0  0  0  0  0
    6.7945   -1.9991    1.3301 H   0  0  0  0  0  0  0  0  0  0  0  0
    5.6724   -2.7340    2.4196 H   0  0  0  0  0  0  0  0  0  0  0  0
    3.2940   -2.0358    0.4975 H   0  0  0  0  0  0  0  0  0  0  0  0
    2.7398   -4.2433   -1.3714 H   0  0  0  0  0  0  0  0  0  0  0  0
    2.4580   -2.5254   -1.5037 H   0  0  0  0  0  0  0  0  0  0  0  0
    4.7682   -4.1247   -2.3756 H   0  0  0  0  0  0  0  0  0  0  0  0
    4.3115   -2.5409   -2.9508 H   0  0  0  0  0  0  0  0  0  0  0  0
    4.4599   -0.9472   -0.9222 H   0  0  0  0  0  0  0  0  0  0  0  0
    7.1600   -3.8452   -1.7603 H   0  0  0  0  0  0  0  0  0  0  0  0
    7.0936   -2.3635   -2.6396 H   0  0  0  0  0  0  0  0  0  0  0  0
    7.9180   -2.6960    0.0325 H   0  0  0  0  0  0  0  0  0  0  0  0
  2  1  1  1
  1 24  1  0
  1 25  1  0
  1 26  1  0
  2  8  1  0
  2 12  1  0
  2  3  1  0
  3  4  1  0
  3 27  1  0
  3 28  1  0
  4  5  1  0
  4 29  1  0
  4 30  1  0
  5  6  2  0
  5  7  1  0
  7  8  1  0
  7 31  1  0
  7 32  1  0
  8  9  2  0
  9 10  1  0
  9 33  1  0
 10 11  1  0
 10 34  1  0
 10 35  1  0
 11 17  1  0
 11 12  1  0
 11 36  1  6
 12 13  1  0
 12 37  1  6
 13 14  1  0
 13 38  1  0
 13 39  1  0
 14 15  1  0
 14 40  1  0
 14 41  1  0
 15 20  1  0
 15 16  1  1
 15 17  1  0
 16 42  1  0
 16 43  1  0
 16 44  1  0
 17 18  1  0
 17 45  1  1
 18 19  1  0
 18 46  1  0
 18 47  1  0
 19 20  1  0
 19 48  1  0
 19 49  1  0
 20 21  1  1
 20 22  1  0
 21 50  1  0
 22 23  1  0
 22 51  1  0
 22 52  1  0
 23 53  1  0
M  END
>  <i_m_ct_stereo_status>  (201) 
1

>  <s_m_source_file>  (201) 
/var/tmp/pbs.5076255.sched01/tmpar858yha/42b8svm9_t.sdf

>  <i_m_source_file_index>  (201) 
34

>  <i_lp_mmshare_version>  (201) 
48012

>  <i_f3d_flags>  (201) 
0

>  <s_epik_input>  (201) 
W0NIMl0xW0NIMl1DKD1PKVtDSDJdQyhbQ0BAXTEyW0NIM10pPVtDSF1bQ0gyXVtDQEBIXTNbQ0BIXTJbQ0gyXVtDSDJdW0NAXTQoW0NIM10pW0NASF0zW0NIMl1bQ0gyXVtDQF00KFtPSF0pW0NIMl1bT0hd

>  <s_epik_cmdline>  (201) 
J2VwaWtfcHl0aG9uJywgJy1waHQnLCAnMi4wJywgJy1waCcsICc3LjAnLCAnLXRuJywgJzgnLCAnLW1hJywgJzIwMCcsICctaW1hZScsICc8aW5maWxlLm1hZT4nLCAnLW9tYWUnLCAnPG91dGZpbGUubWFlPic=

>  <r_lp_tautomer_probability>  (201) 
1

>  <r_epik_Ionization_Penalty>  (201) 
9.46984e-07

>  <r_epik_Ionization_Penalty_Charging>  (201) 
0

>  <r_epik_Ionization_Penalty_Neutral>  (201) 
9.46984e-07

>  <r_epik_State_Penalty>  (201) 
-0

>  <r_epik_Charging_Adjusted_Penalty>  (201) 
0

>  <i_epik_Tot_Q>  (201) 
0

>  <i_epik_Tot_abs_Q>  (201) 
0

>  <s_lp_Force_Field>  (201) 
OPLS3e

>  <r_lp_Energy>  (201) 
49.9076

>  <b_lp_Chiralities_Consistent>  (201) 
1

>  <s_lp_Variant>  (201) 
57:0-1

>  <s_i_glide_gridfile>  (201) 
pfpi4k_grid

>  <i_i_glide_lignum>  (201) 
34

>  <i_i_glide_rotatable_bonds>  (201) 
3

>  <r_i_docking_score>  (201) 
-3.03039

>  <r_i_glide_ligand_efficiency>  (201) 
-0.131756

>  <r_i_glide_ligand_efficiency_sa>  (201) 
-0.374697

>  <r_i_glide_ligand_efficiency_ln>  (201) 
-0.732777

>  <r_i_glide_gscore>  (201) 
-3.03039

>  <r_i_glide_lipo>  (201) 
-0.327657

>  <r_i_glide_hbond>  (201) 
0

>  <r_i_glide_metal>  (201) 
-0

>  <r_i_glide_rewards>  (201) 
-1.23784

>  <r_i_glide_evdw>  (201) 
-20.2759

>  <r_i_glide_ecoul>  (201) 
-3.92257

>  <r_i_glide_erotb>  (201) 
0.183857

>  <r_i_glide_esite>  (201) 
-0.0465773

>  <r_i_glide_emodel>  (201) 
-28.3101

>  <r_i_glide_energy>  (201) 
-24.1984

>  <r_i_glide_einternal>  (201) 
3.12938

>  <r_i_glide_intrahb_reward>  (201) 
-0

>  <i_i_glide_confnum>  (201) 
2

>  <i_i_glide_posenum>  (201) 
13

>  <r_i_glide_eff_state_penalty>  (201) 
0

>  <ligand_id>  (201) 
57

>  <original_smiles>  (201) 
CC12CCC(=O)CC1=CCC1C2CCC2(C)C1CCC2(O)CO

>  <smiles>  (201) 
[H]OC([H])([H])C1(O[H])C([H])([H])C([H])([H])C2([H])C3([H])C([H])([H])C([H])=C4C([H])([H])C(=O)C([H])([H])C([H])([H])C4(C([H])([H])[H])C3([H])C([H])([H])C([H])([H])C21C([H])([H])[H]

$$$$
58:0:0
     RDKit          3D

 68 75  0  0  1  0  0  0  0  0999 V2000
    7.5367   -7.0525    1.3646 C   0  0  0  0  0  0  0  0  0  0  0  0
    7.2199   -6.0648    2.5139 C   0  0  2  0  0  0  0  0  0  0  0  0
    7.7572   -6.6294    3.8421 C   0  0  0  0  0  0  0  0  0  0  0  0
    6.8775   -7.7488    4.4106 C   0  0  2  0  0  0  0  0  0  0  0  0
    5.9801   -7.4419    5.5924 C   0  0  1  0  0  0  0  0  0  0  0  0
    6.2141   -6.1834    6.2264 O   0  0  0  0  0  0  0  0  0  0  0  0
    4.8828   -6.4708    5.7944 C   0  0  1  0  0  0  0  0  0  0  0  0
    4.2698   -5.5632    4.7193 C   0  0  0  0  0  0  0  0  0  0  0  0
    5.2145   -4.8235    3.7319 C   0  0  1  0  0  0  0  0  0  0  0  0
    5.7117   -5.6580    2.5038 C   0  0  1  0  0  0  0  0  0  0  0  0
    5.3890   -4.7813    1.2679 C   0  0  0  0  0  0  0  0  0  0  0  0
    5.2365   -3.3568    1.7823 C   0  0  0  0  0  0  0  0  0  0  0  0
    4.5600   -3.5356    3.1360 C   0  0  1  0  0  0  0  0  0  0  0  0
    3.0237   -3.5707    2.9602 C   0  0  0  0  0  0  0  0  0  0  0  0
    4.8617   -2.4235    3.9452 O   0  0  0  0  0  0  0  0  0  0  0  0
    6.5062   -8.6166    6.4270 C   0  0  1  0  0  0  0  0  0  0  0  0
    5.4110   -9.7480    6.4418 C   0  0  0  0  0  0  0  0  0  0  0  0
    5.3632  -10.7764    5.2358 C   0  0  1  0  0  0  0  0  0  0  0  0
    4.0582  -10.8274    4.3781 C   0  0  1  0  0  0  0  0  0  0  0  0
    4.1281  -11.9950    3.3692 C   0  0  0  0  0  0  0  0  0  0  0  0
    2.9158  -11.0898    5.2545 N   0  0  0  0  0  0  0  0  0  0  0  0
    1.6512  -10.7810    4.8633 C   0  0  0  0  0  0  0  0  0  0  0  0
    0.5793  -10.9469    5.6271 N   0  0  0  0  0  0  0  0  0  0  0  0
    1.4391  -10.2725    3.6451 O   0  0  0  0  0  0  0  0  0  0  0  0
    2.2918   -9.1762    3.3511 C   0  0  2  0  0  0  0  0  0  0  0  0
    3.2353   -9.3860    2.2368 C   0  0  0  0  0  0  0  0  0  0  0  0
    3.7266   -9.4957    3.6787 C   0  0  2  0  0  0  0  0  0  0  0  0
    6.6764  -10.8292    4.4175 C   0  0  0  0  0  0  0  0  0  0  0  0
    7.7141  -10.2106    5.2972 C   0  0  1  0  0  0  0  0  0  0  0  0
    8.7662   -9.4470    4.9095 O   0  0  0  0  0  0  0  0  0  0  0  0
    7.6064   -8.6912    5.3534 C   0  0  2  0  0  0  0  0  0  0  0  0
    6.9740   -7.9842    1.4487 H   0  0  0  0  0  0  0  0  0  0  0  0
    8.5950   -7.3158    1.3367 H   0  0  0  0  0  0  0  0  0  0  0  0
    7.3127   -6.6312    0.3875 H   0  0  0  0  0  0  0  0  0  0  0  0
    7.8074   -5.1706    2.3114 H   0  0  0  0  0  0  0  0  0  0  0  0
    8.7418   -7.0507    3.6430 H   0  0  0  0  0  0  0  0  0  0  0  0
    7.9432   -5.8411    4.5621 H   0  0  0  0  0  0  0  0  0  0  0  0
    6.3822   -8.3077    3.6363 H   0  0  0  0  0  0  0  0  0  0  0  0
    4.1728   -6.7473    6.5726 H   0  0  0  0  0  0  0  0  0  0  0  0
    3.5378   -6.1503    4.1654 H   0  0  0  0  0  0  0  0  0  0  0  0
    3.6933   -4.8213    5.2760 H   0  0  0  0  0  0  0  0  0  0  0  0
    6.0919   -4.4933    4.2908 H   0  0  0  0  0  0  0  0  0  0  0  0
    5.1093   -6.5668    2.4213 H   0  0  0  0  0  0  0  0  0  0  0  0
    6.1334   -4.8229    0.4718 H   0  0  0  0  0  0  0  0  0  0  0  0
    4.4455   -5.1029    0.8262 H   0  0  0  0  0  0  0  0  0  0  0  0
    6.2273   -2.9170    1.9083 H   0  0  0  0  0  0  0  0  0  0  0  0
    4.6761   -2.7168    1.0966 H   0  0  0  0  0  0  0  0  0  0  0  0
    2.6977   -4.4420    2.3955 H   0  0  0  0  0  0  0  0  0  0  0  0
    2.6767   -2.6879    2.4234 H   0  0  0  0  0  0  0  0  0  0  0  0
    2.4994   -3.5693    3.9133 H   0  0  0  0  0  0  0  0  0  0  0  0
    4.4693   -1.6526    3.5495 H   0  0  0  0  0  0  0  0  0  0  0  0
    6.8787   -8.3283    7.4227 H   0  0  0  0  0  0  0  0  0  0  0  0
    5.5773  -10.3423    7.3431 H   0  0  0  0  0  0  0  0  0  0  0  0
    4.4276   -9.2981    6.5909 H   0  0  0  0  0  0  0  0  0  0  0  0
    5.3694  -11.7337    5.7549 H   0  0  0  0  0  0  0  0  0  0  0  0
    4.8862  -11.8376    2.5971 H   0  0  0  0  0  0  0  0  0  0  0  0
    3.1844  -12.1500    2.8451 H   0  0  0  0  0  0  0  0  0  0  0  0
    4.3565  -12.9396    3.8677 H   0  0  0  0  0  0  0  0  0  0  0  0
    0.7344  -11.4396    6.5560 H   0  0  0  0  0  0  0  0  0  0  0  0
   -0.3739  -10.7507    5.3197 H   0  0  0  0  0  0  0  0  0  0  0  0
    1.8958   -8.1943    3.5887 H   0  0  0  0  0  0  0  0  0  0  0  0
    3.0753  -10.2764    1.6354 H   0  0  0  0  0  0  0  0  0  0  0  0
    3.5087   -8.4873    1.6718 H   0  0  0  0  0  0  0  0  0  0  0  0
    4.2362   -8.6411    4.0977 H   0  0  0  0  0  0  0  0  0  0  0  0
    6.9793  -11.8442    4.2031 H   0  0  0  0  0  0  0  0  0  0  0  0
    6.6397  -10.3154    3.4643 H   0  0  0  0  0  0  0  0  0  0  0  0
    7.9490  -10.7783    6.2001 H   0  0  0  0  0  0  0  0  0  0  0  0
    3.0671  -11.6119    6.1084 H   0  0  0  0  0  0  0  0  0  0  0  0
  1  2  1  0
  1 32  1  0
  1 33  1  0
  1 34  1  0
  2 10  1  0
  2  3  1  0
  2 35  1  6
  3  4  1  0
  3 36  1  0
  3 37  1  0
  4 31  1  0
  4  5  1  0
  4 38  1  6
  5  7  1  0
  5  6  1  1
  5 16  1  0
  6  7  1  0
  7  8  1  0
  7 39  1  1
  8  9  1  0
  8 40  1  0
  8 41  1  0
  9 13  1  0
  9 10  1  0
  9 42  1  1
 10 11  1  0
 10 43  1  6
 11 12  1  0
 11 44  1  0
 11 45  1  0
 12 13  1  0
 12 46  1  0
 12 47  1  0
 13 14  1  0
 13 15  1  1
 14 48  1  0
 14 49  1  0
 14 50  1  0
 15 51  1  0
 16 31  1  0
 16 17  1  0
 16 52  1  1
 17 18  1  0
 17 53  1  0
 17 54  1  0
 18 19  1  0
 18 28  1  0
 18 55  1  1
 19 27  1  0
 19 20  1  6
 19 21  1  0
 20 56  1  0
 20 57  1  0
 20 58  1  0
 21 22  2  0
 21 68  1  0
 22 23  1  0
 22 24  1  0
 23 59  1  0
 23 60  1  0
 24 25  1  0
 25 27  1  0
 25 26  1  0
 25 61  1  1
 26 27  1  0
 26 62  1  0
 26 63  1  0
 27 64  1  1
 28 29  1  0
 28 65  1  0
 28 66  1  0
 29 31  1  0
 29 30  1  0
 29 67  1  1
 31 30  1  1
M  CHG  1  21   1
M  END
>  <i_m_ct_stereo_status>  (202) 
1

>  <s_m_source_file>  (202) 
/var/tmp/pbs.5076255.sched01/tmpar858yha/42b8svm9_t.sdf

>  <i_m_source_file_index>  (202) 
35

>  <i_lp_mmshare_version>  (202) 
48012

>  <i_f3d_flags>  (202) 
0

>  <s_epik_input>  (202) 
TzFbQ0BIXTJbQ0gyXVtDQEhdKFtDQEBdKFtDSDNdKShbT0hdKVtDSDJdW0NIMl0zKVtDQEBIXTNbQ0BIXShbQ0gzXSlbQ0gyXVtDQEhdKFtDQEBdMTI0KVtDQEBdNTZbQ0BASF00W0NIMl1bQ0BIXShbQ0gyXVtDQEhdNU82KVtDQF0oW0NIM10pKFtDQEhdKFtDQEhdNzgpW0NIMl04KU49QyhPNylbTkgyXQ==

>  <s_epik_cmdline>  (202) 
J2VwaWtfcHl0aG9uJywgJy1waHQnLCAnMi4wJywgJy1waCcsICc3LjAnLCAnLXRuJywgJzgnLCAnLW1hJywgJzIwMCcsICctaW1hZScsICc8aW5maWxlLm1hZT4nLCAnLW9tYWUnLCAnPG91dGZpbGUubWFlPic=

>  <r_epik_Ionization_Penalty>  (202) 
0.024068

>  <r_epik_Ionization_Penalty_Charging>  (202) 
0.0240664

>  <r_epik_Ionization_Penalty_Neutral>  (202) 
1.6012e-06

>  <r_epik_State_Penalty>  (202) 
0.0221292

>  <r_epik_Charging_Adjusted_Penalty>  (202) 
0.0461956

>  <i_epik_Tot_Q>  (202) 
1

>  <i_epik_Tot_abs_Q>  (202) 
1

>  <s_epik_Chemistry_Notes>  (202) 
This compound has an imine and may undergo hydrolysis.

>  <s_lp_Force_Field>  (202) 
OPLS3e

>  <r_lp_Energy>  (202) 
78.8246

>  <b_lp_Chiralities_Consistent>  (202) 
1

>  <s_lp_Variant>  (202) 
58:0-1

>  <s_i_glide_gridfile>  (202) 
pfpi4k_grid

>  <i_i_glide_lignum>  (202) 
35

>  <i_i_glide_rotatable_bonds>  (202) 
2

>  <r_i_docking_score>  (202) 
-4.32546

>  <r_i_glide_ligand_efficiency>  (202) 
-0.139531

>  <r_i_glide_ligand_efficiency_sa>  (202) 
-0.43832

>  <r_i_glide_ligand_efficiency_ln>  (202) 
-0.975524

>  <r_i_glide_gscore>  (202) 
-4.32546

>  <r_i_glide_lipo>  (202) 
-0.162378

>  <r_i_glide_hbond>  (202) 
-0.386703

>  <r_i_glide_metal>  (202) 
-0

>  <r_i_glide_rewards>  (202) 
-1.01019

>  <r_i_glide_evdw>  (202) 
-17.6357

>  <r_i_glide_ecoul>  (202) 
-11.7267

>  <r_i_glide_erotb>  (202) 
0.0753881

>  <r_i_glide_esite>  (202) 
-0.200788

>  <r_i_glide_emodel>  (202) 
-40.4727

>  <r_i_glide_energy>  (202) 
-29.3624

>  <r_i_glide_einternal>  (202) 
0.0982213

>  <r_i_glide_intrahb_reward>  (202) 
-0

>  <i_i_glide_confnum>  (202) 
1

>  <i_i_glide_posenum>  (202) 
28

>  <r_i_glide_eff_state_penalty>  (202) 
0

>  <ligand_id>  (202) 
58

>  <original_smiles>  (202) 
CC1CC2C3(OC3CC3C1CCC3(C)O)C1CC(C3(C)N=C(N)OC4CC43)CC3OC321

>  <smiles>  (202) 
[H]OC1(C([H])([H])[H])C([H])([H])C([H])([H])C2([H])C([H])(C([H])([H])[H])C([H])([H])C3([H])C4(OC4([H])C([H])([H])C21[H])C1([H])C([H])([H])C([H])(C2(C([H])([H])[H])[N+]([H])=C(N([H])[H])OC4([H])C([H])([H])C42[H])C([H])([H])C2([H])OC231

$$$$
58:0:1
     RDKit          3D

 68 75  0  0  1  0  0  0  0  0999 V2000
    7.6191   -6.9396    1.3208 C   0  0  0  0  0  0  0  0  0  0  0  0
    7.1432   -5.8949    2.3563 C   0  0  2  0  0  0  0  0  0  0  0  0
    7.5824   -6.3311    3.7707 C   0  0  0  0  0  0  0  0  0  0  0  0
    6.7236   -7.4593    4.3487 C   0  0  2  0  0  0  0  0  0  0  0  0
    5.6993   -7.1385    5.4103 C   0  0  1  0  0  0  0  0  0  0  0  0
    5.7979   -5.8160    5.9626 O   0  0  0  0  0  0  0  0  0  0  0  0
    4.5284   -6.2247    5.4279 C   0  0  1  0  0  0  0  0  0  0  0  0
    3.9729   -5.4434    4.2381 C   0  0  0  0  0  0  0  0  0  0  0  0
    4.9666   -4.7087    3.2885 C   0  0  1  0  0  0  0  0  0  0  0  0
    5.6226   -5.5958    2.1793 C   0  0  1  0  0  0  0  0  0  0  0  0
    5.3733   -4.8322    0.8548 C   0  0  0  0  0  0  0  0  0  0  0  0
    5.0835   -3.3869    1.2433 C   0  0  0  0  0  0  0  0  0  0  0  0
    4.2891   -3.5176    2.5405 C   0  0  1  0  0  0  0  0  0  0  0  0
    2.7856   -3.6742    2.2218 C   0  0  0  0  0  0  0  0  0  0  0  0
    4.4051   -2.3307    3.2964 O   0  0  0  0  0  0  0  0  0  0  0  0
    6.2153   -8.1962    6.3860 C   0  0  1  0  0  0  0  0  0  0  0  0
    5.1997   -9.4041    6.3853 C   0  0  0  0  0  0  0  0  0  0  0  0
    5.3379  -10.5135    5.2592 C   0  0  1  0  0  0  0  0  0  0  0  0
    4.1279  -10.7211    4.2863 C   0  0  1  0  0  0  0  0  0  0  0  0
    4.4177  -11.8838    3.3067 C   0  0  0  0  0  0  0  0  0  0  0  0
    2.9544  -11.1065    5.0707 N   0  0  0  0  0  0  0  0  0  0  0  0
    1.7073  -10.9770    4.5929 C   0  0  0  0  0  0  0  0  0  0  0  0
    0.6179  -11.2824    5.2774 N   0  0  0  0  0  0  0  0  0  0  0  0
    1.5288  -10.4770    3.3378 O   0  0  0  0  0  0  0  0  0  0  0  0
    2.2742   -9.2954    3.0966 C   0  0  2  0  0  0  0  0  0  0  0  0
    3.3309   -9.3846    2.0632 C   0  0  0  0  0  0  0  0  0  0  0  0
    3.7122   -9.4451    3.5411 C   0  0  2  0  0  0  0  0  0  0  0  0
    6.7266  -10.5302    4.5768 C   0  0  0  0  0  0  0  0  0  0  0  0
    7.6193   -9.7814    5.4991 C   0  0  1  0  0  0  0  0  0  0  0  0
    8.6599   -8.9719    5.1501 O   0  0  0  0  0  0  0  0  0  0  0  0
    7.4092   -8.2672    5.4286 C   0  0  2  0  0  0  0  0  0  0  0  0
    7.1201   -7.9036    1.4296 H   0  0  0  0  0  0  0  0  0  0  0  0
    8.6842   -7.1225    1.4188 H   0  0  0  0  0  0  0  0  0  0  0  0
    7.4770   -6.6115    0.2926 H   0  0  0  0  0  0  0  0  0  0  0  0
    7.6970   -4.9840    2.1357 H   0  0  0  0  0  0  0  0  0  0  0  0
    8.6082   -6.6961    3.6980 H   0  0  0  0  0  0  0  0  0  0  0  0
    7.6544   -5.4788    4.4406 H   0  0  0  0  0  0  0  0  0  0  0  0
    6.3187   -8.1002    3.5804 H   0  0  0  0  0  0  0  0  0  0  0  0
    3.7664   -6.4957    6.1592 H   0  0  0  0  0  0  0  0  0  0  0  0
    3.3378   -6.1197    3.6644 H   0  0  0  0  0  0  0  0  0  0  0  0
    3.2967   -4.7049    4.6751 H   0  0  0  0  0  0  0  0  0  0  0  0
    5.7654   -4.2835    3.8994 H   0  0  0  0  0  0  0  0  0  0  0  0
    5.0916   -6.5485    2.1115 H   0  0  0  0  0  0  0  0  0  0  0  0
    6.1903   -4.8810    0.1337 H   0  0  0  0  0  0  0  0  0  0  0  0
    4.5001   -5.2491    0.3529 H   0  0  0  0  0  0  0  0  0  0  0  0
    6.0299   -2.8722    1.4178 H   0  0  0  0  0  0  0  0  0  0  0  0
    4.5496   -2.8398    0.4617 H   0  0  0  0  0  0  0  0  0  0  0  0
    2.5721   -4.6019    1.6949 H   0  0  0  0  0  0  0  0  0  0  0  0
    2.4428   -2.8549    1.5908 H   0  0  0  0  0  0  0  0  0  0  0  0
    2.1697   -3.6392    3.1181 H   0  0  0  0  0  0  0  0  0  0  0  0
    5.3210   -2.1491    3.4572 H   0  0  0  0  0  0  0  0  0  0  0  0
    6.4766   -7.8135    7.3825 H   0  0  0  0  0  0  0  0  0  0  0  0
    5.3130   -9.9214    7.3406 H   0  0  0  0  0  0  0  0  0  0  0  0
    4.1822   -9.0195    6.4014 H   0  0  0  0  0  0  0  0  0  0  0  0
    5.3550  -11.4294    5.8499 H   0  0  0  0  0  0  0  0  0  0  0  0
    5.2090  -11.6447    2.5941 H   0  0  0  0  0  0  0  0  0  0  0  0
    3.5432  -12.1454    2.7105 H   0  0  0  0  0  0  0  0  0  0  0  0
    4.7110  -12.7886    3.8393 H   0  0  0  0  0  0  0  0  0  0  0  0
    0.7374  -11.6772    6.2376 H   0  0  0  0  0  0  0  0  0  0  0  0
   -0.3367  -11.0817    4.9491 H   0  0  0  0  0  0  0  0  0  0  0  0
    1.7524   -8.3581    3.2747 H   0  0  0  0  0  0  0  0  0  0  0  0
    3.3275  -10.2865    1.4660 H   0  0  0  0  0  0  0  0  0  0  0  0
    3.5504   -8.4654    1.5161 H   0  0  0  0  0  0  0  0  0  0  0  0
    4.0986   -8.5356    3.9732 H   0  0  0  0  0  0  0  0  0  0  0  0
    7.1097  -11.5405    4.4684 H   0  0  0  0  0  0  0  0  0  0  0  0
    6.7536  -10.0877    3.5852 H   0  0  0  0  0  0  0  0  0  0  0  0
    7.8128  -10.2679    6.4546 H   0  0  0  0  0  0  0  0  0  0  0  0
    3.1025  -11.6039    5.9455 H   0  0  0  0  0  0  0  0  0  0  0  0
  1  2  1  0
  1 32  1  0
  1 33  1  0
  1 34  1  0
  2 10  1  0
  2  3  1  0
  2 35  1  6
  3  4  1  0
  3 36  1  0
  3 37  1  0
  4 31  1  0
  4  5  1  0
  4 38  1  6
  5  7  1  0
  5  6  1  1
  5 16  1  0
  6  7  1  0
  7  8  1  0
  7 39  1  1
  8  9  1  0
  8 40  1  0
  8 41  1  0
  9 13  1  0
  9 10  1  0
  9 42  1  1
 10 11  1  0
 10 43  1  6
 11 12  1  0
 11 44  1  0
 11 45  1  0
 12 13  1  0
 12 46  1  0
 12 47  1  0
 13 14  1  0
 13 15  1  1
 14 48  1  0
 14 49  1  0
 14 50  1  0
 15 51  1  0
 16 31  1  0
 16 17  1  0
 16 52  1  1
 17 18  1  0
 17 53  1  0
 17 54  1  0
 18 19  1  0
 18 28  1  0
 18 55  1  1
 19 27  1  0
 19 20  1  6
 19 21  1  0
 20 56  1  0
 20 57  1  0
 20 58  1  0
 21 22  2  0
 21 68  1  0
 22 23  1  0
 22 24  1  0
 23 59  1  0
 23 60  1  0
 24 25  1  0
 25 27  1  0
 25 26  1  0
 25 61  1  1
 26 27  1  0
 26 62  1  0
 26 63  1  0
 27 64  1  1
 28 29  1  0
 28 65  1  0
 28 66  1  0
 29 31  1  0
 29 30  1  0
 29 67  1  1
 31 30  1  1
M  CHG  1  21   1
M  END
>  <i_m_ct_stereo_status>  (203) 
1

>  <s_m_source_file>  (203) 
/var/tmp/pbs.5076255.sched01/tmpar858yha/42b8svm9_t.sdf

>  <i_m_source_file_index>  (203) 
35

>  <i_lp_mmshare_version>  (203) 
48012

>  <i_f3d_flags>  (203) 
0

>  <s_epik_input>  (203) 
TzFbQ0BIXTJbQ0gyXVtDQEhdKFtDQEBdKFtDSDNdKShbT0hdKVtDSDJdW0NIMl0zKVtDQEBIXTNbQ0BIXShbQ0gzXSlbQ0gyXVtDQEhdKFtDQEBdMTI0KVtDQEBdNTZbQ0BASF00W0NIMl1bQ0BIXShbQ0gyXVtDQEhdNU82KVtDQF0oW0NIM10pKFtDQEhdKFtDQEhdNzgpW0NIMl04KU49QyhPNylbTkgyXQ==

>  <s_epik_cmdline>  (203) 
J2VwaWtfcHl0aG9uJywgJy1waHQnLCAnMi4wJywgJy1waCcsICc3LjAnLCAnLXRuJywgJzgnLCAnLW1hJywgJzIwMCcsICctaW1hZScsICc8aW5maWxlLm1hZT4nLCAnLW9tYWUnLCAnPG91dGZpbGUubWFlPic=

>  <r_epik_Ionization_Penalty>  (203) 
0.024068

>  <r_epik_Ionization_Penalty_Charging>  (203) 
0.0240664

>  <r_epik_Ionization_Penalty_Neutral>  (203) 
1.6012e-06

>  <r_epik_State_Penalty>  (203) 
0.0221292

>  <r_epik_Charging_Adjusted_Penalty>  (203) 
0.0461956

>  <i_epik_Tot_Q>  (203) 
1

>  <i_epik_Tot_abs_Q>  (203) 
1

>  <s_epik_Chemistry_Notes>  (203) 
This compound has an imine and may undergo hydrolysis.

>  <s_lp_Force_Field>  (203) 
OPLS3e

>  <r_lp_Energy>  (203) 
78.8246

>  <b_lp_Chiralities_Consistent>  (203) 
1

>  <s_lp_Variant>  (203) 
58:0-1

>  <s_i_glide_gridfile>  (203) 
pfpi4k_grid

>  <i_i_glide_lignum>  (203) 
35

>  <i_i_glide_rotatable_bonds>  (203) 
2

>  <r_i_docking_score>  (203) 
-3.99219

>  <r_i_glide_ligand_efficiency>  (203) 
-0.12878

>  <r_i_glide_ligand_efficiency_sa>  (203) 
-0.404548

>  <r_i_glide_ligand_efficiency_ln>  (203) 
-0.900361

>  <r_i_glide_gscore>  (203) 
-3.99219

>  <r_i_glide_lipo>  (203) 
-0.188008

>  <r_i_glide_hbond>  (203) 
-0.4

>  <r_i_glide_metal>  (203) 
-0

>  <r_i_glide_rewards>  (203) 
-1.01019

>  <r_i_glide_evdw>  (203) 
-18.6281

>  <r_i_glide_ecoul>  (203) 
-9.04536

>  <r_i_glide_erotb>  (203) 
0.0753881

>  <r_i_glide_esite>  (203) 
-0.181171

>  <r_i_glide_emodel>  (203) 
-37.8922

>  <r_i_glide_energy>  (203) 
-27.6735

>  <r_i_glide_einternal>  (203) 
0.422464

>  <r_i_glide_intrahb_reward>  (203) 
-0

>  <i_i_glide_confnum>  (203) 
4

>  <i_i_glide_posenum>  (203) 
9

>  <r_i_glide_eff_state_penalty>  (203) 
0

>  <ligand_id>  (203) 
58

>  <original_smiles>  (203) 
CC1CC2C3(OC3CC3C1CCC3(C)O)C1CC(C3(C)N=C(N)OC4CC43)CC3OC321

>  <smiles>  (203) 
[H]OC1(C([H])([H])[H])C([H])([H])C([H])([H])C2([H])C([H])(C([H])([H])[H])C([H])([H])C3([H])C4(OC4([H])C([H])([H])C21[H])C1([H])C([H])([H])C([H])(C2(C([H])([H])[H])[N+]([H])=C(N([H])[H])OC4([H])C([H])([H])C42[H])C([H])([H])C2([H])OC231

$$$$
58:0:2
     RDKit          3D

 68 75  0  0  1  0  0  0  0  0999 V2000
    5.4604   -2.3807    5.8776 C   0  0  0  0  0  0  0  0  0  0  0  0
    4.0889   -3.0883    6.0079 C   0  0  2  0  0  0  0  0  0  0  0  0
    4.2239   -4.5792    5.6091 C   0  0  0  0  0  0  0  0  0  0  0  0
    4.3539   -4.7749    4.1013 C   0  0  2  0  0  0  0  0  0  0  0  0
    3.1394   -5.2921    3.3577 C   0  0  1  0  0  0  0  0  0  0  0  0
    2.0563   -5.7858    4.1658 O   0  0  0  0  0  0  0  0  0  0  0  0
    1.7359   -4.7786    3.1915 C   0  0  1  0  0  0  0  0  0  0  0  0
    1.2051   -3.4482    3.7138 C   0  0  0  0  0  0  0  0  0  0  0  0
    1.5905   -2.9790    5.1436 C   0  0  1  0  0  0  0  0  0  0  0  0
    2.9824   -2.2795    5.2625 C   0  0  1  0  0  0  0  0  0  0  0  0
    2.6925   -0.9469    5.9891 C   0  0  0  0  0  0  0  0  0  0  0  0
    1.3615   -1.1300    6.7067 C   0  0  0  0  0  0  0  0  0  0  0  0
    0.5443   -1.9786    5.7394 C   0  0  1  0  0  0  0  0  0  0  0  0
   -0.1842   -1.0690    4.7239 C   0  0  0  0  0  0  0  0  0  0  0  0
   -0.4705   -2.6660    6.4481 O   0  0  0  0  0  0  0  0  0  0  0  0
    3.8945   -6.4180    2.6754 C   0  0  1  0  0  0  0  0  0  0  0  0
    4.1038   -6.0422    1.1564 C   0  0  0  0  0  0  0  0  0  0  0  0
    5.3308   -5.1168    0.7592 C   0  0  1  0  0  0  0  0  0  0  0  0
    5.0160   -3.7259    0.0957 C   0  0  1  0  0  0  0  0  0  0  0  0
    6.2965   -3.1592   -0.5728 C   0  0  0  0  0  0  0  0  0  0  0  0
    4.0548   -3.9281   -0.9795 N   0  0  0  0  0  0  0  0  0  0  0  0
    3.2796   -2.9301   -1.4538 C   0  0  0  0  0  0  0  0  0  0  0  0
    2.3377   -3.0540   -2.3799 N   0  0  0  0  0  0  0  0  0  0  0  0
    3.4629   -1.6882   -0.9534 O   0  0  0  0  0  0  0  0  0  0  0  0
    3.5090   -1.6161    0.4679 C   0  0  2  0  0  0  0  0  0  0  0  0
    4.8011   -1.2323    1.1040 C   0  0  0  0  0  0  0  0  0  0  0  0
    4.3748   -2.7111    1.0515 C   0  0  2  0  0  0  0  0  0  0  0  0
    6.4298   -5.0797    1.8472 C   0  0  0  0  0  0  0  0  0  0  0  0
    6.1885   -6.2645    2.7171 C   0  0  1  0  0  0  0  0  0  0  0  0
    6.3891   -6.3486    4.0718 O   0  0  0  0  0  0  0  0  0  0  0  0
    5.0086   -6.0578    3.6702 C   0  0  2  0  0  0  0  0  0  0  0  0
    5.7878   -2.3050    4.8396 H   0  0  0  0  0  0  0  0  0  0  0  0
    6.2386   -2.9155    6.4215 H   0  0  0  0  0  0  0  0  0  0  0  0
    5.4557   -1.3664    6.2768 H   0  0  0  0  0  0  0  0  0  0  0  0
    3.8416   -3.0837    7.0680 H   0  0  0  0  0  0  0  0  0  0  0  0
    5.1439   -4.9472    6.0579 H   0  0  0  0  0  0  0  0  0  0  0  0
    3.4415   -5.1909    6.0753 H   0  0  0  0  0  0  0  0  0  0  0  0
    4.8554   -3.9456    3.6225 H   0  0  0  0  0  0  0  0  0  0  0  0
    1.2068   -5.1397    2.3055 H   0  0  0  0  0  0  0  0  0  0  0  0
    1.4559   -2.6815    2.9804 H   0  0  0  0  0  0  0  0  0  0  0  0
    0.1234   -3.5385    3.6930 H   0  0  0  0  0  0  0  0  0  0  0  0
    1.5929   -3.8517    5.7923 H   0  0  0  0  0  0  0  0  0  0  0  0
    3.3443   -2.0303    4.2627 H   0  0  0  0  0  0  0  0  0  0  0  0
    3.4625   -0.6373    6.6930 H   0  0  0  0  0  0  0  0  0  0  0  0
    2.5976   -0.1406    5.2613 H   0  0  0  0  0  0  0  0  0  0  0  0
    1.5306   -1.6684    7.6391 H   0  0  0  0  0  0  0  0  0  0  0  0
    0.8826   -0.1825    6.9559 H   0  0  0  0  0  0  0  0  0  0  0  0
    0.5089   -0.5324    4.0759 H   0  0  0  0  0  0  0  0  0  0  0  0
   -0.7848   -0.3206    5.2406 H   0  0  0  0  0  0  0  0  0  0  0  0
   -0.8748   -1.6229    4.0881 H   0  0  0  0  0  0  0  0  0  0  0  0
   -0.0549   -3.3368    6.9718 H   0  0  0  0  0  0  0  0  0  0  0  0
    3.4495   -7.4023    2.8160 H   0  0  0  0  0  0  0  0  0  0  0  0
    4.2473   -6.9791    0.5978 H   0  0  0  0  0  0  0  0  0  0  0  0
    3.1750   -5.6316    0.7634 H   0  0  0  0  0  0  0  0  0  0  0  0
    5.8050   -5.6884   -0.0379 H   0  0  0  0  0  0  0  0  0  0  0  0
    7.0638   -2.8997    0.1537 H   0  0  0  0  0  0  0  0  0  0  0  0
    6.0821   -2.2744   -1.1722 H   0  0  0  0  0  0  0  0  0  0  0  0
    6.7387   -3.8584   -1.2763 H   0  0  0  0  0  0  0  0  0  0  0  0
    2.0947   -3.9465   -2.7714 H   0  0  0  0  0  0  0  0  0  0  0  0
    1.7223   -2.2573   -2.5425 H   0  0  0  0  0  0  0  0  0  0  0  0
    2.5727   -1.4114    0.9783 H   0  0  0  0  0  0  0  0  0  0  0  0
    5.5574   -0.8206    0.4332 H   0  0  0  0  0  0  0  0  0  0  0  0
    4.7342   -0.7326    2.0703 H   0  0  0  0  0  0  0  0  0  0  0  0
    3.9180   -3.1619    1.9284 H   0  0  0  0  0  0  0  0  0  0  0  0
    7.4250   -5.1789    1.4281 H   0  0  0  0  0  0  0  0  0  0  0  0
    6.4496   -4.1653    2.4366 H   0  0  0  0  0  0  0  0  0  0  0  0
    6.3298   -7.2273    2.2318 H   0  0  0  0  0  0  0  0  0  0  0  0
    3.9718   -4.8410   -1.4047 H   0  0  0  0  0  0  0  0  0  0  0  0
  1  2  1  0
  1 32  1  0
  1 33  1  0
  1 34  1  0
  2 10  1  0
  2  3  1  0
  2 35  1  1
  3  4  1  0
  3 36  1  0
  3 37  1  0
  4 31  1  0
  4  5  1  0
  4 38  1  6
  5  7  1  0
  5  6  1  1
  5 16  1  0
  6  7  1  0
  7  8  1  0
  7 39  1  6
  8  9  1  0
  8 40  1  0
  8 41  1  0
  9 13  1  0
  9 10  1  0
  9 42  1  1
 10 11  1  0
 10 43  1  6
 11 12  1  0
 11 44  1  0
 11 45  1  0
 12 13  1  0
 12 46  1  0
 12 47  1  0
 13 14  1  0
 13 15  1  1
 14 48  1  0
 14 49  1  0
 14 50  1  0
 15 51  1  0
 16 31  1  0
 16 17  1  0
 16 52  1  6
 17 18  1  0
 17 53  1  0
 17 54  1  0
 18 19  1  0
 18 28  1  0
 18 55  1  6
 19 27  1  0
 19 20  1  6
 19 21  1  0
 20 56  1  0
 20 57  1  0
 20 58  1  0
 21 22  2  0
 21 68  1  0
 22 23  1  0
 22 24  1  0
 23 59  1  0
 23 60  1  0
 24 25  1  0
 25 27  1  0
 25 26  1  0
 25 61  1  1
 26 27  1  0
 26 62  1  0
 26 63  1  0
 27 64  1  1
 28 29  1  0
 28 65  1  0
 28 66  1  0
 29 31  1  0
 29 30  1  0
 29 67  1  6
 31 30  1  1
M  CHG  1  21   1
M  END
>  <i_m_ct_stereo_status>  (204) 
1

>  <s_m_source_file>  (204) 
/var/tmp/pbs.5076255.sched01/tmpar858yha/42b8svm9_t.sdf

>  <i_m_source_file_index>  (204) 
35

>  <i_lp_mmshare_version>  (204) 
48012

>  <i_f3d_flags>  (204) 
0

>  <s_epik_input>  (204) 
TzFbQ0BIXTJbQ0gyXVtDQEhdKFtDQEBdKFtDSDNdKShbT0hdKVtDSDJdW0NIMl0zKVtDQEBIXTNbQ0BIXShbQ0gzXSlbQ0gyXVtDQEhdKFtDQEBdMTI0KVtDQEBdNTZbQ0BASF00W0NIMl1bQ0BIXShbQ0gyXVtDQEhdNU82KVtDQF0oW0NIM10pKFtDQEhdKFtDQEhdNzgpW0NIMl04KU49QyhPNylbTkgyXQ==

>  <s_epik_cmdline>  (204) 
J2VwaWtfcHl0aG9uJywgJy1waHQnLCAnMi4wJywgJy1waCcsICc3LjAnLCAnLXRuJywgJzgnLCAnLW1hJywgJzIwMCcsICctaW1hZScsICc8aW5maWxlLm1hZT4nLCAnLW9tYWUnLCAnPG91dGZpbGUubWFlPic=

>  <r_epik_Ionization_Penalty>  (204) 
0.024068

>  <r_epik_Ionization_Penalty_Charging>  (204) 
0.0240664

>  <r_epik_Ionization_Penalty_Neutral>  (204) 
1.6012e-06

>  <r_epik_State_Penalty>  (204) 
0.0221292

>  <r_epik_Charging_Adjusted_Penalty>  (204) 
0.0461956

>  <i_epik_Tot_Q>  (204) 
1

>  <i_epik_Tot_abs_Q>  (204) 
1

>  <s_epik_Chemistry_Notes>  (204) 
This compound has an imine and may undergo hydrolysis.

>  <s_lp_Force_Field>  (204) 
OPLS3e

>  <r_lp_Energy>  (204) 
78.8246

>  <b_lp_Chiralities_Consistent>  (204) 
1

>  <s_lp_Variant>  (204) 
58:0-1

>  <s_i_glide_gridfile>  (204) 
pfpi4k_grid

>  <i_i_glide_lignum>  (204) 
35

>  <i_i_glide_rotatable_bonds>  (204) 
2

>  <r_i_docking_score>  (204) 
-3.19223

>  <r_i_glide_ligand_efficiency>  (204) 
-0.102975

>  <r_i_glide_ligand_efficiency_sa>  (204) 
-0.323484

>  <r_i_glide_ligand_efficiency_ln>  (204) 
-0.719946

>  <r_i_glide_gscore>  (204) 
-3.19223

>  <r_i_glide_lipo>  (204) 
-0.450863

>  <r_i_glide_hbond>  (204) 
-0.0273879

>  <r_i_glide_metal>  (204) 
-0

>  <r_i_glide_rewards>  (204) 
-0.480189

>  <r_i_glide_evdw>  (204) 
-21.5251

>  <r_i_glide_ecoul>  (204) 
-8.2068

>  <r_i_glide_erotb>  (204) 
0.107697

>  <r_i_glide_esite>  (204) 
-0.0342147

>  <r_i_glide_emodel>  (204) 
-37.8932

>  <r_i_glide_energy>  (204) 
-29.7319

>  <r_i_glide_einternal>  (204) 
0.362734

>  <r_i_glide_intrahb_reward>  (204) 
-0

>  <i_i_glide_confnum>  (204) 
4

>  <i_i_glide_posenum>  (204) 
27

>  <r_i_glide_eff_state_penalty>  (204) 
0

>  <ligand_id>  (204) 
58

>  <original_smiles>  (204) 
CC1CC2C3(OC3CC3C1CCC3(C)O)C1CC(C3(C)N=C(N)OC4CC43)CC3OC321

>  <smiles>  (204) 
[H]OC1(C([H])([H])[H])C([H])([H])C([H])([H])C2([H])C([H])(C([H])([H])[H])C([H])([H])C3([H])C4(OC4([H])C([H])([H])C21[H])C1([H])C([H])([H])C([H])(C2(C([H])([H])[H])[N+]([H])=C(N([H])[H])OC4([H])C([H])([H])C42[H])C([H])([H])C2([H])OC231

$$$$
58:1:0
     RDKit          3D

 67 74  0  0  1  0  0  0  0  0999 V2000
    5.2976   -5.9759    6.1717 C   0  0  0  0  0  0  0  0  0  0  0  0
    4.2164   -7.0293    5.8156 C   0  0  2  0  0  0  0  0  0  0  0  0
    4.7703   -8.0260    4.7744 C   0  0  0  0  0  0  0  0  0  0  0  0
    4.8741   -7.4513    3.3768 C   0  0  2  0  0  0  0  0  0  0  0  0
    3.8329   -7.7734    2.3477 C   0  0  1  0  0  0  0  0  0  0  0  0
    3.0809   -8.9564    2.6409 O   0  0  0  0  0  0  0  0  0  0  0  0
    2.3239   -7.7726    2.3034 C   0  0  1  0  0  0  0  0  0  0  0  0
    1.4112   -7.1901    3.3665 C   0  0  0  0  0  0  0  0  0  0  0  0
    1.7843   -7.3405    4.8701 C   0  0  1  0  0  0  0  0  0  0  0  0
    2.8757   -6.3565    5.4063 C   0  0  1  0  0  0  0  0  0  0  0  0
    2.2206   -5.6460    6.6123 C   0  0  0  0  0  0  0  0  0  0  0  0
    1.1215   -6.5776    7.0967 C   0  0  0  0  0  0  0  0  0  0  0  0
    0.5516   -7.1587    5.8050 C   0  0  1  0  0  0  0  0  0  0  0  0
   -0.5717   -6.2375    5.2758 C   0  0  0  0  0  0  0  0  0  0  0  0
   -0.0095   -8.4232    6.0931 O   0  0  0  0  0  0  0  0  0  0  0  0
    4.8634   -8.0033    1.2762 C   0  0  1  0  0  0  0  0  0  0  0  0
    4.9073   -6.6095    0.5081 C   0  0  0  0  0  0  0  0  0  0  0  0
    6.1671   -5.6742    0.6602 C   0  0  1  0  0  0  0  0  0  0  0  0
    5.8714   -4.1410    0.6630 C   0  0  1  0  0  0  0  0  0  0  0  0
    4.9929   -3.7082    1.8557 C   0  0  0  0  0  0  0  0  0  0  0  0
    7.1517   -3.4396    0.8454 N   0  0  0  0  0  0  0  0  0  0  0  0
    7.7801   -2.8563   -0.0969 C   0  0  0  0  0  0  0  0  0  0  0  0
    9.0242   -2.2716    0.0776 N   0  0  0  0  0  0  0  0  0  0  0  0
    7.3322   -2.6967   -1.4012 O   0  0  0  0  0  0  0  0  0  0  0  0
    6.0012   -3.0977   -1.7272 C   0  0  2  0  0  0  0  0  0  0  0  0
    4.9448   -2.2892   -1.0173 C   0  0  0  0  0  0  0  0  0  0  0  0
    5.1803   -3.7333   -0.6401 C   0  0  2  0  0  0  0  0  0  0  0  0
    7.1246   -6.1333    1.7788 C   0  0  0  0  0  0  0  0  0  0  0  0
    7.0317   -7.5992    1.7545 C   0  0  1  0  0  0  0  0  0  0  0  0
    7.2363   -8.3633    2.8638 O   0  0  0  0  0  0  0  0  0  0  0  0
    5.8078   -8.1885    2.4721 C   0  0  2  0  0  0  0  0  0  0  0  0
    5.5359   -5.3221    5.3312 H   0  0  0  0  0  0  0  0  0  0  0  0
    6.2276   -6.4496    6.4856 H   0  0  0  0  0  0  0  0  0  0  0  0
    5.0037   -5.3289    6.9969 H   0  0  0  0  0  0  0  0  0  0  0  0
    4.0405   -7.6050    6.7223 H   0  0  0  0  0  0  0  0  0  0  0  0
    5.7823   -8.2746    5.0878 H   0  0  0  0  0  0  0  0  0  0  0  0
    4.2516   -8.9873    4.8075 H   0  0  0  0  0  0  0  0  0  0  0  0
    5.1135   -6.3907    3.3806 H   0  0  0  0  0  0  0  0  0  0  0  0
    1.8900   -7.7825    1.3070 H   0  0  0  0  0  0  0  0  0  0  0  0
    1.2908   -6.1307    3.1373 H   0  0  0  0  0  0  0  0  0  0  0  0
    0.4341   -7.6442    3.1953 H   0  0  0  0  0  0  0  0  0  0  0  0
    2.1338   -8.3590    5.0289 H   0  0  0  0  0  0  0  0  0  0  0  0
    3.0846   -5.5955    4.6518 H   0  0  0  0  0  0  0  0  0  0  0  0
    2.9013   -5.3941    7.4244 H   0  0  0  0  0  0  0  0  0  0  0  0
    1.7675   -4.7102    6.2858 H   0  0  0  0  0  0  0  0  0  0  0  0
    1.5684   -7.3681    7.6992 H   0  0  0  0  0  0  0  0  0  0  0  0
    0.3755   -6.0760    7.7166 H   0  0  0  0  0  0  0  0  0  0  0  0
   -0.2034   -5.2546    4.9755 H   0  0  0  0  0  0  0  0  0  0  0  0
   -1.3149   -6.0605    6.0526 H   0  0  0  0  0  0  0  0  0  0  0  0
   -1.1132   -6.6776    4.4377 H   0  0  0  0  0  0  0  0  0  0  0  0
   -0.3547   -8.8109    5.3016 H   0  0  0  0  0  0  0  0  0  0  0  0
    4.6822   -8.8752    0.6448 H   0  0  0  0  0  0  0  0  0  0  0  0
    4.7336   -6.8009   -0.5585 H   0  0  0  0  0  0  0  0  0  0  0  0
    4.0307   -6.0248    0.7614 H   0  0  0  0  0  0  0  0  0  0  0  0
    6.7410   -5.8603   -0.2402 H   0  0  0  0  0  0  0  0  0  0  0  0
    3.9980   -4.1547    1.8802 H   0  0  0  0  0  0  0  0  0  0  0  0
    4.8486   -2.6288    1.8075 H   0  0  0  0  0  0  0  0  0  0  0  0
    5.4906   -3.9032    2.8073 H   0  0  0  0  0  0  0  0  0  0  0  0
    9.4949   -2.3656    0.9667 H   0  0  0  0  0  0  0  0  0  0  0  0
    9.6491   -1.9403   -0.6524 H   0  0  0  0  0  0  0  0  0  0  0  0
    5.8230   -3.3581   -2.7706 H   0  0  0  0  0  0  0  0  0  0  0  0
    5.2565   -1.5319   -0.2957 H   0  0  0  0  0  0  0  0  0  0  0  0
    4.0201   -2.1046   -1.5503 H   0  0  0  0  0  0  0  0  0  0  0  0
    4.4134   -4.4200   -0.9955 H   0  0  0  0  0  0  0  0  0  0  0  0
    8.1599   -5.8636    1.5830 H   0  0  0  0  0  0  0  0  0  0  0  0
    6.9035   -5.7525    2.7759 H   0  0  0  0  0  0  0  0  0  0  0  0
    7.4523   -8.0666    0.8767 H   0  0  0  0  0  0  0  0  0  0  0  0
  1  2  1  0
  1 32  1  0
  1 33  1  0
  1 34  1  0
  2 10  1  0
  2  3  1  0
  2 35  1  1
  3  4  1  0
  3 36  1  0
  3 37  1  0
  4 31  1  0
  4  5  1  0
  4 38  1  1
  5  7  1  0
  5  6  1  1
  5 16  1  0
  6  7  1  0
  7  8  1  0
  7 39  1  6
  8  9  1  0
  8 40  1  0
  8 41  1  0
  9 13  1  0
  9 10  1  0
  9 42  1  6
 10 11  1  0
 10 43  1  6
 11 12  1  0
 11 44  1  0
 11 45  1  0
 12 13  1  0
 12 46  1  0
 12 47  1  0
 13 14  1  0
 13 15  1  1
 14 48  1  0
 14 49  1  0
 14 50  1  0
 15 51  1  0
 16 31  1  0
 16 17  1  0
 16 52  1  6
 17 18  1  0
 17 53  1  0
 17 54  1  0
 18 19  1  0
 18 28  1  0
 18 55  1  6
 19 27  1  0
 19 20  1  1
 19 21  1  0
 20 56  1  0
 20 57  1  0
 20 58  1  0
 21 22  2  0
 22 23  1  0
 22 24  1  0
 23 59  1  0
 23 60  1  0
 24 25  1  0
 25 27  1  0
 25 26  1  0
 25 61  1  6
 26 27  1  0
 26 62  1  0
 26 63  1  0
 27 64  1  6
 28 29  1  0
 28 65  1  0
 28 66  1  0
 29 31  1  0
 29 30  1  0
 29 67  1  6
 31 30  1  1
M  END
>  <i_m_ct_stereo_status>  (205) 
1

>  <s_m_source_file>  (205) 
/var/tmp/pbs.5076255.sched01/tmpar858yha/42b8svm9_t.sdf

>  <i_m_source_file_index>  (205) 
36

>  <i_lp_mmshare_version>  (205) 
48012

>  <i_f3d_flags>  (205) 
0

>  <s_epik_input>  (205) 
TzFbQ0BIXTJbQ0gyXVtDQEhdKFtDQEBdKFtDSDNdKShbT0hdKVtDSDJdW0NIMl0zKVtDQEBIXTNbQ0BIXShbQ0gzXSlbQ0gyXVtDQEhdKFtDQEBdMTI0KVtDQEBdNTZbQ0BASF00W0NIMl1bQ0BIXShbQ0gyXVtDQEhdNU82KVtDQF0oW0NIM10pKFtDQEhdKFtDQEhdNzgpW0NIMl04KU49QyhPNylbTkgyXQ==

>  <s_epik_cmdline>  (205) 
J2VwaWtfcHl0aG9uJywgJy1waHQnLCAnMi4wJywgJy1waCcsICc3LjAnLCAnLXRuJywgJzgnLCAnLW1hJywgJzIwMCcsICctaW1hZScsICc8aW5maWxlLm1hZT4nLCAnLW9tYWUnLCAnPG91dGZpbGUubWFlPic=

>  <r_epik_Ionization_Penalty>  (205) 
1.97191

>  <r_epik_Ionization_Penalty_Charging>  (205) 
0

>  <r_epik_Ionization_Penalty_Neutral>  (205) 
1.97191

>  <r_epik_State_Penalty>  (205) 
2.10323

>  <r_epik_Charging_Adjusted_Penalty>  (205) 
2.10323

>  <i_epik_Tot_Q>  (205) 
0

>  <i_epik_Tot_abs_Q>  (205) 
0

>  <s_epik_Chemistry_Notes>  (205) 
This compound has an imine and may undergo hydrolysis.

>  <s_lp_Force_Field>  (205) 
OPLS3e

>  <r_lp_Energy>  (205) 
65.6236

>  <b_lp_Chiralities_Consistent>  (205) 
1

>  <s_lp_Variant>  (205) 
58:0-2

>  <s_i_glide_gridfile>  (205) 
pfpi4k_grid

>  <i_i_glide_lignum>  (205) 
36

>  <i_i_glide_rotatable_bonds>  (205) 
2

>  <r_i_docking_score>  (205) 
-3.56595

>  <r_i_glide_ligand_efficiency>  (205) 
-0.115031

>  <r_i_glide_ligand_efficiency_sa>  (205) 
-0.361355

>  <r_i_glide_ligand_efficiency_ln>  (205) 
-0.804231

>  <r_i_glide_gscore>  (205) 
-3.56595

>  <r_i_glide_lipo>  (205) 
-0.713237

>  <r_i_glide_hbond>  (205) 
-0.354966

>  <r_i_glide_metal>  (205) 
-0

>  <r_i_glide_rewards>  (205) 
-0.642983

>  <r_i_glide_evdw>  (205) 
-28.2824

>  <r_i_glide_ecoul>  (205) 
-3.09254

>  <r_i_glide_erotb>  (205) 
0.108156

>  <r_i_glide_esite>  (205) 
-0.0849202

>  <r_i_glide_emodel>  (205) 
-36.4192

>  <r_i_glide_energy>  (205) 
-31.3749

>  <r_i_glide_einternal>  (205) 
1.04012

>  <r_i_glide_intrahb_reward>  (205) 
-0

>  <i_i_glide_confnum>  (205) 
3

>  <i_i_glide_posenum>  (205) 
2

>  <r_i_glide_eff_state_penalty>  (205) 
0

>  <ligand_id>  (205) 
58

>  <original_smiles>  (205) 
CC1CC2C3(OC3CC3C1CCC3(C)O)C1CC(C3(C)N=C(N)OC4CC43)CC3OC321

>  <smiles>  (205) 
[H]OC1(C([H])([H])[H])C([H])([H])C([H])([H])C2([H])C([H])(C([H])([H])[H])C([H])([H])C3([H])C45OC4([H])C([H])([H])C([H])(C4(C([H])([H])[H])N=C(N([H])[H])OC6([H])C([H])([H])C64[H])C([H])([H])C5([H])C34OC4([H])C([H])([H])C21[H]

$$$$
58:1:1
     RDKit          3D

 67 74  0  0  1  0  0  0  0  0999 V2000
    4.4192   -1.9968    6.1354 C   0  0  0  0  0  0  0  0  0  0  0  0
    3.1838   -1.0657    6.0327 C   0  0  2  0  0  0  0  0  0  0  0  0
    2.1693   -1.4139    7.1449 C   0  0  0  0  0  0  0  0  0  0  0  0
    1.4018   -2.6901    6.8774 C   0  0  2  0  0  0  0  0  0  0  0  0
   -0.0040   -2.6340    6.3552 C   0  0  1  0  0  0  0  0  0  0  0  0
   -0.6441   -1.3694    6.5513 O   0  0  0  0  0  0  0  0  0  0  0  0
   -0.6804   -1.9116    5.2281 C   0  0  1  0  0  0  0  0  0  0  0  0
   -0.0000   -1.1412    4.1141 C   0  0  0  0  0  0  0  0  0  0  0  0
    1.2452   -0.2698    4.4421 C   0  0  1  0  0  0  0  0  0  0  0  0
    2.5864   -1.0575    4.5959 C   0  0  1  0  0  0  0  0  0  0  0  0
    3.5547   -0.3910    3.5917 C   0  0  0  0  0  0  0  0  0  0  0  0
    3.0170    1.0148    3.3678 C   0  0  0  0  0  0  0  0  0  0  0  0
    1.5048    0.8280    3.3622 C   0  0  1  0  0  0  0  0  0  0  0  0
    1.0187    0.5158    1.9364 C   0  0  0  0  0  0  0  0  0  0  0  0
    0.8880    2.0405    3.7392 O   0  0  0  0  0  0  0  0  0  0  0  0
   -0.4777   -3.7093    7.3198 C   0  0  1  0  0  0  0  0  0  0  0  0
   -0.4092   -5.0555    6.4684 C   0  0  0  0  0  0  0  0  0  0  0  0
    0.7019   -6.1197    6.7956 C   0  0  1  0  0  0  0  0  0  0  0  0
    1.2525   -6.9028    5.5602 C   0  0  1  0  0  0  0  0  0  0  0  0
    2.4536   -7.7967    5.9443 C   0  0  0  0  0  0  0  0  0  0  0  0
    0.1908   -7.8251    5.1690 N   0  0  0  0  0  0  0  0  0  0  0  0
   -0.5451   -7.6672    4.1137 C   0  0  0  0  0  0  0  0  0  0  0  0
   -1.6094   -8.4806    3.8242 N   0  0  0  0  0  0  0  0  0  0  0  0
   -0.3529   -6.6942    3.1479 O   0  0  0  0  0  0  0  0  0  0  0  0
    0.7974   -5.8442    3.2160 C   0  0  2  0  0  0  0  0  0  0  0  0
    2.1195   -6.5500    3.0552 C   0  0  0  0  0  0  0  0  0  0  0  0
    1.7004   -5.9987    4.4080 C   0  0  2  0  0  0  0  0  0  0  0  0
    1.7811   -5.6103    7.7582 C   0  0  0  0  0  0  0  0  0  0  0  0
    1.0452   -4.7191    8.6664 C   0  0  1  0  0  0  0  0  0  0  0  0
    1.5963   -3.6423    9.2897 O   0  0  0  0  0  0  0  0  0  0  0  0
    0.7815   -3.3175    8.1032 C   0  0  2  0  0  0  0  0  0  0  0  0
    4.1799   -3.0381    5.9089 H   0  0  0  0  0  0  0  0  0  0  0  0
    4.8540   -1.9767    7.1349 H   0  0  0  0  0  0  0  0  0  0  0  0
    5.2245   -1.7091    5.4582 H   0  0  0  0  0  0  0  0  0  0  0  0
    3.5366   -0.0645    6.2526 H   0  0  0  0  0  0  0  0  0  0  0  0
    2.7418   -1.5705    8.0607 H   0  0  0  0  0  0  0  0  0  0  0  0
    1.5209   -0.5723    7.3894 H   0  0  0  0  0  0  0  0  0  0  0  0
    1.9902   -3.4276    6.3499 H   0  0  0  0  0  0  0  0  0  0  0  0
   -1.6441   -2.3095    4.9353 H   0  0  0  0  0  0  0  0  0  0  0  0
    0.2536   -1.8548    3.3296 H   0  0  0  0  0  0  0  0  0  0  0  0
   -0.7724   -0.5003    3.6920 H   0  0  0  0  0  0  0  0  0  0  0  0
    1.0460    0.2589    5.3699 H   0  0  0  0  0  0  0  0  0  0  0  0
    2.4454   -2.0929    4.2731 H   0  0  0  0  0  0  0  0  0  0  0  0
    4.5966   -0.3609    3.9100 H   0  0  0  0  0  0  0  0  0  0  0  0
    3.5329   -0.9331    2.6443 H   0  0  0  0  0  0  0  0  0  0  0  0
    3.3194    1.6460    4.2043 H   0  0  0  0  0  0  0  0  0  0  0  0
    3.4014    1.4711    2.4531 H   0  0  0  0  0  0  0  0  0  0  0  0
    1.4033   -0.4347    1.5671 H   0  0  0  0  0  0  0  0  0  0  0  0
    1.3534    1.2860    1.2429 H   0  0  0  0  0  0  0  0  0  0  0  0
   -0.0670    0.4956    1.8526 H   0  0  0  0  0  0  0  0  0  0  0  0
    0.9585    2.6452    3.0139 H   0  0  0  0  0  0  0  0  0  0  0  0
   -1.4440   -3.5283    7.7889 H   0  0  0  0  0  0  0  0  0  0  0  0
   -1.3886   -5.5444    6.5023 H   0  0  0  0  0  0  0  0  0  0  0  0
   -0.3261   -4.7933    5.4200 H   0  0  0  0  0  0  0  0  0  0  0  0
    0.1953   -6.8504    7.4227 H   0  0  0  0  0  0  0  0  0  0  0  0
    3.3237   -7.2311    6.2824 H   0  0  0  0  0  0  0  0  0  0  0  0
    2.7810   -8.3857    5.0828 H   0  0  0  0  0  0  0  0  0  0  0  0
    2.1650   -8.5012    6.7229 H   0  0  0  0  0  0  0  0  0  0  0  0
   -1.7955   -9.3238    4.3790 H   0  0  0  0  0  0  0  0  0  0  0  0
   -2.1401   -8.4584    2.9664 H   0  0  0  0  0  0  0  0  0  0  0  0
    0.6871   -4.8651    2.7539 H   0  0  0  0  0  0  0  0  0  0  0  0
    2.1220   -7.6351    2.9265 H   0  0  0  0  0  0  0  0  0  0  0  0
    2.9090   -6.0096    2.5363 H   0  0  0  0  0  0  0  0  0  0  0  0
    2.2268   -5.0920    4.7037 H   0  0  0  0  0  0  0  0  0  0  0  0
    2.2158   -6.4116    8.3511 H   0  0  0  0  0  0  0  0  0  0  0  0
    2.6202   -5.0841    7.2951 H   0  0  0  0  0  0  0  0  0  0  0  0
    0.3063   -5.2119    9.2972 H   0  0  0  0  0  0  0  0  0  0  0  0
  1  2  1  0
  1 32  1  0
  1 33  1  0
  1 34  1  0
  2 10  1  0
  2  3  1  0
  2 35  1  1
  3  4  1  0
  3 36  1  0
  3 37  1  0
  4 31  1  0
  4  5  1  0
  4 38  1  6
  5  7  1  0
  5  6  1  1
  5 16  1  0
  6  7  1  0
  7  8  1  0
  7 39  1  6
  8  9  1  0
  8 40  1  0
  8 41  1  0
  9 13  1  0
  9 10  1  0
  9 42  1  1
 10 11  1  0
 10 43  1  6
 11 12  1  0
 11 44  1  0
 11 45  1  0
 12 13  1  0
 12 46  1  0
 12 47  1  0
 13 14  1  0
 13 15  1  1
 14 48  1  0
 14 49  1  0
 14 50  1  0
 15 51  1  0
 16 31  1  0
 16 17  1  0
 16 52  1  1
 17 18  1  0
 17 53  1  0
 17 54  1  0
 18 19  1  0
 18 28  1  0
 18 55  1  1
 19 27  1  0
 19 20  1  1
 19 21  1  0
 20 56  1  0
 20 57  1  0
 20 58  1  0
 21 22  2  0
 22 23  1  0
 22 24  1  0
 23 59  1  0
 23 60  1  0
 24 25  1  0
 25 27  1  0
 25 26  1  0
 25 61  1  6
 26 27  1  0
 26 62  1  0
 26 63  1  0
 27 64  1  1
 28 29  1  0
 28 65  1  0
 28 66  1  0
 29 31  1  0
 29 30  1  0
 29 67  1  1
 31 30  1  1
M  END
>  <i_m_ct_stereo_status>  (206) 
1

>  <s_m_source_file>  (206) 
/var/tmp/pbs.5076255.sched01/tmpar858yha/42b8svm9_t.sdf

>  <i_m_source_file_index>  (206) 
36

>  <i_lp_mmshare_version>  (206) 
48012

>  <i_f3d_flags>  (206) 
0

>  <s_epik_input>  (206) 
TzFbQ0BIXTJbQ0gyXVtDQEhdKFtDQEBdKFtDSDNdKShbT0hdKVtDSDJdW0NIMl0zKVtDQEBIXTNbQ0BIXShbQ0gzXSlbQ0gyXVtDQEhdKFtDQEBdMTI0KVtDQEBdNTZbQ0BASF00W0NIMl1bQ0BIXShbQ0gyXVtDQEhdNU82KVtDQF0oW0NIM10pKFtDQEhdKFtDQEhdNzgpW0NIMl04KU49QyhPNylbTkgyXQ==

>  <s_epik_cmdline>  (206) 
J2VwaWtfcHl0aG9uJywgJy1waHQnLCAnMi4wJywgJy1waCcsICc3LjAnLCAnLXRuJywgJzgnLCAnLW1hJywgJzIwMCcsICctaW1hZScsICc8aW5maWxlLm1hZT4nLCAnLW9tYWUnLCAnPG91dGZpbGUubWFlPic=

>  <r_epik_Ionization_Penalty>  (206) 
1.97191

>  <r_epik_Ionization_Penalty_Charging>  (206) 
0

>  <r_epik_Ionization_Penalty_Neutral>  (206) 
1.97191

>  <r_epik_State_Penalty>  (206) 
2.10323

>  <r_epik_Charging_Adjusted_Penalty>  (206) 
2.10323

>  <i_epik_Tot_Q>  (206) 
0

>  <i_epik_Tot_abs_Q>  (206) 
0

>  <s_epik_Chemistry_Notes>  (206) 
This compound has an imine and may undergo hydrolysis.

>  <s_lp_Force_Field>  (206) 
OPLS3e

>  <r_lp_Energy>  (206) 
65.6236

>  <b_lp_Chiralities_Consistent>  (206) 
1

>  <s_lp_Variant>  (206) 
58:0-2

>  <s_i_glide_gridfile>  (206) 
pfpi4k_grid

>  <i_i_glide_lignum>  (206) 
36

>  <i_i_glide_rotatable_bonds>  (206) 
2

>  <r_i_docking_score>  (206) 
-3.03738

>  <r_i_glide_ligand_efficiency>  (206) 
-0.0979801

>  <r_i_glide_ligand_efficiency_sa>  (206) 
-0.307793

>  <r_i_glide_ligand_efficiency_ln>  (206) 
-0.685023

>  <r_i_glide_gscore>  (206) 
-3.03738

>  <r_i_glide_lipo>  (206) 
-0.0406877

>  <r_i_glide_hbond>  (206) 
-0.321503

>  <r_i_glide_metal>  (206) 
-0

>  <r_i_glide_rewards>  (206) 
-0.487061

>  <r_i_glide_evdw>  (206) 
-23.5708

>  <r_i_glide_ecoul>  (206) 
-6.51017

>  <r_i_glide_erotb>  (206) 
0.108156

>  <r_i_glide_esite>  (206) 
-0.141222

>  <r_i_glide_emodel>  (206) 
-34.2356

>  <r_i_glide_energy>  (206) 
-30.081

>  <r_i_glide_einternal>  (206) 
1.43678

>  <r_i_glide_intrahb_reward>  (206) 
-0

>  <i_i_glide_confnum>  (206) 
2

>  <i_i_glide_posenum>  (206) 
5

>  <r_i_glide_eff_state_penalty>  (206) 
0

>  <ligand_id>  (206) 
58

>  <original_smiles>  (206) 
CC1CC2C3(OC3CC3C1CCC3(C)O)C1CC(C3(C)N=C(N)OC4CC43)CC3OC321

>  <smiles>  (206) 
[H]OC1(C([H])([H])[H])C([H])([H])C([H])([H])C2([H])C([H])(C([H])([H])[H])C([H])([H])C3([H])C45OC4([H])C([H])([H])C([H])(C4(C([H])([H])[H])N=C(N([H])[H])OC6([H])C([H])([H])C64[H])C([H])([H])C5([H])C34OC4([H])C([H])([H])C21[H]

$$$$
58:1:2
     RDKit          3D

 67 74  0  0  1  0  0  0  0  0999 V2000
    4.1677   -2.4961    3.7364 C   0  0  0  0  0  0  0  0  0  0  0  0
    3.2159   -1.5167    4.4725 C   0  0  2  0  0  0  0  0  0  0  0  0
    2.8849   -2.0655    5.8797 C   0  0  0  0  0  0  0  0  0  0  0  0
    1.9096   -3.2169    5.8636 C   0  0  2  0  0  0  0  0  0  0  0  0
    0.4539   -3.0124    6.1897 C   0  0  1  0  0  0  0  0  0  0  0  0
    0.1986   -1.8050    6.9417 O   0  0  0  0  0  0  0  0  0  0  0  0
   -0.5905   -2.0244    5.7485 C   0  0  1  0  0  0  0  0  0  0  0  0
   -0.4735   -1.0324    4.6085 C   0  0  0  0  0  0  0  0  0  0  0  0
    0.8833   -0.3096    4.3401 C   0  0  1  0  0  0  0  0  0  0  0  0
    1.9663   -1.1677    3.6084 C   0  0  1  0  0  0  0  0  0  0  0  0
    2.3673   -0.3333    2.3675 C   0  0  0  0  0  0  0  0  0  0  0  0
    2.0169    1.1086    2.6997 C   0  0  0  0  0  0  0  0  0  0  0  0
    0.7115    0.9832    3.4792 C   0  0  1  0  0  0  0  0  0  0  0  0
   -0.4879    1.0210    2.5090 C   0  0  0  0  0  0  0  0  0  0  0  0
    0.5920    2.1046    4.3286 O   0  0  0  0  0  0  0  0  0  0  0  0
    0.4045   -4.2369    7.0800 C   0  0  1  0  0  0  0  0  0  0  0  0
   -0.1831   -5.3528    6.1117 C   0  0  0  0  0  0  0  0  0  0  0  0
    0.7254   -6.5419    5.6240 C   0  0  1  0  0  0  0  0  0  0  0  0
    0.4385   -6.9850    4.1520 C   0  0  1  0  0  0  0  0  0  0  0  0
   -1.0723   -7.2245    3.9463 C   0  0  0  0  0  0  0  0  0  0  0  0
    0.8076   -5.9049    3.2245 N   0  0  0  0  0  0  0  0  0  0  0  0
    1.8372   -5.9861    2.4424 C   0  0  0  0  0  0  0  0  0  0  0  0
    2.2316   -4.9629    1.5882 N   0  0  0  0  0  0  0  0  0  0  0  0
    2.6818   -7.0569    2.3130 O   0  0  0  0  0  0  0  0  0  0  0  0
    2.3857   -8.2803    3.0000 C   0  0  2  0  0  0  0  0  0  0  0  0
    1.1399   -8.9537    2.4811 C   0  0  0  0  0  0  0  0  0  0  0  0
    1.1488   -8.2899    3.8442 C   0  0  2  0  0  0  0  0  0  0  0  0
    2.2224   -6.3020    5.9046 C   0  0  0  0  0  0  0  0  0  0  0  0
    2.2171   -5.5843    7.1852 C   0  0  1  0  0  0  0  0  0  0  0  0
    3.1821   -4.6998    7.5671 O   0  0  0  0  0  0  0  0  0  0  0  0
    1.9227   -4.0726    7.1013 C   0  0  2  0  0  0  0  0  0  0  0  0
    3.6920   -3.4512    3.5136 H   0  0  0  0  0  0  0  0  0  0  0  0
    5.0563   -2.7148    4.3290 H   0  0  0  0  0  0  0  0  0  0  0  0
    4.5357   -2.1008    2.7889 H   0  0  0  0  0  0  0  0  0  0  0  0
    3.7819   -0.6036    4.6272 H   0  0  0  0  0  0  0  0  0  0  0  0
    3.8192   -2.4427    6.2967 H   0  0  0  0  0  0  0  0  0  0  0  0
    2.5952   -1.2704    6.5700 H   0  0  0  0  0  0  0  0  0  0  0  0
    2.0188   -3.8511    4.9872 H   0  0  0  0  0  0  0  0  0  0  0  0
   -1.6165   -2.3378    5.9455 H   0  0  0  0  0  0  0  0  0  0  0  0
   -0.7525   -1.5669    3.7051 H   0  0  0  0  0  0  0  0  0  0  0  0
   -1.2490   -0.2843    4.7720 H   0  0  0  0  0  0  0  0  0  0  0  0
    1.2819    0.0088    5.2996 H   0  0  0  0  0  0  0  0  0  0  0  0
    1.5241   -2.0984    3.2477 H   0  0  0  0  0  0  0  0  0  0  0  0
    3.4113   -0.4194    2.0721 H   0  0  0  0  0  0  0  0  0  0  0  0
    1.7750   -0.6455    1.5067 H   0  0  0  0  0  0  0  0  0  0  0  0
    2.8013    1.5200    3.3353 H   0  0  0  0  0  0  0  0  0  0  0  0
    1.9365    1.7454    1.8146 H   0  0  0  0  0  0  0  0  0  0  0  0
   -0.4947    0.1639    1.8369 H   0  0  0  0  0  0  0  0  0  0  0  0
   -0.4516    1.9118    1.8796 H   0  0  0  0  0  0  0  0  0  0  0  0
   -1.4446    1.0587    3.0291 H   0  0  0  0  0  0  0  0  0  0  0  0
    0.5292    2.8685    3.7838 H   0  0  0  0  0  0  0  0  0  0  0  0
   -0.1294   -4.1008    8.0244 H   0  0  0  0  0  0  0  0  0  0  0  0
   -1.0735   -5.7761    6.5803 H   0  0  0  0  0  0  0  0  0  0  0  0
   -0.5779   -4.8625    5.2284 H   0  0  0  0  0  0  0  0  0  0  0  0
    0.4600   -7.3828    6.2703 H   0  0  0  0  0  0  0  0  0  0  0  0
   -1.4751   -7.9630    4.6406 H   0  0  0  0  0  0  0  0  0  0  0  0
   -1.2616   -7.5739    2.9302 H   0  0  0  0  0  0  0  0  0  0  0  0
   -1.6448   -6.3072    4.0493 H   0  0  0  0  0  0  0  0  0  0  0  0
    1.8013   -4.0510    1.5991 H   0  0  0  0  0  0  0  0  0  0  0  0
    3.0573   -4.9963    1.0144 H   0  0  0  0  0  0  0  0  0  0  0  0
    3.2271   -8.9294    3.2300 H   0  0  0  0  0  0  0  0  0  0  0  0
    0.5612   -8.4635    1.6954 H   0  0  0  0  0  0  0  0  0  0  0  0
    1.1195  -10.0385    2.4918 H   0  0  0  0  0  0  0  0  0  0  0  0
    1.1813   -8.9938    4.6771 H   0  0  0  0  0  0  0  0  0  0  0  0
    2.7806   -7.2274    6.0143 H   0  0  0  0  0  0  0  0  0  0  0  0
    2.7644   -5.7121    5.1655 H   0  0  0  0  0  0  0  0  0  0  0  0
    1.8569   -6.1670    8.0291 H   0  0  0  0  0  0  0  0  0  0  0  0
  1  2  1  0
  1 32  1  0
  1 33  1  0
  1 34  1  0
  2 10  1  0
  2  3  1  0
  2 35  1  1
  3  4  1  0
  3 36  1  0
  3 37  1  0
  4 31  1  0
  4  5  1  0
  4 38  1  6
  5  7  1  0
  5  6  1  1
  5 16  1  0
  6  7  1  0
  7  8  1  0
  7 39  1  1
  8  9  1  0
  8 40  1  0
  8 41  1  0
  9 13  1  0
  9 10  1  0
  9 42  1  1
 10 11  1  0
 10 43  1  6
 11 12  1  0
 11 44  1  0
 11 45  1  0
 12 13  1  0
 12 46  1  0
 12 47  1  0
 13 14  1  0
 13 15  1  1
 14 48  1  0
 14 49  1  0
 14 50  1  0
 15 51  1  0
 16 31  1  0
 16 17  1  0
 16 52  1  1
 17 18  1  0
 17 53  1  0
 17 54  1  0
 18 19  1  0
 18 28  1  0
 18 55  1  1
 19 27  1  0
 19 20  1  1
 19 21  1  0
 20 56  1  0
 20 57  1  0
 20 58  1  0
 21 22  2  0
 22 23  1  0
 22 24  1  0
 23 59  1  0
 23 60  1  0
 24 25  1  0
 25 27  1  0
 25 26  1  0
 25 61  1  1
 26 27  1  0
 26 62  1  0
 26 63  1  0
 27 64  1  1
 28 29  1  0
 28 65  1  0
 28 66  1  0
 29 31  1  0
 29 30  1  0
 29 67  1  1
 31 30  1  1
M  END
>  <i_m_ct_stereo_status>  (207) 
1

>  <s_m_source_file>  (207) 
/var/tmp/pbs.5076255.sched01/tmpar858yha/42b8svm9_t.sdf

>  <i_m_source_file_index>  (207) 
36

>  <i_lp_mmshare_version>  (207) 
48012

>  <i_f3d_flags>  (207) 
0

>  <s_epik_input>  (207) 
TzFbQ0BIXTJbQ0gyXVtDQEhdKFtDQEBdKFtDSDNdKShbT0hdKVtDSDJdW0NIMl0zKVtDQEBIXTNbQ0BIXShbQ0gzXSlbQ0gyXVtDQEhdKFtDQEBdMTI0KVtDQEBdNTZbQ0BASF00W0NIMl1bQ0BIXShbQ0gyXVtDQEhdNU82KVtDQF0oW0NIM10pKFtDQEhdKFtDQEhdNzgpW0NIMl04KU49QyhPNylbTkgyXQ==

>  <s_epik_cmdline>  (207) 
J2VwaWtfcHl0aG9uJywgJy1waHQnLCAnMi4wJywgJy1waCcsICc3LjAnLCAnLXRuJywgJzgnLCAnLW1hJywgJzIwMCcsICctaW1hZScsICc8aW5maWxlLm1hZT4nLCAnLW9tYWUnLCAnPG91dGZpbGUubWFlPic=

>  <r_epik_Ionization_Penalty>  (207) 
1.97191

>  <r_epik_Ionization_Penalty_Charging>  (207) 
0

>  <r_epik_Ionization_Penalty_Neutral>  (207) 
1.97191

>  <r_epik_State_Penalty>  (207) 
2.10323

>  <r_epik_Charging_Adjusted_Penalty>  (207) 
2.10323

>  <i_epik_Tot_Q>  (207) 
0

>  <i_epik_Tot_abs_Q>  (207) 
0

>  <s_epik_Chemistry_Notes>  (207) 
This compound has an imine and may undergo hydrolysis.

>  <s_lp_Force_Field>  (207) 
OPLS3e

>  <r_lp_Energy>  (207) 
65.6236

>  <b_lp_Chiralities_Consistent>  (207) 
1

>  <s_lp_Variant>  (207) 
58:0-2

>  <s_i_glide_gridfile>  (207) 
pfpi4k_grid

>  <i_i_glide_lignum>  (207) 
36

>  <i_i_glide_rotatable_bonds>  (207) 
2

>  <r_i_docking_score>  (207) 
-2.46247

>  <r_i_glide_ligand_efficiency>  (207) 
-0.0794346

>  <r_i_glide_ligand_efficiency_sa>  (207) 
-0.249534

>  <r_i_glide_ligand_efficiency_ln>  (207) 
-0.555363

>  <r_i_glide_gscore>  (207) 
-2.46247

>  <r_i_glide_lipo>  (207) 
-0.0313851

>  <r_i_glide_hbond>  (207) 
0

>  <r_i_glide_metal>  (207) 
-0

>  <r_i_glide_rewards>  (207) 
-0.487061

>  <r_i_glide_evdw>  (207) 
-26.6587

>  <r_i_glide_ecoul>  (207) 
-4.43776

>  <r_i_glide_erotb>  (207) 
0.108156

>  <r_i_glide_esite>  (207) 
-0.053584

>  <r_i_glide_emodel>  (207) 
-35.1152

>  <r_i_glide_energy>  (207) 
-31.0964

>  <r_i_glide_einternal>  (207) 
0.161442

>  <r_i_glide_intrahb_reward>  (207) 
-0

>  <i_i_glide_confnum>  (207) 
1

>  <i_i_glide_posenum>  (207) 
18

>  <r_i_glide_eff_state_penalty>  (207) 
0

>  <ligand_id>  (207) 
58

>  <original_smiles>  (207) 
CC1CC2C3(OC3CC3C1CCC3(C)O)C1CC(C3(C)N=C(N)OC4CC43)CC3OC321

>  <smiles>  (207) 
[H]OC1(C([H])([H])[H])C([H])([H])C([H])([H])C2([H])C([H])(C([H])([H])[H])C([H])([H])C3([H])C45OC4([H])C([H])([H])C([H])(C4(C([H])([H])[H])N=C(N([H])[H])OC6([H])C([H])([H])C64[H])C([H])([H])C5([H])C34OC4([H])C([H])([H])C21[H]

$$$$
59:0:0
     RDKit          3D

 50 54  0  0  1  0  0  0  0  0999 V2000
    5.1883  -11.2114    2.7063 C   0  0  0  0  0  0  0  0  0  0  0  0
    4.3381   -9.9497    2.9792 C   0  0  1  0  0  0  0  0  0  0  0  0
    5.0908   -8.6616    2.6306 C   0  0  0  0  0  0  0  0  0  0  0  0
    6.4250   -8.6130    3.3025 N   0  0  2  0  0  0  0  0  0  0  0  0
    6.5311   -7.9569    4.6206 C   0  0  2  0  0  0  0  0  0  0  0  0
    6.1363   -6.4580    4.5199 C   0  0  0  0  0  0  0  0  0  0  0  0
    7.0001   -5.7247    3.4738 C   0  0  0  0  0  0  0  0  0  0  0  0
    7.2857   -6.5641    2.1977 C   0  0  1  0  0  0  0  0  0  0  0  0
    8.4146   -5.9445    1.3458 C   0  0  0  0  0  0  0  0  0  0  0  0
    8.0481   -4.6617    0.7868 N   0  0  0  0  0  0  0  0  0  0  0  0
    6.8799   -4.1296    0.4281 C   0  0  0  0  0  0  0  0  0  0  0  0
    6.9667   -2.9135   -0.1000 N   0  0  0  0  0  0  0  0  0  0  0  0
    8.3239   -2.7519   -0.0431 C   0  0  0  0  0  0  0  0  0  0  0  0
    9.0157   -3.7757    0.4616 N   0  0  0  0  0  0  0  0  0  0  0  0
    7.5622   -8.0455    2.5485 C   0  0  1  0  0  0  0  0  0  0  0  0
    8.7250   -8.1759    3.5515 C   0  0  0  0  0  0  0  0  0  0  0  0
    8.0404   -8.1055    4.9290 C   0  0  0  0  0  0  0  0  0  0  0  0
    2.9867   -9.9897    2.2002 C   0  0  0  0  0  0  0  0  0  0  0  0
    2.1282  -10.5828    3.1723 N   0  0  0  0  0  0  0  0  0  0  0  0
    0.9014  -11.1945    3.2563 C   0  0  0  0  0  0  0  0  0  0  0  0
    0.7554  -11.4769    4.6015 C   0  0  0  0  0  0  0  0  0  0  0  0
    1.8960  -11.0545    5.2621 N   0  0  0  0  0  0  0  0  0  0  0  0
    2.6861  -10.5493    4.3310 C   0  0  0  0  0  0  0  0  0  0  0  0
    3.9497  -10.0236    4.3683 O   0  0  0  0  0  0  0  0  0  0  0  0
    5.5708  -11.2272    1.6841 H   0  0  0  0  0  0  0  0  0  0  0  0
    4.6012  -12.1225    2.8519 H   0  0  0  0  0  0  0  0  0  0  0  0
    6.0447  -11.2854    3.3782 H   0  0  0  0  0  0  0  0  0  0  0  0
    5.2136   -8.6247    1.5465 H   0  0  0  0  0  0  0  0  0  0  0  0
    4.4408   -7.8187    2.8415 H   0  0  0  0  0  0  0  0  0  0  0  0
    5.9222   -8.4654    5.3689 H   0  0  0  0  0  0  0  0  0  0  0  0
    5.0846   -6.3051    4.2803 H   0  0  0  0  0  0  0  0  0  0  0  0
    6.2555   -5.9676    5.4860 H   0  0  0  0  0  0  0  0  0  0  0  0
    6.5229   -4.7808    3.2096 H   0  0  0  0  0  0  0  0  0  0  0  0
    7.9486   -5.4604    3.9405 H   0  0  0  0  0  0  0  0  0  0  0  0
    6.3691   -6.5911    1.6080 H   0  0  0  0  0  0  0  0  0  0  0  0
    9.2981   -5.7895    1.9614 H   0  0  0  0  0  0  0  0  0  0  0  0
    8.7125   -6.6133    0.5407 H   0  0  0  0  0  0  0  0  0  0  0  0
    5.9339   -4.6258    0.5465 H   0  0  0  0  0  0  0  0  0  0  0  0
    8.8259   -1.8446   -0.3880 H   0  0  0  0  0  0  0  0  0  0  0  0
    7.7411   -8.6194    1.6339 H   0  0  0  0  0  0  0  0  0  0  0  0
    9.2258   -9.1305    3.4040 H   0  0  0  0  0  0  0  0  0  0  0  0
    9.4949   -7.4116    3.4362 H   0  0  0  0  0  0  0  0  0  0  0  0
    8.4256   -7.2851    5.5387 H   0  0  0  0  0  0  0  0  0  0  0  0
    8.2308   -9.0324    5.4663 H   0  0  0  0  0  0  0  0  0  0  0  0
    2.5838   -8.9941    1.9977 H   0  0  0  0  0  0  0  0  0  0  0  0
    3.0074  -10.5752    1.2842 H   0  0  0  0  0  0  0  0  0  0  0  0
    0.2598  -11.3857    2.4049 H   0  0  0  0  0  0  0  0  0  0  0  0
   -0.0544  -11.9588    5.1234 H   0  0  0  0  0  0  0  0  0  0  0  0
    2.0607  -11.1887    6.2483 H   0  0  0  0  0  0  0  0  0  0  0  0
    6.7174   -9.5700    3.4642 H   0  0  0  0  0  0  0  0  0  0  0  0
  2  1  1  6
  1 25  1  0
  1 26  1  0
  1 27  1  0
  2 24  1  0
  2  3  1  0
  2 18  1  0
  3  4  1  0
  3 28  1  0
  3 29  1  0
  4 15  1  0
  4  5  1  0
  4 50  1  1
  5 17  1  0
  5  6  1  0
  5 30  1  1
  6  7  1  0
  6 31  1  0
  6 32  1  0
  7  8  1  0
  7 33  1  0
  7 34  1  0
  8  9  1  0
  8 15  1  0
  8 35  1  6
  9 10  1  0
  9 36  1  0
  9 37  1  0
 10 14  1  0
 10 11  1  0
 11 12  2  0
 11 38  1  0
 12 13  1  0
 13 14  2  0
 13 39  1  0
 15 16  1  0
 15 40  1  6
 16 17  1  0
 16 41  1  0
 16 42  1  0
 17 43  1  0
 17 44  1  0
 18 19  1  0
 18 45  1  0
 18 46  1  0
 19 23  1  0
 19 20  1  0
 20 21  2  0
 20 47  1  0
 21 22  1  0
 21 48  1  0
 22 23  2  0
 22 49  1  0
 23 24  1  0
M  CHG  2   4   1  22   1
M  END
>  <i_m_ct_stereo_status>  (208) 
1

>  <s_m_source_file>  (208) 
/var/tmp/pbs.5076255.sched01/tmpar858yha/42b8svm9_t.sdf

>  <i_m_source_file_index>  (208) 
37

>  <i_lp_mmshare_version>  (208) 
48012

>  <i_f3d_flags>  (208) 
0

>  <s_epik_input>  (208) 
W2NIXTFbY0hdbmMobjEyKU9bQ0BAXShbQ0gzXSkoW0NIMl0yKVtDSDJdTihbQ0BIXTM0KVtDQEhdKFtDSDJdW0NIMl00KVtDQEBIXShbQ0gyXVtDSDJdMylbQ0gyXW41W2NIXW5bY0hdbjU=

>  <s_epik_cmdline>  (208) 
J2VwaWtfcHl0aG9uJywgJy1waHQnLCAnMi4wJywgJy1waCcsICc3LjAnLCAnLXRuJywgJzgnLCAnLW1hJywgJzIwMCcsICctaW1hZScsICc8aW5maWxlLm1hZT4nLCAnLW9tYWUnLCAnPG91dGZpbGUubWFlPic=

>  <r_lp_tautomer_probability>  (208) 
1

>  <r_epik_Ionization_Penalty>  (208) 
0.0347405

>  <r_epik_Ionization_Penalty_Charging>  (208) 
0.0187276

>  <r_epik_Ionization_Penalty_Neutral>  (208) 
0.0160129

>  <r_epik_State_Penalty>  (208) 
0.0149181

>  <r_epik_Charging_Adjusted_Penalty>  (208) 
0.0336457

>  <i_epik_Tot_Q>  (208) 
2

>  <i_epik_Tot_abs_Q>  (208) 
2

>  <s_lp_Force_Field>  (208) 
OPLS3e

>  <r_lp_Energy>  (208) 
49.9335

>  <b_lp_Chiralities_Consistent>  (208) 
1

>  <s_lp_Variant>  (208) 
59:0-1

>  <s_i_glide_gridfile>  (208) 
pfpi4k_grid

>  <i_i_glide_lignum>  (208) 
37

>  <i_i_glide_rotatable_bonds>  (208) 
4

>  <r_i_docking_score>  (208) 
-3.72845

>  <r_i_glide_ligand_efficiency>  (208) 
-0.155352

>  <r_i_glide_ligand_efficiency_sa>  (208) 
-0.448113

>  <r_i_glide_ligand_efficiency_ln>  (208) 
-0.892389

>  <r_i_glide_gscore>  (208) 
-3.72845

>  <r_i_glide_lipo>  (208) 
-0.184596

>  <r_i_glide_hbond>  (208) 
-0.191131

>  <r_i_glide_metal>  (208) 
-0

>  <r_i_glide_rewards>  (208) 
-1.70379

>  <r_i_glide_evdw>  (208) 
-20.833

>  <r_i_glide_ecoul>  (208) 
-7.92256

>  <r_i_glide_erotb>  (208) 
0.689047

>  <r_i_glide_esite>  (208) 
-0.107943

>  <r_i_glide_emodel>  (208) 
-38.2127

>  <r_i_glide_energy>  (208) 
-28.7555

>  <r_i_glide_einternal>  (208) 
2.77891

>  <r_i_glide_intrahb_reward>  (208) 
-0

>  <i_i_glide_confnum>  (208) 
1

>  <i_i_glide_posenum>  (208) 
35

>  <r_i_glide_eff_state_penalty>  (208) 
0

>  <ligand_id>  (208) 
59

>  <original_smiles>  (208) 
CC1(CN2C3CCC(Cn4cncn4)C2CC3)Cn2ccnc2O1

>  <smiles>  (208) 
[H]c1nc([H])n(C([H])([H])C2([H])C([H])([H])C([H])([H])C3([H])C([H])([H])C([H])([H])C2([H])[N+]3([H])C([H])([H])C2(C([H])([H])[H])Oc3n(c([H])c([H])[n+]3[H])C2([H])[H])n1

$$$$
59:0:1
     RDKit          3D

 50 54  0  0  1  0  0  0  0  0999 V2000
    4.9275   -9.3851    1.8415 C   0  0  0  0  0  0  0  0  0  0  0  0
    3.6517   -8.5182    1.8249 C   0  0  1  0  0  0  0  0  0  0  0  0
    3.8412   -7.2473    0.9729 C   0  0  0  0  0  0  0  0  0  0  0  0
    4.8729   -6.3381    1.5555 N   0  0  2  0  0  0  0  0  0  0  0  0
    4.4770   -5.4230    2.6485 C   0  0  2  0  0  0  0  0  0  0  0  0
    3.3628   -4.4517    2.1750 C   0  0  0  0  0  0  0  0  0  0  0  0
    3.8084   -3.6357    0.9411 C   0  0  0  0  0  0  0  0  0  0  0  0
    4.6236   -4.4668   -0.0890 C   0  0  1  0  0  0  0  0  0  0  0  0
    5.3833   -3.5590   -1.0835 C   0  0  0  0  0  0  0  0  0  0  0  0
    4.5081   -2.8848   -2.0109 N   0  0  0  0  0  0  0  0  0  0  0  0
    3.8796   -1.7101   -1.9288 C   0  0  0  0  0  0  0  0  0  0  0  0
    3.1946   -1.3946   -3.0171 N   0  0  0  0  0  0  0  0  0  0  0  0
    3.4074   -2.5279   -3.7508 C   0  0  0  0  0  0  0  0  0  0  0  0
    4.2308   -3.4291   -3.2160 N   0  0  0  0  0  0  0  0  0  0  0  0
    5.5976   -5.4434    0.6297 C   0  0  1  0  0  0  0  0  0  0  0  0
    6.5497   -4.6942    1.5872 C   0  0  0  0  0  0  0  0  0  0  0  0
    5.7943   -4.6701    2.9266 C   0  0  0  0  0  0  0  0  0  0  0  0
    2.4191   -9.3352    1.3307 C   0  0  0  0  0  0  0  0  0  0  0  0
    1.8719   -9.8207    2.5721 N   0  0  0  0  0  0  0  0  0  0  0  0
    0.9978  -10.7385    3.0657 C   0  0  0  0  0  0  0  0  0  0  0  0
    1.0102  -10.5488    4.4417 C   0  0  0  0  0  0  0  0  0  0  0  0
    1.8959   -9.5351    4.7086 N   0  0  0  0  0  0  0  0  0  0  0  0
    2.4095   -9.1427    3.5475 C   0  0  0  0  0  0  0  0  0  0  0  0
    3.3476   -8.2361    3.2091 O   0  0  0  0  0  0  0  0  0  0  0  0
    5.2524   -9.6536    0.8356 H   0  0  0  0  0  0  0  0  0  0  0  0
    4.7598  -10.3208    2.3769 H   0  0  0  0  0  0  0  0  0  0  0  0
    5.7576   -8.8803    2.3389 H   0  0  0  0  0  0  0  0  0  0  0  0
    4.1614   -7.5470   -0.0278 H   0  0  0  0  0  0  0  0  0  0  0  0
    2.8819   -6.7627    0.8009 H   0  0  0  0  0  0  0  0  0  0  0  0
    4.1588   -5.9515    3.5465 H   0  0  0  0  0  0  0  0  0  0  0  0
    2.4282   -4.9652    1.9531 H   0  0  0  0  0  0  0  0  0  0  0  0
    3.0975   -3.7662    2.9798 H   0  0  0  0  0  0  0  0  0  0  0  0
    2.9425   -3.1714    0.4663 H   0  0  0  0  0  0  0  0  0  0  0  0
    4.4210   -2.8076    1.2946 H   0  0  0  0  0  0  0  0  0  0  0  0
    3.9145   -5.0766   -0.6564 H   0  0  0  0  0  0  0  0  0  0  0  0
    5.9392   -2.7876   -0.5570 H   0  0  0  0  0  0  0  0  0  0  0  0
    6.1091   -4.1342   -1.6533 H   0  0  0  0  0  0  0  0  0  0  0  0
    3.9289   -1.0649   -1.0679 H   0  0  0  0  0  0  0  0  0  0  0  0
    2.9846   -2.6819   -4.7343 H   0  0  0  0  0  0  0  0  0  0  0  0
    6.1547   -6.0331   -0.1010 H   0  0  0  0  0  0  0  0  0  0  0  0
    7.4865   -5.2426    1.6799 H   0  0  0  0  0  0  0  0  0  0  0  0
    6.8147   -3.6889    1.2560 H   0  0  0  0  0  0  0  0  0  0  0  0
    5.6231   -3.6557    3.2948 H   0  0  0  0  0  0  0  0  0  0  0  0
    6.3788   -5.1996    3.6777 H   0  0  0  0  0  0  0  0  0  0  0  0
    1.6551   -8.6874    0.9007 H   0  0  0  0  0  0  0  0  0  0  0  0
    2.6529  -10.1559    0.6544 H   0  0  0  0  0  0  0  0  0  0  0  0
    0.4583  -11.4471    2.4496 H   0  0  0  0  0  0  0  0  0  0  0  0
    0.4639  -11.0693    5.2124 H   0  0  0  0  0  0  0  0  0  0  0  0
    2.1326   -9.1530    5.6141 H   0  0  0  0  0  0  0  0  0  0  0  0
    5.6074   -6.9174    1.9479 H   0  0  0  0  0  0  0  0  0  0  0  0
  2  1  1  1
  1 25  1  0
  1 26  1  0
  1 27  1  0
  2 24  1  0
  2  3  1  0
  2 18  1  0
  3  4  1  0
  3 28  1  0
  3 29  1  0
  4 15  1  0
  4  5  1  0
  4 50  1  1
  5 17  1  0
  5  6  1  0
  5 30  1  1
  6  7  1  0
  6 31  1  0
  6 32  1  0
  7  8  1  0
  7 33  1  0
  7 34  1  0
  8  9  1  0
  8 15  1  0
  8 35  1  6
  9 10  1  0
  9 36  1  0
  9 37  1  0
 10 14  1  0
 10 11  1  0
 11 12  2  0
 11 38  1  0
 12 13  1  0
 13 14  2  0
 13 39  1  0
 15 16  1  0
 15 40  1  6
 16 17  1  0
 16 41  1  0
 16 42  1  0
 17 43  1  0
 17 44  1  0
 18 19  1  0
 18 45  1  0
 18 46  1  0
 19 23  1  0
 19 20  1  0
 20 21  2  0
 20 47  1  0
 21 22  1  0
 21 48  1  0
 22 23  2  0
 22 49  1  0
 23 24  1  0
M  CHG  2   4   1  22   1
M  END
>  <i_m_ct_stereo_status>  (209) 
1

>  <s_m_source_file>  (209) 
/var/tmp/pbs.5076255.sched01/tmpar858yha/42b8svm9_t.sdf

>  <i_m_source_file_index>  (209) 
37

>  <i_lp_mmshare_version>  (209) 
48012

>  <i_f3d_flags>  (209) 
0

>  <s_epik_input>  (209) 
W2NIXTFbY0hdbmMobjEyKU9bQ0BAXShbQ0gzXSkoW0NIMl0yKVtDSDJdTihbQ0BIXTM0KVtDQEhdKFtDSDJdW0NIMl00KVtDQEBIXShbQ0gyXVtDSDJdMylbQ0gyXW41W2NIXW5bY0hdbjU=

>  <s_epik_cmdline>  (209) 
J2VwaWtfcHl0aG9uJywgJy1waHQnLCAnMi4wJywgJy1waCcsICc3LjAnLCAnLXRuJywgJzgnLCAnLW1hJywgJzIwMCcsICctaW1hZScsICc8aW5maWxlLm1hZT4nLCAnLW9tYWUnLCAnPG91dGZpbGUubWFlPic=

>  <r_lp_tautomer_probability>  (209) 
1

>  <r_epik_Ionization_Penalty>  (209) 
0.0347405

>  <r_epik_Ionization_Penalty_Charging>  (209) 
0.0187276

>  <r_epik_Ionization_Penalty_Neutral>  (209) 
0.0160129

>  <r_epik_State_Penalty>  (209) 
0.0149181

>  <r_epik_Charging_Adjusted_Penalty>  (209) 
0.0336457

>  <i_epik_Tot_Q>  (209) 
2

>  <i_epik_Tot_abs_Q>  (209) 
2

>  <s_lp_Force_Field>  (209) 
OPLS3e

>  <r_lp_Energy>  (209) 
49.9335

>  <b_lp_Chiralities_Consistent>  (209) 
1

>  <s_lp_Variant>  (209) 
59:0-1

>  <s_i_glide_gridfile>  (209) 
pfpi4k_grid

>  <i_i_glide_lignum>  (209) 
37

>  <i_i_glide_rotatable_bonds>  (209) 
4

>  <r_i_docking_score>  (209) 
-3.32571

>  <r_i_glide_ligand_efficiency>  (209) 
-0.138571

>  <r_i_glide_ligand_efficiency_sa>  (209) 
-0.399709

>  <r_i_glide_ligand_efficiency_ln>  (209) 
-0.795996

>  <r_i_glide_gscore>  (209) 
-3.32571

>  <r_i_glide_lipo>  (209) 
-0.570492

>  <r_i_glide_hbond>  (209) 
0

>  <r_i_glide_metal>  (209) 
-0

>  <r_i_glide_rewards>  (209) 
-1.49827

>  <r_i_glide_evdw>  (209) 
-27.5025

>  <r_i_glide_ecoul>  (209) 
-3.2929

>  <r_i_glide_erotb>  (209) 
0.689047

>  <r_i_glide_esite>  (209) 
-0.0769399

>  <r_i_glide_emodel>  (209) 
-39.904

>  <r_i_glide_energy>  (209) 
-30.7954

>  <r_i_glide_einternal>  (209) 
1.32885

>  <r_i_glide_intrahb_reward>  (209) 
-0

>  <i_i_glide_confnum>  (209) 
1

>  <i_i_glide_posenum>  (209) 
3

>  <r_i_glide_eff_state_penalty>  (209) 
0

>  <ligand_id>  (209) 
59

>  <original_smiles>  (209) 
CC1(CN2C3CCC(Cn4cncn4)C2CC3)Cn2ccnc2O1

>  <smiles>  (209) 
[H]c1nc([H])n(C([H])([H])C2([H])C([H])([H])C([H])([H])C3([H])C([H])([H])C([H])([H])C2([H])[N+]3([H])C([H])([H])C2(C([H])([H])[H])Oc3n(c([H])c([H])[n+]3[H])C2([H])[H])n1

$$$$
59:0:2
     RDKit          3D

 50 54  0  0  1  0  0  0  0  0999 V2000
    4.6966   -4.1018   -0.7872 C   0  0  0  0  0  0  0  0  0  0  0  0
    3.4575   -3.1966   -0.6083 C   0  0  1  0  0  0  0  0  0  0  0  0
    2.6810   -3.5080    0.6799 C   0  0  0  0  0  0  0  0  0  0  0  0
    3.5353   -3.3744    1.9034 N   0  0  2  0  0  0  0  0  0  0  0  0
    3.5895   -4.5176    2.8338 C   0  0  2  0  0  0  0  0  0  0  0  0
    2.1769   -4.8108    3.3956 C   0  0  0  0  0  0  0  0  0  0  0  0
    1.5839   -3.5881    4.1244 C   0  0  0  0  0  0  0  0  0  0  0  0
    1.8630   -2.2476    3.3957 C   0  0  1  0  0  0  0  0  0  0  0  0
    1.6119   -1.0240    4.2989 C   0  0  0  0  0  0  0  0  0  0  0  0
    0.2201   -0.9095    4.6881 N   0  0  0  0  0  0  0  0  0  0  0  0
   -0.4878   -1.5508    5.6147 C   0  0  0  0  0  0  0  0  0  0  0  0
   -1.7549   -1.1680    5.6798 N   0  0  0  0  0  0  0  0  0  0  0  0
   -1.7352   -0.1889    4.7190 C   0  0  0  0  0  0  0  0  0  0  0  0
   -0.5897   -0.0177    4.0797 N   0  0  0  0  0  0  0  0  0  0  0  0
    3.3035   -2.2228    2.8036 C   0  0  1  0  0  0  0  0  0  0  0  0
    4.3641   -2.4675    3.9043 C   0  0  0  0  0  0  0  0  0  0  0  0
    4.5368   -3.9953    3.9365 C   0  0  0  0  0  0  0  0  0  0  0  0
    3.8285   -1.6824   -0.7189 C   0  0  0  0  0  0  0  0  0  0  0  0
    3.6160   -1.4615   -2.1219 N   0  0  0  0  0  0  0  0  0  0  0  0
    3.8893   -0.5440   -3.0974 C   0  0  0  0  0  0  0  0  0  0  0  0
    3.2582   -1.0361   -4.2321 C   0  0  0  0  0  0  0  0  0  0  0  0
    2.6505   -2.2291   -3.8905 N   0  0  0  0  0  0  0  0  0  0  0  0
    2.9118   -2.4424   -2.6036 C   0  0  0  0  0  0  0  0  0  0  0  0
    2.6160   -3.4575   -1.7452 O   0  0  0  0  0  0  0  0  0  0  0  0
    5.4109   -4.0066    0.0329 H   0  0  0  0  0  0  0  0  0  0  0  0
    5.2367   -3.8500   -1.7013 H   0  0  0  0  0  0  0  0  0  0  0  0
    4.4138   -5.1529   -0.8574 H   0  0  0  0  0  0  0  0  0  0  0  0
    1.8162   -2.8408    0.6912 H   0  0  0  0  0  0  0  0  0  0  0  0
    2.2721   -4.5144    0.5988 H   0  0  0  0  0  0  0  0  0  0  0  0
    4.0058   -5.4050    2.3532 H   0  0  0  0  0  0  0  0  0  0  0  0
    1.4946   -5.1212    2.6056 H   0  0  0  0  0  0  0  0  0  0  0  0
    2.2146   -5.6512    4.0897 H   0  0  0  0  0  0  0  0  0  0  0  0
    0.5126   -3.7430    4.2543 H   0  0  0  0  0  0  0  0  0  0  0  0
    2.0054   -3.5443    5.1273 H   0  0  0  0  0  0  0  0  0  0  0  0
    1.1331   -2.1656    2.5900 H   0  0  0  0  0  0  0  0  0  0  0  0
    2.1891   -1.0831    5.2199 H   0  0  0  0  0  0  0  0  0  0  0  0
    1.9163   -0.1116    3.7867 H   0  0  0  0  0  0  0  0  0  0  0  0
   -0.0670   -2.3210    6.2472 H   0  0  0  0  0  0  0  0  0  0  0  0
   -2.5919    0.4183    4.4856 H   0  0  0  0  0  0  0  0  0  0  0  0
    3.4909   -1.2834    2.2750 H   0  0  0  0  0  0  0  0  0  0  0  0
    5.3004   -1.9735    3.6485 H   0  0  0  0  0  0  0  0  0  0  0  0
    4.0804   -2.0840    4.8866 H   0  0  0  0  0  0  0  0  0  0  0  0
    4.3059   -4.4175    4.9199 H   0  0  0  0  0  0  0  0  0  0  0  0
    5.5722   -4.2500    3.7161 H   0  0  0  0  0  0  0  0  0  0  0  0
    3.1206   -1.0407   -0.1913 H   0  0  0  0  0  0  0  0  0  0  0  0
    4.8523   -1.4377   -0.4373 H   0  0  0  0  0  0  0  0  0  0  0  0
    4.4632    0.3591   -2.9220 H   0  0  0  0  0  0  0  0  0  0  0  0
    3.1950   -0.6220   -5.2233 H   0  0  0  0  0  0  0  0  0  0  0  0
    2.0644   -2.8098   -4.4766 H   0  0  0  0  0  0  0  0  0  0  0  0
    4.4934   -3.2735    1.5914 H   0  0  0  0  0  0  0  0  0  0  0  0
  2  1  1  6
  1 25  1  0
  1 26  1  0
  1 27  1  0
  2 24  1  0
  2  3  1  0
  2 18  1  0
  3  4  1  0
  3 28  1  0
  3 29  1  0
  4 15  1  0
  4  5  1  0
  4 50  1  6
  5 17  1  0
  5  6  1  0
  5 30  1  6
  6  7  1  0
  6 31  1  0
  6 32  1  0
  7  8  1  0
  7 33  1  0
  7 34  1  0
  8  9  1  0
  8 15  1  0
  8 35  1  6
  9 10  1  0
  9 36  1  0
  9 37  1  0
 10 14  1  0
 10 11  1  0
 11 12  2  0
 11 38  1  0
 12 13  1  0
 13 14  2  0
 13 39  1  0
 15 16  1  0
 15 40  1  6
 16 17  1  0
 16 41  1  0
 16 42  1  0
 17 43  1  0
 17 44  1  0
 18 19  1  0
 18 45  1  0
 18 46  1  0
 19 23  1  0
 19 20  1  0
 20 21  2  0
 20 47  1  0
 21 22  1  0
 21 48  1  0
 22 23  2  0
 22 49  1  0
 23 24  1  0
M  CHG  2   4   1  22   1
M  END
>  <i_m_ct_stereo_status>  (210) 
1

>  <s_m_source_file>  (210) 
/var/tmp/pbs.5076255.sched01/tmpar858yha/42b8svm9_t.sdf

>  <i_m_source_file_index>  (210) 
37

>  <i_lp_mmshare_version>  (210) 
48012

>  <i_f3d_flags>  (210) 
0

>  <s_epik_input>  (210) 
W2NIXTFbY0hdbmMobjEyKU9bQ0BAXShbQ0gzXSkoW0NIMl0yKVtDSDJdTihbQ0BIXTM0KVtDQEhdKFtDSDJdW0NIMl00KVtDQEBIXShbQ0gyXVtDSDJdMylbQ0gyXW41W2NIXW5bY0hdbjU=

>  <s_epik_cmdline>  (210) 
J2VwaWtfcHl0aG9uJywgJy1waHQnLCAnMi4wJywgJy1waCcsICc3LjAnLCAnLXRuJywgJzgnLCAnLW1hJywgJzIwMCcsICctaW1hZScsICc8aW5maWxlLm1hZT4nLCAnLW9tYWUnLCAnPG91dGZpbGUubWFlPic=

>  <r_lp_tautomer_probability>  (210) 
1

>  <r_epik_Ionization_Penalty>  (210) 
0.0347405

>  <r_epik_Ionization_Penalty_Charging>  (210) 
0.0187276

>  <r_epik_Ionization_Penalty_Neutral>  (210) 
0.0160129

>  <r_epik_State_Penalty>  (210) 
0.0149181

>  <r_epik_Charging_Adjusted_Penalty>  (210) 
0.0336457

>  <i_epik_Tot_Q>  (210) 
2

>  <i_epik_Tot_abs_Q>  (210) 
2

>  <s_lp_Force_Field>  (210) 
OPLS3e

>  <r_lp_Energy>  (210) 
49.9335

>  <b_lp_Chiralities_Consistent>  (210) 
1

>  <s_lp_Variant>  (210) 
59:0-1

>  <s_i_glide_gridfile>  (210) 
pfpi4k_grid

>  <i_i_glide_lignum>  (210) 
37

>  <i_i_glide_rotatable_bonds>  (210) 
4

>  <r_i_docking_score>  (210) 
-3.30339

>  <r_i_glide_ligand_efficiency>  (210) 
-0.137641

>  <r_i_glide_ligand_efficiency_sa>  (210) 
-0.397026

>  <r_i_glide_ligand_efficiency_ln>  (210) 
-0.790652

>  <r_i_glide_gscore>  (210) 
-3.30339

>  <r_i_glide_lipo>  (210) 
-0.325077

>  <r_i_glide_hbond>  (210) 
-0.0165639

>  <r_i_glide_metal>  (210) 
-0

>  <r_i_glide_rewards>  (210) 
-1.15617

>  <r_i_glide_evdw>  (210) 
-24.259

>  <r_i_glide_ecoul>  (210) 
-7.17333

>  <r_i_glide_erotb>  (210) 
0.689047

>  <r_i_glide_esite>  (210) 
-0.205674

>  <r_i_glide_emodel>  (210) 
-39.4837

>  <r_i_glide_energy>  (210) 
-31.4323

>  <r_i_glide_einternal>  (210) 
3.41285

>  <r_i_glide_intrahb_reward>  (210) 
-0

>  <i_i_glide_confnum>  (210) 
5

>  <i_i_glide_posenum>  (210) 
8

>  <r_i_glide_eff_state_penalty>  (210) 
0

>  <ligand_id>  (210) 
59

>  <original_smiles>  (210) 
CC1(CN2C3CCC(Cn4cncn4)C2CC3)Cn2ccnc2O1

>  <smiles>  (210) 
[H]c1nc([H])n(C([H])([H])C2([H])C([H])([H])C([H])([H])C3([H])C([H])([H])C([H])([H])C2([H])[N+]3([H])C([H])([H])C2(C([H])([H])[H])Oc3n(c([H])c([H])[n+]3[H])C2([H])[H])n1

$$$$
59:1:0
     RDKit          3D

 49 53  0  0  1  0  0  0  0  0999 V2000
    1.0453   -5.5504    3.3337 C   0  0  0  0  0  0  0  0  0  0  0  0
    1.6038   -6.9355    2.9390 C   0  0  1  0  0  0  0  0  0  0  0  0
    2.6714   -6.8536    1.8068 C   0  0  0  0  0  0  0  0  0  0  0  0
    3.6458   -5.7647    1.9905 N   0  0  0  0  0  0  0  0  0  0  0  0
    4.7665   -6.1162    2.8721 C   0  0  2  0  0  0  0  0  0  0  0  0
    5.4224   -4.8093    3.3360 C   0  0  0  0  0  0  0  0  0  0  0  0
    5.9942   -4.0178    2.1579 C   0  0  0  0  0  0  0  0  0  0  0  0
    5.0168   -4.0197    0.9635 C   0  0  1  0  0  0  0  0  0  0  0  0
    5.7243   -3.5028   -0.3070 C   0  0  0  0  0  0  0  0  0  0  0  0
    4.7867   -2.9563   -1.2496 N   0  0  0  0  0  0  0  0  0  0  0  0
    4.3179   -3.4408   -2.3957 C   0  0  0  0  0  0  0  0  0  0  0  0
    3.4514   -2.6364   -2.9999 N   0  0  0  0  0  0  0  0  0  0  0  0
    3.4186   -1.6205   -2.0803 C   0  0  0  0  0  0  0  0  0  0  0  0
    4.2276   -1.7459   -1.0291 N   0  0  0  0  0  0  0  0  0  0  0  0
    4.3570   -5.4174    0.7468 C   0  0  1  0  0  0  0  0  0  0  0  0
    5.3965   -6.5482    0.5894 C   0  0  0  0  0  0  0  0  0  0  0  0
    5.6725   -7.0097    2.0127 C   0  0  0  0  0  0  0  0  0  0  0  0
    2.0777   -7.7731    4.1853 C   0  0  0  0  0  0  0  0  0  0  0  0
    1.6639   -9.0795    3.8053 N   0  0  0  0  0  0  0  0  0  0  0  0
    1.9637  -10.3879    4.0889 C   0  0  0  0  0  0  0  0  0  0  0  0
    1.0848  -11.1151    3.2952 C   0  0  0  0  0  0  0  0  0  0  0  0
    0.3424  -10.2095    2.5422 N   0  0  0  0  0  0  0  0  0  0  0  0
    0.7823   -9.0005    2.8701 C   0  0  0  0  0  0  0  0  0  0  0  0
    0.5418   -7.7499    2.3779 O   0  0  0  0  0  0  0  0  0  0  0  0
    1.8270   -4.9038    3.7275 H   0  0  0  0  0  0  0  0  0  0  0  0
    0.2793   -5.6179    4.1018 H   0  0  0  0  0  0  0  0  0  0  0  0
    0.6254   -5.0317    2.4813 H   0  0  0  0  0  0  0  0  0  0  0  0
    3.1649   -7.8190    1.6792 H   0  0  0  0  0  0  0  0  0  0  0  0
    2.1442   -6.6784    0.8690 H   0  0  0  0  0  0  0  0  0  0  0  0
    4.5082   -6.6123    3.7942 H   0  0  0  0  0  0  0  0  0  0  0  0
    4.6843   -4.2171    3.8745 H   0  0  0  0  0  0  0  0  0  0  0  0
    6.2107   -5.0404    4.0457 H   0  0  0  0  0  0  0  0  0  0  0  0
    6.2155   -2.9945    2.4694 H   0  0  0  0  0  0  0  0  0  0  0  0
    6.9386   -4.4731    1.8601 H   0  0  0  0  0  0  0  0  0  0  0  0
    4.2153   -3.3270    1.2401 H   0  0  0  0  0  0  0  0  0  0  0  0
    6.4616   -2.7420   -0.0614 H   0  0  0  0  0  0  0  0  0  0  0  0
    6.2720   -4.2934   -0.8077 H   0  0  0  0  0  0  0  0  0  0  0  0
    4.6124   -4.4012   -2.7962 H   0  0  0  0  0  0  0  0  0  0  0  0
    2.7675   -0.7564   -2.1796 H   0  0  0  0  0  0  0  0  0  0  0  0
    3.6755   -5.3665   -0.1061 H   0  0  0  0  0  0  0  0  0  0  0  0
    4.9794   -7.3585   -0.0117 H   0  0  0  0  0  0  0  0  0  0  0  0
    6.3308   -6.2382    0.1217 H   0  0  0  0  0  0  0  0  0  0  0  0
    6.7202   -6.9232    2.2921 H   0  0  0  0  0  0  0  0  0  0  0  0
    5.3894   -8.0543    2.1155 H   0  0  0  0  0  0  0  0  0  0  0  0
    3.1362   -7.8276    4.4251 H   0  0  0  0  0  0  0  0  0  0  0  0
    1.5045   -7.5077    5.0845 H   0  0  0  0  0  0  0  0  0  0  0  0
    2.7418  -10.6952    4.7732 H   0  0  0  0  0  0  0  0  0  0  0  0
    0.9805  -12.1879    3.2067 H   0  0  0  0  0  0  0  0  0  0  0  0
   -0.3676  -10.4146    1.8617 H   0  0  0  0  0  0  0  0  0  0  0  0
  2  1  1  1
  1 25  1  0
  1 26  1  0
  1 27  1  0
  2 24  1  0
  2  3  1  0
  2 18  1  0
  3  4  1  0
  3 28  1  0
  3 29  1  0
  4 15  1  0
  4  5  1  0
  5 17  1  0
  5  6  1  0
  5 30  1  1
  6  7  1  0
  6 31  1  0
  6 32  1  0
  7  8  1  0
  7 33  1  0
  7 34  1  0
  8  9  1  0
  8 15  1  0
  8 35  1  1
  9 10  1  0
  9 36  1  0
  9 37  1  0
 10 14  1  0
 10 11  1  0
 11 12  2  0
 11 38  1  0
 12 13  1  0
 13 14  2  0
 13 39  1  0
 15 16  1  0
 15 40  1  6
 16 17  1  0
 16 41  1  0
 16 42  1  0
 17 43  1  0
 17 44  1  0
 18 19  1  0
 18 45  1  0
 18 46  1  0
 19 23  1  0
 19 20  1  0
 20 21  2  0
 20 47  1  0
 21 22  1  0
 21 48  1  0
 22 23  2  0
 22 49  1  0
 23 24  1  0
M  CHG  1  22   1
M  END
>  <i_m_ct_stereo_status>  (211) 
1

>  <s_m_source_file>  (211) 
/var/tmp/pbs.5076255.sched01/tmpar858yha/42b8svm9_t.sdf

>  <i_m_source_file_index>  (211) 
38

>  <i_lp_mmshare_version>  (211) 
48012

>  <i_f3d_flags>  (211) 
0

>  <s_epik_input>  (211) 
W2NIXTFbY0hdbmMobjEyKU9bQ0BAXShbQ0gzXSkoW0NIMl0yKVtDSDJdTihbQ0BIXTM0KVtDQEhdKFtDSDJdW0NIMl00KVtDQEBIXShbQ0gyXVtDSDJdMylbQ0gyXW41W2NIXW5bY0hdbjU=

>  <s_epik_cmdline>  (211) 
J2VwaWtfcHl0aG9uJywgJy1waHQnLCAnMi4wJywgJy1waCcsICc3LjAnLCAnLXRuJywgJzgnLCAnLW1hJywgJzIwMCcsICctaW1hZScsICc8aW5maWxlLm1hZT4nLCAnLW9tYWUnLCAnPG91dGZpbGUubWFlPic=

>  <r_lp_tautomer_probability>  (211) 
1

>  <r_epik_Ionization_Penalty>  (211) 
2.06158

>  <r_epik_Ionization_Penalty_Charging>  (211) 
0

>  <r_epik_Ionization_Penalty_Neutral>  (211) 
2.06158

>  <r_epik_State_Penalty>  (211) 
2.18883

>  <r_epik_Charging_Adjusted_Penalty>  (211) 
2.18883

>  <i_epik_Tot_Q>  (211) 
1

>  <i_epik_Tot_abs_Q>  (211) 
1

>  <s_lp_Force_Field>  (211) 
OPLS3e

>  <r_lp_Energy>  (211) 
37.3209

>  <b_lp_Chiralities_Consistent>  (211) 
1

>  <s_lp_Variant>  (211) 
59:0-2

>  <s_i_glide_gridfile>  (211) 
pfpi4k_grid

>  <i_i_glide_lignum>  (211) 
38

>  <i_i_glide_rotatable_bonds>  (211) 
4

>  <r_i_docking_score>  (211) 
-3.07522

>  <r_i_glide_ligand_efficiency>  (211) 
-0.128134

>  <r_i_glide_ligand_efficiency_sa>  (211) 
-0.369603

>  <r_i_glide_ligand_efficiency_ln>  (211) 
-0.736041

>  <r_i_glide_gscore>  (211) 
-3.07522

>  <r_i_glide_lipo>  (211) 
-0.553721

>  <r_i_glide_hbond>  (211) 
0

>  <r_i_glide_metal>  (211) 
-0

>  <r_i_glide_rewards>  (211) 
-1.16339

>  <r_i_glide_evdw>  (211) 
-24.0483

>  <r_i_glide_ecoul>  (211) 
-4.8506

>  <r_i_glide_erotb>  (211) 
0.692778

>  <r_i_glide_esite>  (211) 
-0.120885

>  <r_i_glide_emodel>  (211) 
-34.0484

>  <r_i_glide_energy>  (211) 
-28.8989

>  <r_i_glide_einternal>  (211) 
3.89042

>  <r_i_glide_intrahb_reward>  (211) 
-0

>  <i_i_glide_confnum>  (211) 
4

>  <i_i_glide_posenum>  (211) 
2

>  <r_i_glide_eff_state_penalty>  (211) 
0

>  <ligand_id>  (211) 
59

>  <original_smiles>  (211) 
CC1(CN2C3CCC(Cn4cncn4)C2CC3)Cn2ccnc2O1

>  <smiles>  (211) 
[H]c1nc([H])n(C([H])([H])C2([H])C([H])([H])C([H])([H])C3([H])N(C([H])([H])C4(C([H])([H])[H])Oc5n(c([H])c([H])[n+]5[H])C4([H])[H])C2([H])C([H])([H])C3([H])[H])n1

$$$$
59:1:1
     RDKit          3D

 49 53  0  0  1  0  0  0  0  0999 V2000
    5.4393   -3.8921   -0.2810 C   0  0  0  0  0  0  0  0  0  0  0  0
    4.4335   -2.8529   -0.8178 C   0  0  1  0  0  0  0  0  0  0  0  0
    3.3191   -2.5132    0.2116 C   0  0  0  0  0  0  0  0  0  0  0  0
    3.8392   -2.1213    1.5340 N   0  0  0  0  0  0  0  0  0  0  0  0
    4.0764   -0.6782    1.6756 C   0  0  2  0  0  0  0  0  0  0  0  0
    5.0200   -0.5129    2.8839 C   0  0  0  0  0  0  0  0  0  0  0  0
    4.3843   -1.0147    4.1881 C   0  0  0  0  0  0  0  0  0  0  0  0
    3.6414   -2.3497    3.9664 C   0  0  1  0  0  0  0  0  0  0  0  0
    2.7318   -2.6687    5.1724 C   0  0  0  0  0  0  0  0  0  0  0  0
    2.0140   -3.9156    4.9860 N   0  0  0  0  0  0  0  0  0  0  0  0
    0.7853   -4.1522    4.5137 C   0  0  0  0  0  0  0  0  0  0  0  0
    0.5090   -5.4444    4.4098 N   0  0  0  0  0  0  0  0  0  0  0  0
    1.6788   -5.9738    4.8674 C   0  0  0  0  0  0  0  0  0  0  0  0
    2.6186   -5.1025    5.2177 N   0  0  0  0  0  0  0  0  0  0  0  0
    2.8644   -2.3620    2.6103 C   0  0  1  0  0  0  0  0  0  0  0  0
    1.8621   -1.1937    2.4919 C   0  0  0  0  0  0  0  0  0  0  0  0
    2.6846   -0.0705    1.8770 C   0  0  0  0  0  0  0  0  0  0  0  0
    5.1439   -1.5844   -1.4058 C   0  0  0  0  0  0  0  0  0  0  0  0
    4.2763   -1.2941   -2.5064 N   0  0  0  0  0  0  0  0  0  0  0  0
    3.9253   -0.2560   -3.3301 C   0  0  0  0  0  0  0  0  0  0  0  0
    3.0321   -0.8063   -4.2369 C   0  0  0  0  0  0  0  0  0  0  0  0
    2.8503   -2.1369   -3.8956 N   0  0  0  0  0  0  0  0  0  0  0  0
    3.5977   -2.3614   -2.8083 C   0  0  0  0  0  0  0  0  0  0  0  0
    3.7357   -3.4113   -1.9495 O   0  0  0  0  0  0  0  0  0  0  0  0
    5.9622   -3.5155    0.6009 H   0  0  0  0  0  0  0  0  0  0  0  0
    6.2047   -4.1309   -1.0166 H   0  0  0  0  0  0  0  0  0  0  0  0
    4.9560   -4.8234    0.0087 H   0  0  0  0  0  0  0  0  0  0  0  0
    2.6543   -1.7469   -0.1828 H   0  0  0  0  0  0  0  0  0  0  0  0
    2.6920   -3.3981    0.3197 H   0  0  0  0  0  0  0  0  0  0  0  0
    4.5475   -0.1929    0.8411 H   0  0  0  0  0  0  0  0  0  0  0  0
    5.9495   -1.0490    2.6926 H   0  0  0  0  0  0  0  0  0  0  0  0
    5.2838    0.5341    2.9946 H   0  0  0  0  0  0  0  0  0  0  0  0
    5.1418   -1.1106    4.9712 H   0  0  0  0  0  0  0  0  0  0  0  0
    3.6787   -0.2587    4.5348 H   0  0  0  0  0  0  0  0  0  0  0  0
    4.3978   -3.1352    3.9066 H   0  0  0  0  0  0  0  0  0  0  0  0
    3.3104   -2.7161    6.0961 H   0  0  0  0  0  0  0  0  0  0  0  0
    1.9976   -1.8737    5.3224 H   0  0  0  0  0  0  0  0  0  0  0  0
    0.1169   -3.3660    4.2081 H   0  0  0  0  0  0  0  0  0  0  0  0
    1.8483   -7.0358    4.9410 H   0  0  0  0  0  0  0  0  0  0  0  0
    2.3791   -3.3276    2.4676 H   0  0  0  0  0  0  0  0  0  0  0  0
    1.0248   -1.4651    1.8430 H   0  0  0  0  0  0  0  0  0  0  0  0
    1.4375   -0.8805    3.4471 H   0  0  0  0  0  0  0  0  0  0  0  0
    2.7151    0.8258    2.4908 H   0  0  0  0  0  0  0  0  0  0  0  0
    2.2569    0.1993    0.9155 H   0  0  0  0  0  0  0  0  0  0  0  0
    5.2502   -0.7100   -0.7843 H   0  0  0  0  0  0  0  0  0  0  0  0
    6.1166   -1.8472   -1.8386 H   0  0  0  0  0  0  0  0  0  0  0  0
    4.2936    0.7508   -3.2015 H   0  0  0  0  0  0  0  0  0  0  0  0
    2.5038   -0.3369   -5.0545 H   0  0  0  0  0  0  0  0  0  0  0  0
    2.2450   -2.8093   -4.3549 H   0  0  0  0  0  0  0  0  0  0  0  0
  2  1  1  1
  1 25  1  0
  1 26  1  0
  1 27  1  0
  2 24  1  0
  2  3  1  0
  2 18  1  0
  3  4  1  0
  3 28  1  0
  3 29  1  0
  4 15  1  0
  4  5  1  0
  5 17  1  0
  5  6  1  0
  5 30  1  6
  6  7  1  0
  6 31  1  0
  6 32  1  0
  7  8  1  0
  7 33  1  0
  7 34  1  0
  8  9  1  0
  8 15  1  0
  8 35  1  6
  9 10  1  0
  9 36  1  0
  9 37  1  0
 10 14  1  0
 10 11  1  0
 11 12  2  0
 11 38  1  0
 12 13  1  0
 13 14  2  0
 13 39  1  0
 15 16  1  0
 15 40  1  6
 16 17  1  0
 16 41  1  0
 16 42  1  0
 17 43  1  0
 17 44  1  0
 18 19  1  0
 18 45  1  0
 18 46  1  0
 19 23  1  0
 19 20  1  0
 20 21  2  0
 20 47  1  0
 21 22  1  0
 21 48  1  0
 22 23  2  0
 22 49  1  0
 23 24  1  0
M  CHG  1  22   1
M  END
>  <i_m_ct_stereo_status>  (212) 
1

>  <s_m_source_file>  (212) 
/var/tmp/pbs.5076255.sched01/tmpar858yha/42b8svm9_t.sdf

>  <i_m_source_file_index>  (212) 
38

>  <i_lp_mmshare_version>  (212) 
48012

>  <i_f3d_flags>  (212) 
0

>  <s_epik_input>  (212) 
W2NIXTFbY0hdbmMobjEyKU9bQ0BAXShbQ0gzXSkoW0NIMl0yKVtDSDJdTihbQ0BIXTM0KVtDQEhdKFtDSDJdW0NIMl00KVtDQEBIXShbQ0gyXVtDSDJdMylbQ0gyXW41W2NIXW5bY0hdbjU=

>  <s_epik_cmdline>  (212) 
J2VwaWtfcHl0aG9uJywgJy1waHQnLCAnMi4wJywgJy1waCcsICc3LjAnLCAnLXRuJywgJzgnLCAnLW1hJywgJzIwMCcsICctaW1hZScsICc8aW5maWxlLm1hZT4nLCAnLW9tYWUnLCAnPG91dGZpbGUubWFlPic=

>  <r_lp_tautomer_probability>  (212) 
1

>  <r_epik_Ionization_Penalty>  (212) 
2.06158

>  <r_epik_Ionization_Penalty_Charging>  (212) 
0

>  <r_epik_Ionization_Penalty_Neutral>  (212) 
2.06158

>  <r_epik_State_Penalty>  (212) 
2.18883

>  <r_epik_Charging_Adjusted_Penalty>  (212) 
2.18883

>  <i_epik_Tot_Q>  (212) 
1

>  <i_epik_Tot_abs_Q>  (212) 
1

>  <s_lp_Force_Field>  (212) 
OPLS3e

>  <r_lp_Energy>  (212) 
37.3209

>  <b_lp_Chiralities_Consistent>  (212) 
1

>  <s_lp_Variant>  (212) 
59:0-2

>  <s_i_glide_gridfile>  (212) 
pfpi4k_grid

>  <i_i_glide_lignum>  (212) 
38

>  <i_i_glide_rotatable_bonds>  (212) 
4

>  <r_i_docking_score>  (212) 
-2.98162

>  <r_i_glide_ligand_efficiency>  (212) 
-0.124234

>  <r_i_glide_ligand_efficiency_sa>  (212) 
-0.358354

>  <r_i_glide_ligand_efficiency_ln>  (212) 
-0.713639

>  <r_i_glide_gscore>  (212) 
-2.98162

>  <r_i_glide_lipo>  (212) 
-0.608211

>  <r_i_glide_hbond>  (212) 
0

>  <r_i_glide_metal>  (212) 
-0

>  <r_i_glide_rewards>  (212) 
-1.2131

>  <r_i_glide_evdw>  (212) 
-23.4634

>  <r_i_glide_ecoul>  (212) 
-4.27207

>  <r_i_glide_erotb>  (212) 
0.692778

>  <r_i_glide_esite>  (212) 
-0.0391128

>  <r_i_glide_emodel>  (212) 
-34.1234

>  <r_i_glide_energy>  (212) 
-27.7355

>  <r_i_glide_einternal>  (212) 
1.18838

>  <r_i_glide_intrahb_reward>  (212) 
-0

>  <i_i_glide_confnum>  (212) 
4

>  <i_i_glide_posenum>  (212) 
6

>  <r_i_glide_eff_state_penalty>  (212) 
0

>  <ligand_id>  (212) 
59

>  <original_smiles>  (212) 
CC1(CN2C3CCC(Cn4cncn4)C2CC3)Cn2ccnc2O1

>  <smiles>  (212) 
[H]c1nc([H])n(C([H])([H])C2([H])C([H])([H])C([H])([H])C3([H])N(C([H])([H])C4(C([H])([H])[H])Oc5n(c([H])c([H])[n+]5[H])C4([H])[H])C2([H])C([H])([H])C3([H])[H])n1

$$$$
59:1:2
     RDKit          3D

 49 53  0  0  1  0  0  0  0  0999 V2000
   -0.1965   -7.6508    1.7829 C   0  0  0  0  0  0  0  0  0  0  0  0
    0.8241   -8.2771    2.7536 C   0  0  1  0  0  0  0  0  0  0  0  0
    1.7027   -7.1978    3.4621 C   0  0  0  0  0  0  0  0  0  0  0  0
    0.9287   -6.2289    4.2532 N   0  0  0  0  0  0  0  0  0  0  0  0
    0.7470   -6.6277    5.6605 C   0  0  2  0  0  0  0  0  0  0  0  0
   -0.4439   -5.8229    6.1940 C   0  0  0  0  0  0  0  0  0  0  0  0
   -0.1417   -4.3318    6.1926 C   0  0  0  0  0  0  0  0  0  0  0  0
    0.5751   -3.9001    4.8833 C   0  0  1  0  0  0  0  0  0  0  0  0
    1.1898   -2.4921    5.0298 C   0  0  0  0  0  0  0  0  0  0  0  0
    0.2041   -1.4469    4.8303 N   0  0  0  0  0  0  0  0  0  0  0  0
    0.2021   -0.4332    3.9650 C   0  0  0  0  0  0  0  0  0  0  0  0
   -0.8934    0.3152    4.0294 N   0  0  0  0  0  0  0  0  0  0  0  0
   -1.5604   -0.3338    5.0293 C   0  0  0  0  0  0  0  0  0  0  0  0
   -0.9318   -1.3757    5.5697 N   0  0  0  0  0  0  0  0  0  0  0  0
    1.6320   -4.9488    4.4320 C   0  0  1  0  0  0  0  0  0  0  0  0
    2.6838   -5.2186    5.5276 C   0  0  0  0  0  0  0  0  0  0  0  0
    2.0748   -6.3411    6.3469 C   0  0  0  0  0  0  0  0  0  0  0  0
    0.1413   -9.3074    3.7296 C   0  0  0  0  0  0  0  0  0  0  0  0
    1.1980  -10.2673    3.8611 N   0  0  0  0  0  0  0  0  0  0  0  0
    1.6330  -11.2463    4.7046 C   0  0  0  0  0  0  0  0  0  0  0  0
    2.7289  -11.8061    4.0618 C   0  0  0  0  0  0  0  0  0  0  0  0
    2.9251  -11.1018    2.8786 N   0  0  0  0  0  0  0  0  0  0  0  0
    2.0078  -10.1520    2.8519 C   0  0  0  0  0  0  0  0  0  0  0  0
    1.7823   -9.0831    2.0279 O   0  0  0  0  0  0  0  0  0  0  0  0
   -0.8965   -7.0062    2.3158 H   0  0  0  0  0  0  0  0  0  0  0  0
   -0.8032   -8.4122    1.2930 H   0  0  0  0  0  0  0  0  0  0  0  0
    0.2814   -7.0563    1.0025 H   0  0  0  0  0  0  0  0  0  0  0  0
    2.4648   -7.6688    4.0765 H   0  0  0  0  0  0  0  0  0  0  0  0
    2.2606   -6.6629    2.6868 H   0  0  0  0  0  0  0  0  0  0  0  0
    0.5415   -7.6659    5.8742 H   0  0  0  0  0  0  0  0  0  0  0  0
   -1.3330   -6.0211    5.5941 H   0  0  0  0  0  0  0  0  0  0  0  0
   -0.6729   -6.1410    7.2072 H   0  0  0  0  0  0  0  0  0  0  0  0
   -1.0711   -3.7882    6.3636 H   0  0  0  0  0  0  0  0  0  0  0  0
    0.5022   -4.1121    7.0460 H   0  0  0  0  0  0  0  0  0  0  0  0
   -0.1682   -3.8605    4.0849 H   0  0  0  0  0  0  0  0  0  0  0  0
    1.6471   -2.3643    6.0122 H   0  0  0  0  0  0  0  0  0  0  0  0
    1.9936   -2.3558    4.3023 H   0  0  0  0  0  0  0  0  0  0  0  0
    1.0102   -0.2586    3.2676 H   0  0  0  0  0  0  0  0  0  0  0  0
   -2.5353   -0.0371    5.3761 H   0  0  0  0  0  0  0  0  0  0  0  0
    2.0992   -4.6044    3.5068 H   0  0  0  0  0  0  0  0  0  0  0  0
    3.6310   -5.5356    5.0843 H   0  0  0  0  0  0  0  0  0  0  0  0
    2.8849   -4.3498    6.1575 H   0  0  0  0  0  0  0  0  0  0  0  0
    1.9390   -6.1074    7.3998 H   0  0  0  0  0  0  0  0  0  0  0  0
    2.7032   -7.2298    6.2865 H   0  0  0  0  0  0  0  0  0  0  0  0
   -0.2228   -8.9704    4.6974 H   0  0  0  0  0  0  0  0  0  0  0  0
   -0.6974   -9.8210    3.2467 H   0  0  0  0  0  0  0  0  0  0  0  0
    1.1743  -11.4689    5.6656 H   0  0  0  0  0  0  0  0  0  0  0  0
    3.3562  -12.6347    4.3629 H   0  0  0  0  0  0  0  0  0  0  0  0
    3.6005  -11.3163    2.1404 H   0  0  0  0  0  0  0  0  0  0  0  0
  2  1  1  6
  1 25  1  0
  1 26  1  0
  1 27  1  0
  2 24  1  0
  2  3  1  0
  2 18  1  0
  3  4  1  0
  3 28  1  0
  3 29  1  0
  4 15  1  0
  4  5  1  0
  5 17  1  0
  5  6  1  0
  5 30  1  6
  6  7  1  0
  6 31  1  0
  6 32  1  0
  7  8  1  0
  7 33  1  0
  7 34  1  0
  8  9  1  0
  8 15  1  0
  8 35  1  6
  9 10  1  0
  9 36  1  0
  9 37  1  0
 10 14  1  0
 10 11  1  0
 11 12  2  0
 11 38  1  0
 12 13  1  0
 13 14  2  0
 13 39  1  0
 15 16  1  0
 15 40  1  6
 16 17  1  0
 16 41  1  0
 16 42  1  0
 17 43  1  0
 17 44  1  0
 18 19  1  0
 18 45  1  0
 18 46  1  0
 19 23  1  0
 19 20  1  0
 20 21  2  0
 20 47  1  0
 21 22  1  0
 21 48  1  0
 22 23  2  0
 22 49  1  0
 23 24  1  0
M  CHG  1  22   1
M  END
>  <i_m_ct_stereo_status>  (213) 
1

>  <s_m_source_file>  (213) 
/var/tmp/pbs.5076255.sched01/tmpar858yha/42b8svm9_t.sdf

>  <i_m_source_file_index>  (213) 
38

>  <i_lp_mmshare_version>  (213) 
48012

>  <i_f3d_flags>  (213) 
0

>  <s_epik_input>  (213) 
W2NIXTFbY0hdbmMobjEyKU9bQ0BAXShbQ0gzXSkoW0NIMl0yKVtDSDJdTihbQ0BIXTM0KVtDQEhdKFtDSDJdW0NIMl00KVtDQEBIXShbQ0gyXVtDSDJdMylbQ0gyXW41W2NIXW5bY0hdbjU=

>  <s_epik_cmdline>  (213) 
J2VwaWtfcHl0aG9uJywgJy1waHQnLCAnMi4wJywgJy1waCcsICc3LjAnLCAnLXRuJywgJzgnLCAnLW1hJywgJzIwMCcsICctaW1hZScsICc8aW5maWxlLm1hZT4nLCAnLW9tYWUnLCAnPG91dGZpbGUubWFlPic=

>  <r_lp_tautomer_probability>  (213) 
1

>  <r_epik_Ionization_Penalty>  (213) 
2.06158

>  <r_epik_Ionization_Penalty_Charging>  (213) 
0

>  <r_epik_Ionization_Penalty_Neutral>  (213) 
2.06158

>  <r_epik_State_Penalty>  (213) 
2.18883

>  <r_epik_Charging_Adjusted_Penalty>  (213) 
2.18883

>  <i_epik_Tot_Q>  (213) 
1

>  <i_epik_Tot_abs_Q>  (213) 
1

>  <s_lp_Force_Field>  (213) 
OPLS3e

>  <r_lp_Energy>  (213) 
37.3209

>  <b_lp_Chiralities_Consistent>  (213) 
1

>  <s_lp_Variant>  (213) 
59:0-2

>  <s_i_glide_gridfile>  (213) 
pfpi4k_grid

>  <i_i_glide_lignum>  (213) 
38

>  <i_i_glide_rotatable_bonds>  (213) 
4

>  <r_i_docking_score>  (213) 
-2.9001

>  <r_i_glide_ligand_efficiency>  (213) 
-0.120838

>  <r_i_glide_ligand_efficiency_sa>  (213) 
-0.348556

>  <r_i_glide_ligand_efficiency_ln>  (213) 
-0.694127

>  <r_i_glide_gscore>  (213) 
-2.9001

>  <r_i_glide_lipo>  (213) 
-0.0172512

>  <r_i_glide_hbond>  (213) 
-0.188336

>  <r_i_glide_metal>  (213) 
-0

>  <r_i_glide_rewards>  (213) 
-1.27016

>  <r_i_glide_evdw>  (213) 
-22.3325

>  <r_i_glide_ecoul>  (213) 
-5.87367

>  <r_i_glide_erotb>  (213) 
0.692778

>  <r_i_glide_esite>  (213) 
-0.11946

>  <r_i_glide_emodel>  (213) 
-33.7394

>  <r_i_glide_energy>  (213) 
-28.2062

>  <r_i_glide_einternal>  (213) 
2.59143

>  <r_i_glide_intrahb_reward>  (213) 
-0

>  <i_i_glide_confnum>  (213) 
6

>  <i_i_glide_posenum>  (213) 
7

>  <r_i_glide_eff_state_penalty>  (213) 
0

>  <ligand_id>  (213) 
59

>  <original_smiles>  (213) 
CC1(CN2C3CCC(Cn4cncn4)C2CC3)Cn2ccnc2O1

>  <smiles>  (213) 
[H]c1nc([H])n(C([H])([H])C2([H])C([H])([H])C([H])([H])C3([H])N(C([H])([H])C4(C([H])([H])[H])Oc5n(c([H])c([H])[n+]5[H])C4([H])[H])C2([H])C([H])([H])C3([H])[H])n1

$$$$
60:0:0
     RDKit          3D

 17 18  0  0  1  0  0  0  0  0999 V2000
    2.2188   -3.0867   -0.7579 O   0  0  0  0  0  0  0  0  0  0  0  0
    3.2560   -2.8574   -1.7036 C   0  0  2  0  0  0  0  0  0  0  0  0
    4.0009   -1.5075   -1.4114 C   0  0  0  0  0  0  0  0  0  0  0  0
    3.8012   -0.8037   -2.6955 C   0  0  0  0  0  0  0  0  0  0  0  0
    4.2140    0.3637   -3.1181 N   0  0  0  0  0  0  0  0  0  0  0  0
    3.7259    0.4930   -4.4173 O   0  0  0  0  0  0  0  0  0  0  0  0
    3.0211   -0.6348   -4.7024 C   0  0  0  0  0  0  0  0  0  0  0  0
    3.0713   -1.4921   -3.6435 C   0  0  0  0  0  0  0  0  0  0  0  0
    2.6534   -2.8298   -3.1633 C   0  0  1  0  0  0  0  0  0  0  0  0
    3.2392   -3.8566   -3.9244 O   0  0  0  0  0  0  0  0  0  0  0  0
    1.6737   -2.2923   -0.7263 H   0  0  0  0  0  0  0  0  0  0  0  0
    3.9521   -3.6849   -1.5822 H   0  0  0  0  0  0  0  0  0  0  0  0
    3.5694   -0.9539   -0.5692 H   0  0  0  0  0  0  0  0  0  0  0  0
    5.0591   -1.6680   -1.1933 H   0  0  0  0  0  0  0  0  0  0  0  0
    2.6145   -0.6439   -5.6767 H   0  0  0  0  0  0  0  0  0  0  0  0
    1.5610   -2.9094   -3.1409 H   0  0  0  0  0  0  0  0  0  0  0  0
    3.0163   -4.7003   -3.5259 H   0  0  0  0  0  0  0  0  0  0  0  0
  1  2  1  0
  1 11  1  0
  2  9  1  0
  2  3  1  0
  2 12  1  6
  3  4  1  0
  3 13  1  0
  3 14  1  0
  4  8  1  0
  4  5  2  0
  5  6  1  0
  6  7  1  0
  7  8  2  0
  7 15  1  0
  8  9  1  0
  9 10  1  0
  9 16  1  1
 10 17  1  0
M  END
>  <i_m_ct_stereo_status>  (214) 
1

>  <s_m_source_file>  (214) 
/var/tmp/pbs.5076255.sched01/tmpar858yha/42b8svm9_t.sdf

>  <i_m_source_file_index>  (214) 
39

>  <i_lp_mmshare_version>  (214) 
48012

>  <i_f3d_flags>  (214) 
0

>  <s_epik_input>  (214) 
W09IXVtDQEhdKFtDSDJdMSlbQ0BIXShbT0hdKWMoYzEyKVtjSF1vbjI=

>  <s_epik_cmdline>  (214) 
J2VwaWtfcHl0aG9uJywgJy1waHQnLCAnMi4wJywgJy1waCcsICc3LjAnLCAnLXRuJywgJzgnLCAnLW1hJywgJzIwMCcsICctaW1hZScsICc8aW5maWxlLm1hZT4nLCAnLW9tYWUnLCAnPG91dGZpbGUubWFlPic=

>  <r_lp_tautomer_probability>  (214) 
1

>  <r_epik_Ionization_Penalty>  (214) 
1.34065e-06

>  <r_epik_Ionization_Penalty_Charging>  (214) 
0

>  <r_epik_Ionization_Penalty_Neutral>  (214) 
1.34065e-06

>  <r_epik_State_Penalty>  (214) 
-0

>  <r_epik_Charging_Adjusted_Penalty>  (214) 
0

>  <i_epik_Tot_Q>  (214) 
0

>  <i_epik_Tot_abs_Q>  (214) 
0

>  <s_lp_Force_Field>  (214) 
OPLS3e

>  <r_lp_Energy>  (214) 
5.16027

>  <b_lp_Chiralities_Consistent>  (214) 
1

>  <s_lp_Variant>  (214) 
60:0-1

>  <s_i_glide_gridfile>  (214) 
pfpi4k_grid

>  <i_i_glide_lignum>  (214) 
39

>  <i_i_glide_rotatable_bonds>  (214) 
2

>  <r_i_docking_score>  (214) 
-4.89348

>  <r_i_glide_ligand_efficiency>  (214) 
-0.489348

>  <r_i_glide_ligand_efficiency_sa>  (214) 
-1.05427

>  <r_i_glide_ligand_efficiency_ln>  (214) 
-1.48171

>  <r_i_glide_gscore>  (214) 
-4.89348

>  <r_i_glide_lipo>  (214) 
-0.513846

>  <r_i_glide_hbond>  (214) 
0

>  <r_i_glide_metal>  (214) 
-0

>  <r_i_glide_rewards>  (214) 
-2.25

>  <r_i_glide_evdw>  (214) 
-8.79657

>  <r_i_glide_ecoul>  (214) 
-11.2183

>  <r_i_glide_erotb>  (214) 
0

>  <r_i_glide_esite>  (214) 
-0.00705871

>  <r_i_glide_emodel>  (214) 
-28.0439

>  <r_i_glide_energy>  (214) 
-20.0148

>  <r_i_glide_einternal>  (214) 
0.0760458

>  <r_i_glide_intrahb_reward>  (214) 
-0

>  <i_i_glide_confnum>  (214) 
1

>  <i_i_glide_posenum>  (214) 
18

>  <r_i_glide_eff_state_penalty>  (214) 
0

>  <ligand_id>  (214) 
60

>  <original_smiles>  (214) 
OC1Cc2nocc2C1O

>  <smiles>  (214) 
[H]OC1([H])c2c(noc2[H])C([H])([H])C1([H])O[H]

$$$$
60:0:1
     RDKit          3D

 17 18  0  0  1  0  0  0  0  0999 V2000
    2.4520   -3.8419   -1.1221 O   0  0  0  0  0  0  0  0  0  0  0  0
    3.6131   -3.3924   -1.8058 C   0  0  2  0  0  0  0  0  0  0  0  0
    4.0187   -1.9713   -1.2969 C   0  0  0  0  0  0  0  0  0  0  0  0
    3.9483   -1.1967   -2.5545 C   0  0  0  0  0  0  0  0  0  0  0  0
    4.2124    0.0554   -2.8057 N   0  0  0  0  0  0  0  0  0  0  0  0
    3.9542    0.1959   -4.1810 O   0  0  0  0  0  0  0  0  0  0  0  0
    3.5983   -1.0175   -4.6883 C   0  0  0  0  0  0  0  0  0  0  0  0
    3.5836   -1.9216   -3.6723 C   0  0  0  0  0  0  0  0  0  0  0  0
    3.3345   -3.3407   -3.3602 C   0  0  1  0  0  0  0  0  0  0  0  0
    4.2275   -4.1917   -4.0353 O   0  0  0  0  0  0  0  0  0  0  0  0
    2.2666   -4.7086   -1.4438 H   0  0  0  0  0  0  0  0  0  0  0  0
    4.4132   -4.0973   -1.5682 H   0  0  0  0  0  0  0  0  0  0  0  0
    3.3318   -1.5667   -0.5562 H   0  0  0  0  0  0  0  0  0  0  0  0
    5.0233   -1.9584   -0.8781 H   0  0  0  0  0  0  0  0  0  0  0  0
    3.4139   -1.0561   -5.7476 H   0  0  0  0  0  0  0  0  0  0  0  0
    2.3104   -3.6275   -3.5888 H   0  0  0  0  0  0  0  0  0  0  0  0
    4.0672   -5.0603   -3.6840 H   0  0  0  0  0  0  0  0  0  0  0  0
  1  2  1  0
  1 11  1  0
  2  9  1  0
  2  3  1  0
  2 12  1  6
  3  4  1  0
  3 13  1  0
  3 14  1  0
  4  8  1  0
  4  5  2  0
  5  6  1  0
  6  7  1  0
  7  8  2  0
  7 15  1  0
  8  9  1  0
  9 10  1  0
  9 16  1  1
 10 17  1  0
M  END
>  <i_m_ct_stereo_status>  (215) 
1

>  <s_m_source_file>  (215) 
/var/tmp/pbs.5076255.sched01/tmpar858yha/42b8svm9_t.sdf

>  <i_m_source_file_index>  (215) 
39

>  <i_lp_mmshare_version>  (215) 
48012

>  <i_f3d_flags>  (215) 
0

>  <s_epik_input>  (215) 
W09IXVtDQEhdKFtDSDJdMSlbQ0BIXShbT0hdKWMoYzEyKVtjSF1vbjI=

>  <s_epik_cmdline>  (215) 
J2VwaWtfcHl0aG9uJywgJy1waHQnLCAnMi4wJywgJy1waCcsICc3LjAnLCAnLXRuJywgJzgnLCAnLW1hJywgJzIwMCcsICctaW1hZScsICc8aW5maWxlLm1hZT4nLCAnLW9tYWUnLCAnPG91dGZpbGUubWFlPic=

>  <r_lp_tautomer_probability>  (215) 
1

>  <r_epik_Ionization_Penalty>  (215) 
1.34065e-06

>  <r_epik_Ionization_Penalty_Charging>  (215) 
0

>  <r_epik_Ionization_Penalty_Neutral>  (215) 
1.34065e-06

>  <r_epik_State_Penalty>  (215) 
-0

>  <r_epik_Charging_Adjusted_Penalty>  (215) 
0

>  <i_epik_Tot_Q>  (215) 
0

>  <i_epik_Tot_abs_Q>  (215) 
0

>  <s_lp_Force_Field>  (215) 
OPLS3e

>  <r_lp_Energy>  (215) 
5.16027

>  <b_lp_Chiralities_Consistent>  (215) 
1

>  <s_lp_Variant>  (215) 
60:0-1

>  <s_i_glide_gridfile>  (215) 
pfpi4k_grid

>  <i_i_glide_lignum>  (215) 
39

>  <i_i_glide_rotatable_bonds>  (215) 
2

>  <r_i_docking_score>  (215) 
-4.28276

>  <r_i_glide_ligand_efficiency>  (215) 
-0.428276

>  <r_i_glide_ligand_efficiency_sa>  (215) 
-0.922693

>  <r_i_glide_ligand_efficiency_ln>  (215) 
-1.29679

>  <r_i_glide_gscore>  (215) 
-4.28276

>  <r_i_glide_lipo>  (215) 
-0.34298

>  <r_i_glide_hbond>  (215) 
0

>  <r_i_glide_metal>  (215) 
-0

>  <r_i_glide_rewards>  (215) 
-2.25

>  <r_i_glide_evdw>  (215) 
-12.5206

>  <r_i_glide_ecoul>  (215) 
-7.09166

>  <r_i_glide_erotb>  (215) 
0

>  <r_i_glide_esite>  (215) 
0

>  <r_i_glide_emodel>  (215) 
-26.5083

>  <r_i_glide_energy>  (215) 
-19.6123

>  <r_i_glide_einternal>  (215) 
0.349388

>  <r_i_glide_intrahb_reward>  (215) 
-0

>  <i_i_glide_confnum>  (215) 
2

>  <i_i_glide_posenum>  (215) 
31

>  <r_i_glide_eff_state_penalty>  (215) 
0

>  <ligand_id>  (215) 
60

>  <original_smiles>  (215) 
OC1Cc2nocc2C1O

>  <smiles>  (215) 
[H]OC1([H])c2c(noc2[H])C([H])([H])C1([H])O[H]

$$$$
60:0:2
     RDKit          3D

 17 18  0  0  1  0  0  0  0  0999 V2000
   -0.7794    0.8821    2.1010 O   0  0  0  0  0  0  0  0  0  0  0  0
   -0.3503    1.7410    3.1444 C   0  0  2  0  0  0  0  0  0  0  0  0
   -0.0963    0.8790    4.4287 C   0  0  0  0  0  0  0  0  0  0  0  0
   -1.0523    1.4767    5.3895 C   0  0  0  0  0  0  0  0  0  0  0  0
   -1.3147    1.1846    6.6453 N   0  0  0  0  0  0  0  0  0  0  0  0
   -2.2928    2.1369    6.9908 O   0  0  0  0  0  0  0  0  0  0  0  0
   -2.5658    2.9379    5.9120 C   0  0  0  0  0  0  0  0  0  0  0  0
   -1.7915    2.5265    4.8718 C   0  0  0  0  0  0  0  0  0  0  0  0
   -1.4694    2.8079    3.4494 C   0  0  1  0  0  0  0  0  0  0  0  0
   -0.9559    4.1122    3.2816 O   0  0  0  0  0  0  0  0  0  0  0  0
   -0.6650    1.3194    1.2658 H   0  0  0  0  0  0  0  0  0  0  0  0
    0.5872    2.2172    2.8353 H   0  0  0  0  0  0  0  0  0  0  0  0
   -0.3085   -0.1818    4.2820 H   0  0  0  0  0  0  0  0  0  0  0  0
    0.9342    0.9683    4.7819 H   0  0  0  0  0  0  0  0  0  0  0  0
   -3.3080    3.7095    6.0386 H   0  0  0  0  0  0  0  0  0  0  0  0
   -2.3391    2.6657    2.8029 H   0  0  0  0  0  0  0  0  0  0  0  0
   -0.5941    4.1649    2.3846 H   0  0  0  0  0  0  0  0  0  0  0  0
  1  2  1  0
  1 11  1  0
  2  9  1  0
  2  3  1  0
  2 12  1  6
  3  4  1  0
  3 13  1  0
  3 14  1  0
  4  8  1  0
  4  5  2  0
  5  6  1  0
  6  7  1  0
  7  8  2  0
  7 15  1  0
  8  9  1  0
  9 10  1  0
  9 16  1  6
 10 17  1  0
M  END
>  <i_m_ct_stereo_status>  (216) 
1

>  <s_m_source_file>  (216) 
/var/tmp/pbs.5076255.sched01/tmpar858yha/42b8svm9_t.sdf

>  <i_m_source_file_index>  (216) 
39

>  <i_lp_mmshare_version>  (216) 
48012

>  <i_f3d_flags>  (216) 
0

>  <s_epik_input>  (216) 
W09IXVtDQEhdKFtDSDJdMSlbQ0BIXShbT0hdKWMoYzEyKVtjSF1vbjI=

>  <s_epik_cmdline>  (216) 
J2VwaWtfcHl0aG9uJywgJy1waHQnLCAnMi4wJywgJy1waCcsICc3LjAnLCAnLXRuJywgJzgnLCAnLW1hJywgJzIwMCcsICctaW1hZScsICc8aW5maWxlLm1hZT4nLCAnLW9tYWUnLCAnPG91dGZpbGUubWFlPic=

>  <r_lp_tautomer_probability>  (216) 
1

>  <r_epik_Ionization_Penalty>  (216) 
1.34065e-06

>  <r_epik_Ionization_Penalty_Charging>  (216) 
0

>  <r_epik_Ionization_Penalty_Neutral>  (216) 
1.34065e-06

>  <r_epik_State_Penalty>  (216) 
-0

>  <r_epik_Charging_Adjusted_Penalty>  (216) 
0

>  <i_epik_Tot_Q>  (216) 
0

>  <i_epik_Tot_abs_Q>  (216) 
0

>  <s_lp_Force_Field>  (216) 
OPLS3e

>  <r_lp_Energy>  (216) 
5.16027

>  <b_lp_Chiralities_Consistent>  (216) 
1

>  <s_lp_Variant>  (216) 
60:0-1

>  <s_i_glide_gridfile>  (216) 
pfpi4k_grid

>  <i_i_glide_lignum>  (216) 
39

>  <i_i_glide_rotatable_bonds>  (216) 
2

>  <r_i_docking_score>  (216) 
-4.01873

>  <r_i_glide_ligand_efficiency>  (216) 
-0.401873

>  <r_i_glide_ligand_efficiency_sa>  (216) 
-0.865809

>  <r_i_glide_ligand_efficiency_ln>  (216) 
-1.21684

>  <r_i_glide_gscore>  (216) 
-4.01873

>  <r_i_glide_lipo>  (216) 
-0.0714114

>  <r_i_glide_hbond>  (216) 
0

>  <r_i_glide_metal>  (216) 
-0

>  <r_i_glide_rewards>  (216) 
-2.25

>  <r_i_glide_evdw>  (216) 
-12.2582

>  <r_i_glide_ecoul>  (216) 
-6.90169

>  <r_i_glide_erotb>  (216) 
0

>  <r_i_glide_esite>  (216) 
-0.0491548

>  <r_i_glide_emodel>  (216) 
-25.482

>  <r_i_glide_energy>  (216) 
-19.1599

>  <r_i_glide_einternal>  (216) 
0.608712

>  <r_i_glide_intrahb_reward>  (216) 
-0

>  <i_i_glide_confnum>  (216) 
1

>  <i_i_glide_posenum>  (216) 
16

>  <r_i_glide_eff_state_penalty>  (216) 
0

>  <ligand_id>  (216) 
60

>  <original_smiles>  (216) 
OC1Cc2nocc2C1O

>  <smiles>  (216) 
[H]OC1([H])c2c(noc2[H])C([H])([H])C1([H])O[H]

$$$$
61:0:0
     RDKit          3D

 47 51  0  0  1  0  0  0  0  0999 V2000
    5.6582   -4.5202    2.8622 C   0  0  0  0  0  0  0  0  0  0  0  0
    6.9273   -5.0376    2.1870 C   0  0  0  0  0  0  0  0  0  0  0  0
    7.6336   -5.9620    3.1809 C   0  0  0  0  0  0  0  0  0  0  0  0
    6.7597   -5.6911    0.7915 C   0  0  1  0  0  0  0  0  0  0  0  0
    5.5102   -5.4787   -0.0646 C   0  0  1  0  0  0  0  0  0  0  0  0
    4.2531   -5.7694    0.5276 O   0  0  0  0  0  0  0  0  0  0  0  0
    3.9872   -7.0007    1.0447 C   0  0  0  0  0  0  0  0  0  0  0  0
    4.8119   -7.8995    1.1863 O   0  0  0  0  0  0  0  0  0  0  0  0
    2.5683   -7.1423    1.4271 C   0  0  0  0  0  0  0  0  0  0  0  0
    1.6000   -6.1991    1.0396 C   0  0  0  0  0  0  0  0  0  0  0  0
    0.2908   -6.3336    1.3299 N   0  0  0  0  0  0  0  0  0  0  0  0
   -0.0303   -7.4340    2.0292 C   0  0  0  0  0  0  0  0  0  0  0  0
    0.7894   -8.3816    2.4804 N   0  0  0  0  0  0  0  0  0  0  0  0
    2.0919   -8.2552    2.1615 C   0  0  0  0  0  0  0  0  0  0  0  0
    5.6677   -4.1042   -0.7209 C   0  0  1  0  0  0  0  0  0  0  0  0
    4.7355   -3.5753   -1.7960 C   0  0  0  0  0  0  0  0  0  0  0  0
    4.6392   -3.1582   -0.4304 O   0  0  0  0  0  0  0  0  0  0  0  0
    7.1083   -3.6024   -0.5161 C   0  0  1  0  0  0  0  0  0  0  0  0
    7.7287   -3.1313   -1.8393 C   0  0  0  0  0  0  0  0  0  0  0  0
    7.4738   -2.7323    0.7202 C   0  0  1  0  0  0  0  0  0  0  0  0
    6.5380   -1.6684    1.2882 C   0  0  0  0  0  0  0  0  0  0  0  0
    6.2365   -0.6895    0.3190 O   0  0  0  0  0  0  0  0  0  0  0  0
    7.8512   -3.9877    1.5270 C   0  0  2  0  0  0  0  0  0  0  0  0
    7.8081   -4.7421    0.2448 C   0  0  1  0  0  0  0  0  0  0  0  0
    9.0108   -5.2821   -0.2097 O   0  0  0  0  0  0  0  0  0  0  0  0
    5.1104   -5.3216    3.3554 H   0  0  0  0  0  0  0  0  0  0  0  0
    4.9870   -4.0733    2.1372 H   0  0  0  0  0  0  0  0  0  0  0  0
    5.8716   -3.7474    3.5932 H   0  0  0  0  0  0  0  0  0  0  0  0
    8.5686   -6.3521    2.7575 H   0  0  0  0  0  0  0  0  0  0  0  0
    7.0036   -6.8160    3.4397 H   0  0  0  0  0  0  0  0  0  0  0  0
    7.8992   -5.4605    4.1116 H   0  0  0  0  0  0  0  0  0  0  0  0
    7.1437   -6.7094    0.7815 H   0  0  0  0  0  0  0  0  0  0  0  0
    5.4932   -6.1514   -0.9112 H   0  0  0  0  0  0  0  0  0  0  0  0
    1.8409   -5.3213    0.4600 H   0  0  0  0  0  0  0  0  0  0  0  0
   -1.0822   -7.5226    2.2885 H   0  0  0  0  0  0  0  0  0  0  0  0
    2.7346   -9.0538    2.4955 H   0  0  0  0  0  0  0  0  0  0  0  0
    5.0853   -2.8038   -2.4856 H   0  0  0  0  0  0  0  0  0  0  0  0
    3.9420   -4.2248   -2.1469 H   0  0  0  0  0  0  0  0  0  0  0  0
    8.8131   -2.9465   -1.7754 H   0  0  0  0  0  0  0  0  0  0  0  0
    7.2740   -2.1978   -2.1488 H   0  0  0  0  0  0  0  0  0  0  0  0
    7.5626   -3.8479   -2.6316 H   0  0  0  0  0  0  0  0  0  0  0  0
    8.4337   -2.2652    0.4845 H   0  0  0  0  0  0  0  0  0  0  0  0
    5.5983   -2.0880    1.6536 H   0  0  0  0  0  0  0  0  0  0  0  0
    6.9854   -1.1473    2.1384 H   0  0  0  0  0  0  0  0  0  0  0  0
    5.5117   -0.1767    0.6488 H   0  0  0  0  0  0  0  0  0  0  0  0
    8.8872   -4.0028    1.8829 H   0  0  0  0  0  0  0  0  0  0  0  0
    9.0036   -6.1973    0.0564 H   0  0  0  0  0  0  0  0  0  0  0  0
  1  2  1  0
  1 26  1  0
  1 27  1  0
  1 28  1  0
  2 23  1  0
  2  3  1  0
  2  4  1  0
  3 29  1  0
  3 30  1  0
  3 31  1  0
  4 24  1  0
  4  5  1  0
  4 32  1  1
  5  6  1  0
  5 15  1  0
  5 33  1  6
  6  7  1  0
  7  8  2  0
  7  9  1  0
  9 14  1  0
  9 10  2  0
 10 11  1  0
 10 34  1  0
 11 12  2  0
 12 13  1  0
 12 35  1  0
 13 14  2  0
 14 36  1  0
 15 17  1  1
 15 16  1  0
 15 18  1  0
 16 17  1  0
 16 37  1  0
 16 38  1  0
 18 24  1  0
 18 19  1  6
 18 20  1  0
 19 39  1  0
 19 40  1  0
 19 41  1  0
 20 21  1  0
 20 23  1  0
 20 42  1  6
 21 22  1  0
 21 43  1  0
 21 44  1  0
 22 45  1  0
 23 24  1  0
 23 46  1  1
 24 25  1  6
 25 47  1  0
M  END
>  <i_m_ct_stereo_status>  (217) 
1

>  <s_m_source_file>  (217) 
/var/tmp/pbs.5076255.sched01/tmpar858yha/42b8svm9_t.sdf

>  <i_m_source_file_index>  (217) 
40

>  <i_lp_mmshare_version>  (217) 
48012

>  <i_f3d_flags>  (217) 
0

>  <s_epik_input>  (217) 
TzFbQ0gyXVtDQEBdMTJbQ0BdMyhbQ0gzXSlbQ0BdNChbT0hdKVtDQEhdKEMoW0NIM10pKFtDSDNdKVtDQEBIXTRbQ0BASF0zW0NIMl1bT0hdKVtDQEhdMk9DKD1PKWM1W2NIXW5bY0hdbltjSF01

>  <s_epik_cmdline>  (217) 
J2VwaWtfcHl0aG9uJywgJy1waHQnLCAnMi4wJywgJy1waCcsICc3LjAnLCAnLXRuJywgJzgnLCAnLW1hJywgJzIwMCcsICctaW1hZScsICc8aW5maWxlLm1hZT4nLCAnLW9tYWUnLCAnPG91dGZpbGUubWFlPic=

>  <r_lp_tautomer_probability>  (217) 
1

>  <r_epik_Ionization_Penalty>  (217) 
4.48433e-07

>  <r_epik_Ionization_Penalty_Charging>  (217) 
0

>  <r_epik_Ionization_Penalty_Neutral>  (217) 
4.48433e-07

>  <r_epik_State_Penalty>  (217) 
-0

>  <r_epik_Charging_Adjusted_Penalty>  (217) 
0

>  <i_epik_Tot_Q>  (217) 
0

>  <i_epik_Tot_abs_Q>  (217) 
0

>  <s_epik_Chemistry_Notes>  (217) 
This compound has an ester and may undergo hydrolysis at high or low pH. This compound contains an electron-poor aromatic ring that is susceptible to covalent hydrolysis at low pH, typically resulting in measured values for nitrogen ring protonation that are around two units higher than predicted values.

>  <s_lp_Force_Field>  (217) 
OPLS3e

>  <r_lp_Energy>  (217) 
46.7517

>  <b_lp_Chiralities_Consistent>  (217) 
1

>  <s_lp_Variant>  (217) 
61:0-1

>  <s_i_glide_gridfile>  (217) 
pfpi4k_grid

>  <i_i_glide_lignum>  (217) 
40

>  <i_i_glide_rotatable_bonds>  (217) 
6

>  <r_i_docking_score>  (217) 
-3.56846

>  <r_i_glide_ligand_efficiency>  (217) 
-0.142738

>  <r_i_glide_ligand_efficiency_sa>  (217) 
-0.41737

>  <r_i_glide_ligand_efficiency_ln>  (217) 
-0.845832

>  <r_i_glide_gscore>  (217) 
-3.56846

>  <r_i_glide_lipo>  (217) 
-0.764864

>  <r_i_glide_hbond>  (217) 
-0.204132

>  <r_i_glide_metal>  (217) 
-0

>  <r_i_glide_rewards>  (217) 
-1.18989

>  <r_i_glide_evdw>  (217) 
-18.9075

>  <r_i_glide_ecoul>  (217) 
-6.82397

>  <r_i_glide_erotb>  (217) 
0.633831

>  <r_i_glide_esite>  (217) 
-0.0744387

>  <r_i_glide_emodel>  (217) 
-29.9493

>  <r_i_glide_energy>  (217) 
-25.7315

>  <r_i_glide_einternal>  (217) 
2.98909

>  <r_i_glide_intrahb_reward>  (217) 
-0

>  <i_i_glide_confnum>  (217) 
5

>  <i_i_glide_posenum>  (217) 
33

>  <r_i_glide_eff_state_penalty>  (217) 
0

>  <ligand_id>  (217) 
61

>  <original_smiles>  (217) 
CC1(C)C2C(OC(=O)c3cncnc3)C3(CO3)C3(C)C(CO)C1C23O

>  <smiles>  (217) 
[H]OC([H])([H])C1([H])C2([H])C3(O[H])C([H])(C([H])(OC(=O)c4c([H])nc([H])nc4[H])C4(OC4([H])[H])C13C([H])([H])[H])C2(C([H])([H])[H])C([H])([H])[H]

$$$$
61:0:1
     RDKit          3D

 47 51  0  0  1  0  0  0  0  0999 V2000
    5.2927   -4.6487    2.8588 C   0  0  0  0  0  0  0  0  0  0  0  0
    5.4870   -4.5769    1.3414 C   0  0  0  0  0  0  0  0  0  0  0  0
    6.3443   -5.7738    0.9831 C   0  0  0  0  0  0  0  0  0  0  0  0
    4.1903   -4.4366    0.4616 C   0  0  1  0  0  0  0  0  0  0  0  0
    2.8545   -3.9408    1.0015 C   0  0  1  0  0  0  0  0  0  0  0  0
    2.3971   -4.6605    2.1495 O   0  0  0  0  0  0  0  0  0  0  0  0
    1.6495   -5.7845    2.0482 C   0  0  0  0  0  0  0  0  0  0  0  0
    1.2405   -6.2376    0.9822 O   0  0  0  0  0  0  0  0  0  0  0  0
    1.3109   -6.3621    3.3710 C   0  0  0  0  0  0  0  0  0  0  0  0
    1.7264   -5.7752    4.5970 C   0  0  0  0  0  0  0  0  0  0  0  0
    1.3994   -6.3137    5.7795 N   0  0  0  0  0  0  0  0  0  0  0  0
    0.6934   -7.4330    5.7650 C   0  0  0  0  0  0  0  0  0  0  0  0
    0.2451   -8.0654    4.7018 N   0  0  0  0  0  0  0  0  0  0  0  0
    0.5596   -7.5646    3.4944 C   0  0  0  0  0  0  0  0  0  0  0  0
    3.0028   -2.4157    1.1738 C   0  0  1  0  0  0  0  0  0  0  0  0
    1.8572   -1.5119    1.6051 C   0  0  0  0  0  0  0  0  0  0  0  0
    2.8485   -1.9162    2.5241 O   0  0  0  0  0  0  0  0  0  0  0  0
    4.2590   -1.9602    0.3883 C   0  0  1  0  0  0  0  0  0  0  0  0
    3.9127   -0.7878   -0.5093 C   0  0  0  0  0  0  0  0  0  0  0  0
    5.6142   -1.8160    1.1631 C   0  0  1  0  0  0  0  0  0  0  0  0
    5.7446   -1.3063    2.5826 C   0  0  0  0  0  0  0  0  0  0  0  0
    4.9747   -0.1423    2.7392 O   0  0  0  0  0  0  0  0  0  0  0  0
    5.9921   -3.2419    0.7460 C   0  0  2  0  0  0  0  0  0  0  0  0
    4.8386   -3.2418   -0.1923 C   0  0  1  0  0  0  0  0  0  0  0  0
    5.0893   -3.3014   -1.5928 O   0  0  0  0  0  0  0  0  0  0  0  0
    5.0162   -5.6473    3.1984 H   0  0  0  0  0  0  0  0  0  0  0  0
    4.5175   -3.9596    3.2089 H   0  0  0  0  0  0  0  0  0  0  0  0
    6.2044   -4.3661    3.3715 H   0  0  0  0  0  0  0  0  0  0  0  0
    6.5386   -5.7916   -0.0951 H   0  0  0  0  0  0  0  0  0  0  0  0
    5.8585   -6.7206    1.2326 H   0  0  0  0  0  0  0  0  0  0  0  0
    7.3112   -5.7404    1.4845 H   0  0  0  0  0  0  0  0  0  0  0  0
    4.1045   -5.2784   -0.2235 H   0  0  0  0  0  0  0  0  0  0  0  0
    2.1061   -4.0495    0.1978 H   0  0  0  0  0  0  0  0  0  0  0  0
    2.2949   -4.8553    4.6267 H   0  0  0  0  0  0  0  0  0  0  0  0
    0.4568   -7.8621    6.7429 H   0  0  0  0  0  0  0  0  0  0  0  0
    0.1849   -8.0995    2.6378 H   0  0  0  0  0  0  0  0  0  0  0  0
    1.8868   -0.4638    1.3227 H   0  0  0  0  0  0  0  0  0  0  0  0
    0.8712   -1.9238    1.7482 H   0  0  0  0  0  0  0  0  0  0  0  0
    4.7191   -0.5541   -1.2099 H   0  0  0  0  0  0  0  0  0  0  0  0
    3.7555    0.1183    0.0783 H   0  0  0  0  0  0  0  0  0  0  0  0
    3.0234   -0.9944   -1.1042 H   0  0  0  0  0  0  0  0  0  0  0  0
    6.2252   -1.1715    0.5239 H   0  0  0  0  0  0  0  0  0  0  0  0
    5.4380   -2.0226    3.3433 H   0  0  0  0  0  0  0  0  0  0  0  0
    6.7711   -1.0199    2.8075 H   0  0  0  0  0  0  0  0  0  0  0  0
    4.0694   -0.3974    2.6587 H   0  0  0  0  0  0  0  0  0  0  0  0
    6.9565   -3.3216    0.2201 H   0  0  0  0  0  0  0  0  0  0  0  0
    4.2843   -3.5571   -1.9952 H   0  0  0  0  0  0  0  0  0  0  0  0
  1  2  1  0
  1 26  1  0
  1 27  1  0
  1 28  1  0
  2 23  1  0
  2  3  1  0
  2  4  1  0
  3 29  1  0
  3 30  1  0
  3 31  1  0
  4 24  1  0
  4  5  1  0
  4 32  1  6
  5  6  1  0
  5 15  1  0
  5 33  1  6
  6  7  1  0
  7  8  2  0
  7  9  1  0
  9 14  1  0
  9 10  2  0
 10 11  1  0
 10 34  1  0
 11 12  2  0
 12 13  1  0
 12 35  1  0
 13 14  2  0
 14 36  1  0
 15 17  1  1
 15 16  1  0
 15 18  1  0
 16 17  1  0
 16 37  1  0
 16 38  1  0
 18 24  1  0
 18 19  1  6
 18 20  1  0
 19 39  1  0
 19 40  1  0
 19 41  1  0
 20 21  1  0
 20 23  1  0
 20 42  1  6
 21 22  1  0
 21 43  1  0
 21 44  1  0
 22 45  1  0
 23 24  1  0
 23 46  1  6
 24 25  1  6
 25 47  1  0
M  END
>  <i_m_ct_stereo_status>  (218) 
1

>  <s_m_source_file>  (218) 
/var/tmp/pbs.5076255.sched01/tmpar858yha/42b8svm9_t.sdf

>  <i_m_source_file_index>  (218) 
40

>  <i_lp_mmshare_version>  (218) 
48012

>  <i_f3d_flags>  (218) 
0

>  <s_epik_input>  (218) 
TzFbQ0gyXVtDQEBdMTJbQ0BdMyhbQ0gzXSlbQ0BdNChbT0hdKVtDQEhdKEMoW0NIM10pKFtDSDNdKVtDQEBIXTRbQ0BASF0zW0NIMl1bT0hdKVtDQEhdMk9DKD1PKWM1W2NIXW5bY0hdbltjSF01

>  <s_epik_cmdline>  (218) 
J2VwaWtfcHl0aG9uJywgJy1waHQnLCAnMi4wJywgJy1waCcsICc3LjAnLCAnLXRuJywgJzgnLCAnLW1hJywgJzIwMCcsICctaW1hZScsICc8aW5maWxlLm1hZT4nLCAnLW9tYWUnLCAnPG91dGZpbGUubWFlPic=

>  <r_lp_tautomer_probability>  (218) 
1

>  <r_epik_Ionization_Penalty>  (218) 
4.48433e-07

>  <r_epik_Ionization_Penalty_Charging>  (218) 
0

>  <r_epik_Ionization_Penalty_Neutral>  (218) 
4.48433e-07

>  <r_epik_State_Penalty>  (218) 
-0

>  <r_epik_Charging_Adjusted_Penalty>  (218) 
0

>  <i_epik_Tot_Q>  (218) 
0

>  <i_epik_Tot_abs_Q>  (218) 
0

>  <s_epik_Chemistry_Notes>  (218) 
This compound has an ester and may undergo hydrolysis at high or low pH. This compound contains an electron-poor aromatic ring that is susceptible to covalent hydrolysis at low pH, typically resulting in measured values for nitrogen ring protonation that are around two units higher than predicted values.

>  <s_lp_Force_Field>  (218) 
OPLS3e

>  <r_lp_Energy>  (218) 
46.7517

>  <b_lp_Chiralities_Consistent>  (218) 
1

>  <s_lp_Variant>  (218) 
61:0-1

>  <s_i_glide_gridfile>  (218) 
pfpi4k_grid

>  <i_i_glide_lignum>  (218) 
40

>  <i_i_glide_rotatable_bonds>  (218) 
6

>  <r_i_docking_score>  (218) 
-3.23331

>  <r_i_glide_ligand_efficiency>  (218) 
-0.129332

>  <r_i_glide_ligand_efficiency_sa>  (218) 
-0.37817

>  <r_i_glide_ligand_efficiency_ln>  (218) 
-0.76639

>  <r_i_glide_gscore>  (218) 
-3.23331

>  <r_i_glide_lipo>  (218) 
-0.512795

>  <r_i_glide_hbond>  (218) 
-0.141509

>  <r_i_glide_metal>  (218) 
-0

>  <r_i_glide_rewards>  (218) 
-1.54742

>  <r_i_glide_evdw>  (218) 
-18.4784

>  <r_i_glide_ecoul>  (218) 
-4.53928

>  <r_i_glide_erotb>  (218) 
0.633831

>  <r_i_glide_esite>  (218) 
-0.0605977

>  <r_i_glide_emodel>  (218) 
-31.9899

>  <r_i_glide_energy>  (218) 
-23.0177

>  <r_i_glide_einternal>  (218) 
2.08877

>  <r_i_glide_intrahb_reward>  (218) 
-0.5

>  <i_i_glide_confnum>  (218) 
5

>  <i_i_glide_posenum>  (218) 
23

>  <r_i_glide_eff_state_penalty>  (218) 
0

>  <ligand_id>  (218) 
61

>  <original_smiles>  (218) 
CC1(C)C2C(OC(=O)c3cncnc3)C3(CO3)C3(C)C(CO)C1C23O

>  <smiles>  (218) 
[H]OC([H])([H])C1([H])C2([H])C3(O[H])C([H])(C([H])(OC(=O)c4c([H])nc([H])nc4[H])C4(OC4([H])[H])C13C([H])([H])[H])C2(C([H])([H])[H])C([H])([H])[H]

$$$$
61:0:2
     RDKit          3D

 47 51  0  0  1  0  0  0  0  0999 V2000
    3.6686   -4.2516    3.2048 C   0  0  0  0  0  0  0  0  0  0  0  0
    5.0279   -4.3204    2.4914 C   0  0  0  0  0  0  0  0  0  0  0  0
    5.9772   -5.0016    3.4779 C   0  0  0  0  0  0  0  0  0  0  0  0
    5.0917   -4.9411    1.0630 C   0  0  1  0  0  0  0  0  0  0  0  0
    3.8511   -5.1273    0.1868 C   0  0  1  0  0  0  0  0  0  0  0  0
    2.7528   -5.8014    0.8167 O   0  0  0  0  0  0  0  0  0  0  0  0
    2.8673   -7.0708    1.2798 C   0  0  0  0  0  0  0  0  0  0  0  0
    3.9026   -7.7305    1.2227 O   0  0  0  0  0  0  0  0  0  0  0  0
    1.6012   -7.5903    1.8655 C   0  0  0  0  0  0  0  0  0  0  0  0
    0.4466   -6.7967    1.9650 C   0  0  0  0  0  0  0  0  0  0  0  0
   -0.7147   -7.2480    2.4823 N   0  0  0  0  0  0  0  0  0  0  0  0
   -0.7129   -8.5178    2.9109 C   0  0  0  0  0  0  0  0  0  0  0  0
    0.3176   -9.3675    2.8782 N   0  0  0  0  0  0  0  0  0  0  0  0
    1.4763   -8.9117    2.3521 C   0  0  0  0  0  0  0  0  0  0  0  0
    3.5206   -3.7258   -0.3558 C   0  0  1  0  0  0  0  0  0  0  0  0
    2.4465   -3.4584   -1.3965 C   0  0  0  0  0  0  0  0  0  0  0  0
    2.2339   -3.1832   -0.0153 O   0  0  0  0  0  0  0  0  0  0  0  0
    4.7282   -2.7942   -0.1204 C   0  0  1  0  0  0  0  0  0  0  0  0
    5.1300   -2.0789   -1.4168 C   0  0  0  0  0  0  0  0  0  0  0  0
    4.7872   -1.9099    1.1575 C   0  0  1  0  0  0  0  0  0  0  0  0
    3.5612   -1.2435    1.7900 C   0  0  0  0  0  0  0  0  0  0  0  0
    3.0128   -0.2825    0.9132 O   0  0  0  0  0  0  0  0  0  0  0  0
    5.5808   -2.9996    1.8965 C   0  0  2  0  0  0  0  0  0  0  0  0
    5.7795   -3.6792    0.5632 C   0  0  1  0  0  0  0  0  0  0  0  0
    7.0773   -3.7482    0.0188 O   0  0  0  0  0  0  0  0  0  0  0  0
    3.3977   -5.2056    3.6698 H   0  0  0  0  0  0  0  0  0  0  0  0
    2.8642   -4.0029    2.5158 H   0  0  0  0  0  0  0  0  0  0  0  0
    3.6770   -3.4840    3.9825 H   0  0  0  0  0  0  0  0  0  0  0  0
    6.9805   -5.0705    3.0533 H   0  0  0  0  0  0  0  0  0  0  0  0
    5.6565   -6.0185    3.7183 H   0  0  0  0  0  0  0  0  0  0  0  0
    6.0535   -4.4406    4.4099 H   0  0  0  0  0  0  0  0  0  0  0  0
    5.7555   -5.8013    1.0379 H   0  0  0  0  0  0  0  0  0  0  0  0
    4.1279   -5.7146   -0.6895 H   0  0  0  0  0  0  0  0  0  0  0  0
    0.4299   -5.7693    1.6355 H   0  0  0  0  0  0  0  0  0  0  0  0
   -1.6454   -8.8824    3.3195 H   0  0  0  0  0  0  0  0  0  0  0  0
    2.2899   -9.6242    2.3255 H   0  0  0  0  0  0  0  0  0  0  0  0
    2.5303   -2.5790   -2.0324 H   0  0  0  0  0  0  0  0  0  0  0  0
    1.8483   -4.2729   -1.7913 H   0  0  0  0  0  0  0  0  0  0  0  0
    6.0929   -1.5720   -1.3256 H   0  0  0  0  0  0  0  0  0  0  0  0
    4.3996   -1.3158   -1.6766 H   0  0  0  0  0  0  0  0  0  0  0  0
    5.2108   -2.7821   -2.2426 H   0  0  0  0  0  0  0  0  0  0  0  0
    5.5307   -1.1355    0.9722 H   0  0  0  0  0  0  0  0  0  0  0  0
    2.7749   -1.9433    2.0584 H   0  0  0  0  0  0  0  0  0  0  0  0
    3.8415   -0.7427    2.7185 H   0  0  0  0  0  0  0  0  0  0  0  0
    2.3882   -0.7064    0.3308 H   0  0  0  0  0  0  0  0  0  0  0  0
    6.5111   -2.6559    2.3402 H   0  0  0  0  0  0  0  0  0  0  0  0
    7.6261   -4.1562    0.6685 H   0  0  0  0  0  0  0  0  0  0  0  0
  1  2  1  0
  1 26  1  0
  1 27  1  0
  1 28  1  0
  2 23  1  0
  2  3  1  0
  2  4  1  0
  3 29  1  0
  3 30  1  0
  3 31  1  0
  4 24  1  0
  4  5  1  0
  4 32  1  1
  5  6  1  0
  5 15  1  0
  5 33  1  6
  6  7  1  0
  7  8  2  0
  7  9  1  0
  9 14  1  0
  9 10  2  0
 10 11  1  0
 10 34  1  0
 11 12  2  0
 12 13  1  0
 12 35  1  0
 13 14  2  0
 14 36  1  0
 15 17  1  1
 15 16  1  0
 15 18  1  0
 16 17  1  0
 16 37  1  0
 16 38  1  0
 18 24  1  0
 18 19  1  6
 18 20  1  0
 19 39  1  0
 19 40  1  0
 19 41  1  0
 20 21  1  0
 20 23  1  0
 20 42  1  6
 21 22  1  0
 21 43  1  0
 21 44  1  0
 22 45  1  0
 23 24  1  0
 23 46  1  1
 24 25  1  6
 25 47  1  0
M  END
>  <i_m_ct_stereo_status>  (219) 
1

>  <s_m_source_file>  (219) 
/var/tmp/pbs.5076255.sched01/tmpar858yha/42b8svm9_t.sdf

>  <i_m_source_file_index>  (219) 
40

>  <i_lp_mmshare_version>  (219) 
48012

>  <i_f3d_flags>  (219) 
0

>  <s_epik_input>  (219) 
TzFbQ0gyXVtDQEBdMTJbQ0BdMyhbQ0gzXSlbQ0BdNChbT0hdKVtDQEhdKEMoW0NIM10pKFtDSDNdKVtDQEBIXTRbQ0BASF0zW0NIMl1bT0hdKVtDQEhdMk9DKD1PKWM1W2NIXW5bY0hdbltjSF01

>  <s_epik_cmdline>  (219) 
J2VwaWtfcHl0aG9uJywgJy1waHQnLCAnMi4wJywgJy1waCcsICc3LjAnLCAnLXRuJywgJzgnLCAnLW1hJywgJzIwMCcsICctaW1hZScsICc8aW5maWxlLm1hZT4nLCAnLW9tYWUnLCAnPG91dGZpbGUubWFlPic=

>  <r_lp_tautomer_probability>  (219) 
1

>  <r_epik_Ionization_Penalty>  (219) 
4.48433e-07

>  <r_epik_Ionization_Penalty_Charging>  (219) 
0

>  <r_epik_Ionization_Penalty_Neutral>  (219) 
4.48433e-07

>  <r_epik_State_Penalty>  (219) 
-0

>  <r_epik_Charging_Adjusted_Penalty>  (219) 
0

>  <i_epik_Tot_Q>  (219) 
0

>  <i_epik_Tot_abs_Q>  (219) 
0

>  <s_epik_Chemistry_Notes>  (219) 
This compound has an ester and may undergo hydrolysis at high or low pH. This compound contains an electron-poor aromatic ring that is susceptible to covalent hydrolysis at low pH, typically resulting in measured values for nitrogen ring protonation that are around two units higher than predicted values.

>  <s_lp_Force_Field>  (219) 
OPLS3e

>  <r_lp_Energy>  (219) 
46.7517

>  <b_lp_Chiralities_Consistent>  (219) 
1

>  <s_lp_Variant>  (219) 
61:0-1

>  <s_i_glide_gridfile>  (219) 
pfpi4k_grid

>  <i_i_glide_lignum>  (219) 
40

>  <i_i_glide_rotatable_bonds>  (219) 
6

>  <r_i_docking_score>  (219) 
-2.74569

>  <r_i_glide_ligand_efficiency>  (219) 
-0.109827

>  <r_i_glide_ligand_efficiency_sa>  (219) 
-0.321137

>  <r_i_glide_ligand_efficiency_ln>  (219) 
-0.65081

>  <r_i_glide_gscore>  (219) 
-2.74569

>  <r_i_glide_lipo>  (219) 
-0.315145

>  <r_i_glide_hbond>  (219) 
-0.113363

>  <r_i_glide_metal>  (219) 
-0

>  <r_i_glide_rewards>  (219) 
-1.08691

>  <r_i_glide_evdw>  (219) 
-23.4573

>  <r_i_glide_ecoul>  (219) 
-4.31175

>  <r_i_glide_erotb>  (219) 
0.633831

>  <r_i_glide_esite>  (219) 
-0.0444705

>  <r_i_glide_emodel>  (219) 
-31.1673

>  <r_i_glide_energy>  (219) 
-27.769

>  <r_i_glide_einternal>  (219) 
1.84431

>  <r_i_glide_intrahb_reward>  (219) 
-0

>  <i_i_glide_confnum>  (219) 
5

>  <i_i_glide_posenum>  (219) 
14

>  <r_i_glide_eff_state_penalty>  (219) 
0

>  <ligand_id>  (219) 
61

>  <original_smiles>  (219) 
CC1(C)C2C(OC(=O)c3cncnc3)C3(CO3)C3(C)C(CO)C1C23O

>  <smiles>  (219) 
[H]OC([H])([H])C1([H])C2([H])C3(O[H])C([H])(C([H])(OC(=O)c4c([H])nc([H])nc4[H])C4(OC4([H])[H])C13C([H])([H])[H])C2(C([H])([H])[H])C([H])([H])[H]

$$$$
62:0:0
     RDKit          3D

 30 33  0  0  1  0  0  0  0  0999 V2000
    4.0531   -1.1082   -3.6212 C   0  0  0  0  0  0  0  0  0  0  0  0
    4.2001   -2.3545   -4.0708 N   0  0  0  0  0  0  0  0  0  0  0  0
    4.3976   -3.3183   -3.1483 C   0  0  0  0  0  0  0  0  0  0  0  0
    4.4357   -3.0136   -1.7743 C   0  0  0  0  0  0  0  0  0  0  0  0
    4.3053   -1.6630   -1.4295 C   0  0  0  0  0  0  0  0  0  0  0  0
    4.1504   -0.6987   -2.3593 N   0  0  0  0  0  0  0  0  0  0  0  0
    4.3173   -1.2877    0.0362 C   0  0  0  0  0  0  0  0  0  0  0  0
    3.5411   -2.3217    0.8815 C   0  0  0  0  0  0  0  0  0  0  0  0
    3.8840   -3.7200    0.5665 N   0  0  0  0  0  0  0  0  0  0  0  0
    3.4195   -4.7513    1.4186 C   0  0  0  0  0  0  0  0  0  0  0  0
    2.5515   -4.4008    2.4086 N   0  0  0  0  0  0  0  0  0  0  0  0
    2.1091   -5.3779    3.2392 C   0  0  0  0  0  0  0  0  0  0  0  0
    2.4073   -6.6962    3.2050 N   0  0  0  0  0  0  0  0  0  0  0  0
    3.2500   -6.9839    2.2189 N   0  0  0  0  0  0  0  0  0  0  0  0
    3.7091   -8.2663    1.9883 C   0  0  0  0  0  0  0  0  0  0  0  0
    4.5516   -8.1466    0.9159 C   0  0  0  0  0  0  0  0  0  0  0  0
    4.6249   -6.8241    0.4806 N   0  0  0  0  0  0  0  0  0  0  0  0
    3.8217   -6.1175    1.2783 C   0  0  0  0  0  0  0  0  0  0  0  0
    4.5430   -4.0715   -0.6981 C   0  0  0  0  0  0  0  0  0  0  0  0
    3.9066   -0.3530   -4.3756 H   0  0  0  0  0  0  0  0  0  0  0  0
    4.5056   -4.3316   -3.5111 H   0  0  0  0  0  0  0  0  0  0  0  0
    5.3635   -1.2786    0.3436 H   0  0  0  0  0  0  0  0  0  0  0  0
    3.9236   -0.2772    0.1836 H   0  0  0  0  0  0  0  0  0  0  0  0
    3.7309   -2.1267    1.9378 H   0  0  0  0  0  0  0  0  0  0  0  0
    2.4731   -2.1864    0.7111 H   0  0  0  0  0  0  0  0  0  0  0  0
    1.4389   -5.0789    4.0302 H   0  0  0  0  0  0  0  0  0  0  0  0
    3.4017   -9.1048    2.5987 H   0  0  0  0  0  0  0  0  0  0  0  0
    5.1233   -8.9132    0.4165 H   0  0  0  0  0  0  0  0  0  0  0  0
    4.1571   -5.0001   -1.1146 H   0  0  0  0  0  0  0  0  0  0  0  0
    5.5990   -4.2362   -0.4910 H   0  0  0  0  0  0  0  0  0  0  0  0
  1  6  2  0
  1  2  1  0
  1 20  1  0
  2  3  2  0
  3  4  1  0
  3 21  1  0
  4 19  1  0
  4  5  2  0
  5  6  1  0
  5  7  1  0
  7  8  1  0
  7 22  1  0
  7 23  1  0
  8  9  1  0
  8 24  1  0
  8 25  1  0
  9 10  1  0
  9 19  1  0
 10 18  1  0
 10 11  2  0
 11 12  1  0
 12 13  2  0
 12 26  1  0
 13 14  1  0
 14 18  1  0
 14 15  1  0
 15 16  2  0
 15 27  1  0
 16 17  1  0
 16 28  1  0
 17 18  2  0
 19 29  1  0
 19 30  1  0
M  END
>  <i_m_ct_stereo_status>  (220) 
1

>  <s_m_source_file>  (220) 
/var/tmp/pbs.5076255.sched01/tmpar858yha/42b8svm9_t.sdf

>  <i_m_source_file_index>  (220) 
41

>  <i_lp_mmshare_version>  (220) 
48012

>  <i_f3d_flags>  (220) 
0

>  <s_epik_input>  (220) 
W2NIXTFuW2NIXW5jKGMxMilbQ0gyXVtDSDJdTihbQ0gyXTIpYyhuW2NIXW4zKWMobjM0KW5bY0hdW2NIXTQ=

>  <s_epik_cmdline>  (220) 
J2VwaWtfcHl0aG9uJywgJy1waHQnLCAnMi4wJywgJy1waCcsICc3LjAnLCAnLXRuJywgJzgnLCAnLW1hJywgJzIwMCcsICctaW1hZScsICc8aW5maWxlLm1hZT4nLCAnLW9tYWUnLCAnPG91dGZpbGUubWFlPic=

>  <r_lp_tautomer_probability>  (220) 
1

>  <r_epik_Ionization_Penalty>  (220) 
0.000205964

>  <r_epik_Ionization_Penalty_Charging>  (220) 
1.23579e-05

>  <r_epik_Ionization_Penalty_Neutral>  (220) 
0.000193607

>  <r_epik_State_Penalty>  (220) 
-0

>  <r_epik_Charging_Adjusted_Penalty>  (220) 
1.23579e-05

>  <i_epik_Tot_Q>  (220) 
0

>  <i_epik_Tot_abs_Q>  (220) 
0

>  <s_epik_Chemistry_Notes>  (220) 
This compound contains an electron-poor aromatic ring that is susceptible to covalent hydrolysis at low pH, typically resulting in measured values for nitrogen ring protonation that are around two units higher than predicted values.

>  <s_lp_Force_Field>  (220) 
OPLS3e

>  <r_lp_Energy>  (220) 
25.174

>  <b_lp_Chiralities_Consistent>  (220) 
1

>  <s_lp_Variant>  (220) 
62:0-1

>  <s_i_glide_gridfile>  (220) 
pfpi4k_grid

>  <i_i_glide_lignum>  (220) 
41

>  <i_i_glide_rotatable_bonds>  (220) 
1

>  <r_i_docking_score>  (220) 
-4.02547

>  <r_i_glide_ligand_efficiency>  (220) 
-0.211867

>  <r_i_glide_ligand_efficiency_sa>  (220) 
-0.565346

>  <r_i_glide_ligand_efficiency_ln>  (220) 
-1.02054

>  <r_i_glide_gscore>  (220) 
-4.02547

>  <r_i_glide_lipo>  (220) 
-0.119877

>  <r_i_glide_hbond>  (220) 
-0.292466

>  <r_i_glide_metal>  (220) 
-0

>  <r_i_glide_rewards>  (220) 
-2.11392

>  <r_i_glide_evdw>  (220) 
-25.3276

>  <r_i_glide_ecoul>  (220) 
-3.3616

>  <r_i_glide_erotb>  (220) 
0.27384

>  <r_i_glide_esite>  (220) 
-0.00243156

>  <r_i_glide_emodel>  (220) 
-35.3423

>  <r_i_glide_energy>  (220) 
-28.6892

>  <r_i_glide_einternal>  (220) 
0.00156632

>  <r_i_glide_intrahb_reward>  (220) 
-0

>  <i_i_glide_confnum>  (220) 
2

>  <i_i_glide_posenum>  (220) 
14

>  <r_i_glide_eff_state_penalty>  (220) 
0

>  <ligand_id>  (220) 
62

>  <original_smiles>  (220) 
c1ncc2c(n1)CCN(c1ncnn3ccnc13)C2

>  <smiles>  (220) 
[H]c1nc([H])c2c(n1)C([H])([H])C([H])([H])N(c1nc([H])nn3c([H])c([H])nc13)C2([H])[H]

$$$$
62:0:1
     RDKit          3D

 30 33  0  0  1  0  0  0  0  0999 V2000
    3.9590   -1.0321   -3.9148 C   0  0  0  0  0  0  0  0  0  0  0  0
    3.8150   -2.3019   -4.2882 N   0  0  0  0  0  0  0  0  0  0  0  0
    3.8843   -3.2291   -3.3061 C   0  0  0  0  0  0  0  0  0  0  0  0
    4.1084   -2.8667   -1.9629 C   0  0  0  0  0  0  0  0  0  0  0  0
    4.2946   -1.5008   -1.7145 C   0  0  0  0  0  0  0  0  0  0  0  0
    4.2349   -0.5778   -2.6949 N   0  0  0  0  0  0  0  0  0  0  0  0
    4.5403   -1.0560   -0.2934 C   0  0  0  0  0  0  0  0  0  0  0  0
    3.6524   -1.8424    0.6831 C   0  0  0  0  0  0  0  0  0  0  0  0
    3.6527   -3.2939    0.4648 N   0  0  0  0  0  0  0  0  0  0  0  0
    3.0385   -4.1358    1.4259 C   0  0  0  0  0  0  0  0  0  0  0  0
    3.1430   -5.4817    1.2418 N   0  0  0  0  0  0  0  0  0  0  0  0
    2.5696   -6.2929    2.1674 C   0  0  0  0  0  0  0  0  0  0  0  0
    1.8836   -5.9334    3.2757 N   0  0  0  0  0  0  0  0  0  0  0  0
    1.8040   -4.6145    3.3984 N   0  0  0  0  0  0  0  0  0  0  0  0
    1.1544   -4.0042    4.4537 C   0  0  0  0  0  0  0  0  0  0  0  0
    1.2806   -2.6620    4.2136 C   0  0  0  0  0  0  0  0  0  0  0  0
    1.9960   -2.4260    3.0439 N   0  0  0  0  0  0  0  0  0  0  0  0
    2.3250   -3.6256    2.5557 C   0  0  0  0  0  0  0  0  0  0  0  0
    4.0949   -3.8587   -0.8173 C   0  0  0  0  0  0  0  0  0  0  0  0
    3.9174   -0.3071   -4.7095 H   0  0  0  0  0  0  0  0  0  0  0  0
    3.7368   -4.2519   -3.6007 H   0  0  0  0  0  0  0  0  0  0  0  0
    5.5887   -1.2517   -0.0698 H   0  0  0  0  0  0  0  0  0  0  0  0
    4.3846    0.0228   -0.1860 H   0  0  0  0  0  0  0  0  0  0  0  0
    3.9892   -1.6181    1.6927 H   0  0  0  0  0  0  0  0  0  0  0  0
    2.6296   -1.4811    0.5862 H   0  0  0  0  0  0  0  0  0  0  0  0
    2.6614   -7.3577    2.0148 H   0  0  0  0  0  0  0  0  0  0  0  0
    0.6849   -4.5804    5.2411 H   0  0  0  0  0  0  0  0  0  0  0  0
    0.9144   -1.8266    4.7876 H   0  0  0  0  0  0  0  0  0  0  0  0
    3.4640   -4.6939   -1.1130 H   0  0  0  0  0  0  0  0  0  0  0  0
    5.1070   -4.2409   -0.6843 H   0  0  0  0  0  0  0  0  0  0  0  0
  1  6  2  0
  1  2  1  0
  1 20  1  0
  2  3  2  0
  3  4  1  0
  3 21  1  0
  4 19  1  0
  4  5  2  0
  5  6  1  0
  5  7  1  0
  7  8  1  0
  7 22  1  0
  7 23  1  0
  8  9  1  0
  8 24  1  0
  8 25  1  0
  9 10  1  0
  9 19  1  0
 10 18  1  0
 10 11  2  0
 11 12  1  0
 12 13  2  0
 12 26  1  0
 13 14  1  0
 14 18  1  0
 14 15  1  0
 15 16  2  0
 15 27  1  0
 16 17  1  0
 16 28  1  0
 17 18  2  0
 19 29  1  0
 19 30  1  0
M  END
>  <i_m_ct_stereo_status>  (221) 
1

>  <s_m_source_file>  (221) 
/var/tmp/pbs.5076255.sched01/tmpar858yha/42b8svm9_t.sdf

>  <i_m_source_file_index>  (221) 
41

>  <i_lp_mmshare_version>  (221) 
48012

>  <i_f3d_flags>  (221) 
0

>  <s_epik_input>  (221) 
W2NIXTFuW2NIXW5jKGMxMilbQ0gyXVtDSDJdTihbQ0gyXTIpYyhuW2NIXW4zKWMobjM0KW5bY0hdW2NIXTQ=

>  <s_epik_cmdline>  (221) 
J2VwaWtfcHl0aG9uJywgJy1waHQnLCAnMi4wJywgJy1waCcsICc3LjAnLCAnLXRuJywgJzgnLCAnLW1hJywgJzIwMCcsICctaW1hZScsICc8aW5maWxlLm1hZT4nLCAnLW9tYWUnLCAnPG91dGZpbGUubWFlPic=

>  <r_lp_tautomer_probability>  (221) 
1

>  <r_epik_Ionization_Penalty>  (221) 
0.000205964

>  <r_epik_Ionization_Penalty_Charging>  (221) 
1.23579e-05

>  <r_epik_Ionization_Penalty_Neutral>  (221) 
0.000193607

>  <r_epik_State_Penalty>  (221) 
-0

>  <r_epik_Charging_Adjusted_Penalty>  (221) 
1.23579e-05

>  <i_epik_Tot_Q>  (221) 
0

>  <i_epik_Tot_abs_Q>  (221) 
0

>  <s_epik_Chemistry_Notes>  (221) 
This compound contains an electron-poor aromatic ring that is susceptible to covalent hydrolysis at low pH, typically resulting in measured values for nitrogen ring protonation that are around two units higher than predicted values.

>  <s_lp_Force_Field>  (221) 
OPLS3e

>  <r_lp_Energy>  (221) 
25.174

>  <b_lp_Chiralities_Consistent>  (221) 
1

>  <s_lp_Variant>  (221) 
62:0-1

>  <s_i_glide_gridfile>  (221) 
pfpi4k_grid

>  <i_i_glide_lignum>  (221) 
41

>  <i_i_glide_rotatable_bonds>  (221) 
1

>  <r_i_docking_score>  (221) 
-3.76774

>  <r_i_glide_ligand_efficiency>  (221) 
-0.198302

>  <r_i_glide_ligand_efficiency_sa>  (221) 
-0.52915

>  <r_i_glide_ligand_efficiency_ln>  (221) 
-0.955204

>  <r_i_glide_gscore>  (221) 
-3.76774

>  <r_i_glide_lipo>  (221) 
-0.143747

>  <r_i_glide_hbond>  (221) 
-0.32

>  <r_i_glide_metal>  (221) 
-0

>  <r_i_glide_rewards>  (221) 
-1.88994

>  <r_i_glide_evdw>  (221) 
-23.7712

>  <r_i_glide_ecoul>  (221) 
-3.20289

>  <r_i_glide_erotb>  (221) 
0.27384

>  <r_i_glide_esite>  (221) 
-0.0189004

>  <r_i_glide_emodel>  (221) 
-33.2849

>  <r_i_glide_energy>  (221) 
-26.9741

>  <r_i_glide_einternal>  (221) 
0.0303209

>  <r_i_glide_intrahb_reward>  (221) 
-0

>  <i_i_glide_confnum>  (221) 
4

>  <i_i_glide_posenum>  (221) 
10

>  <r_i_glide_eff_state_penalty>  (221) 
0

>  <ligand_id>  (221) 
62

>  <original_smiles>  (221) 
c1ncc2c(n1)CCN(c1ncnn3ccnc13)C2

>  <smiles>  (221) 
[H]c1nc([H])c2c(n1)C([H])([H])C([H])([H])N(c1nc([H])nn3c([H])c([H])nc13)C2([H])[H]

$$$$
62:0:2
     RDKit          3D

 30 33  0  0  1  0  0  0  0  0999 V2000
   -1.5173    1.3260    4.1786 C   0  0  0  0  0  0  0  0  0  0  0  0
   -0.9045    2.3333    3.5634 N   0  0  0  0  0  0  0  0  0  0  0  0
    0.3605    2.1145    3.1420 C   0  0  0  0  0  0  0  0  0  0  0  0
    0.9977    0.8769    3.3637 C   0  0  0  0  0  0  0  0  0  0  0  0
    0.2551   -0.0915    4.0595 C   0  0  0  0  0  0  0  0  0  0  0  0
   -1.0126    0.1242    4.4699 N   0  0  0  0  0  0  0  0  0  0  0  0
    0.8918   -1.4368    4.3258 C   0  0  0  0  0  0  0  0  0  0  0  0
    1.7154   -1.8948    3.1110 C   0  0  0  0  0  0  0  0  0  0  0  0
    2.6021   -0.8640    2.5588 N   0  0  0  0  0  0  0  0  0  0  0  0
    3.5441   -1.2297    1.5688 C   0  0  0  0  0  0  0  0  0  0  0  0
    4.5068   -0.3203    1.2594 N   0  0  0  0  0  0  0  0  0  0  0  0
    5.4294   -0.6747    0.3324 C   0  0  0  0  0  0  0  0  0  0  0  0
    5.5317   -1.8430   -0.3450 N   0  0  0  0  0  0  0  0  0  0  0  0
    4.5659   -2.6877   -0.0050 N   0  0  0  0  0  0  0  0  0  0  0  0
    4.4561   -3.9529   -0.5504 C   0  0  0  0  0  0  0  0  0  0  0  0
    3.3531   -4.4977    0.0482 C   0  0  0  0  0  0  0  0  0  0  0  0
    2.7776   -3.6110    0.9538 N   0  0  0  0  0  0  0  0  0  0  0  0
    3.5289   -2.5054    0.9191 C   0  0  0  0  0  0  0  0  0  0  0  0
    2.3890    0.5611    2.8469 C   0  0  0  0  0  0  0  0  0  0  0  0
   -2.5348    1.5158    4.4775 H   0  0  0  0  0  0  0  0  0  0  0  0
    0.8605    2.9176    2.6191 H   0  0  0  0  0  0  0  0  0  0  0  0
    1.5500   -1.3152    5.1857 H   0  0  0  0  0  0  0  0  0  0  0  0
    0.1356   -2.1804    4.5986 H   0  0  0  0  0  0  0  0  0  0  0  0
    2.2963   -2.7713    3.3948 H   0  0  0  0  0  0  0  0  0  0  0  0
    1.0246   -2.2029    2.3293 H   0  0  0  0  0  0  0  0  0  0  0  0
    6.1831    0.0582    0.0943 H   0  0  0  0  0  0  0  0  0  0  0  0
    5.1484   -4.3230   -1.2976 H   0  0  0  0  0  0  0  0  0  0  0  0
    2.9066   -5.4670   -0.1089 H   0  0  0  0  0  0  0  0  0  0  0  0
    2.5884    1.1904    1.9747 H   0  0  0  0  0  0  0  0  0  0  0  0
    3.1039    0.8455    3.6172 H   0  0  0  0  0  0  0  0  0  0  0  0
  1  6  2  0
  1  2  1  0
  1 20  1  0
  2  3  2  0
  3  4  1  0
  3 21  1  0
  4 19  1  0
  4  5  2  0
  5  6  1  0
  5  7  1  0
  7  8  1  0
  7 22  1  0
  7 23  1  0
  8  9  1  0
  8 24  1  0
  8 25  1  0
  9 10  1  0
  9 19  1  0
 10 18  1  0
 10 11  2  0
 11 12  1  0
 12 13  2  0
 12 26  1  0
 13 14  1  0
 14 18  1  0
 14 15  1  0
 15 16  2  0
 15 27  1  0
 16 17  1  0
 16 28  1  0
 17 18  2  0
 19 29  1  0
 19 30  1  0
M  END
>  <i_m_ct_stereo_status>  (222) 
1

>  <s_m_source_file>  (222) 
/var/tmp/pbs.5076255.sched01/tmpar858yha/42b8svm9_t.sdf

>  <i_m_source_file_index>  (222) 
41

>  <i_lp_mmshare_version>  (222) 
48012

>  <i_f3d_flags>  (222) 
0

>  <s_epik_input>  (222) 
W2NIXTFuW2NIXW5jKGMxMilbQ0gyXVtDSDJdTihbQ0gyXTIpYyhuW2NIXW4zKWMobjM0KW5bY0hdW2NIXTQ=

>  <s_epik_cmdline>  (222) 
J2VwaWtfcHl0aG9uJywgJy1waHQnLCAnMi4wJywgJy1waCcsICc3LjAnLCAnLXRuJywgJzgnLCAnLW1hJywgJzIwMCcsICctaW1hZScsICc8aW5maWxlLm1hZT4nLCAnLW9tYWUnLCAnPG91dGZpbGUubWFlPic=

>  <r_lp_tautomer_probability>  (222) 
1

>  <r_epik_Ionization_Penalty>  (222) 
0.000205964

>  <r_epik_Ionization_Penalty_Charging>  (222) 
1.23579e-05

>  <r_epik_Ionization_Penalty_Neutral>  (222) 
0.000193607

>  <r_epik_State_Penalty>  (222) 
-0

>  <r_epik_Charging_Adjusted_Penalty>  (222) 
1.23579e-05

>  <i_epik_Tot_Q>  (222) 
0

>  <i_epik_Tot_abs_Q>  (222) 
0

>  <s_epik_Chemistry_Notes>  (222) 
This compound contains an electron-poor aromatic ring that is susceptible to covalent hydrolysis at low pH, typically resulting in measured values for nitrogen ring protonation that are around two units higher than predicted values.

>  <s_lp_Force_Field>  (222) 
OPLS3e

>  <r_lp_Energy>  (222) 
25.174

>  <b_lp_Chiralities_Consistent>  (222) 
1

>  <s_lp_Variant>  (222) 
62:0-1

>  <s_i_glide_gridfile>  (222) 
pfpi4k_grid

>  <i_i_glide_lignum>  (222) 
41

>  <i_i_glide_rotatable_bonds>  (222) 
1

>  <r_i_docking_score>  (222) 
-3.14769

>  <r_i_glide_ligand_efficiency>  (222) 
-0.165668

>  <r_i_glide_ligand_efficiency_sa>  (222) 
-0.442068

>  <r_i_glide_ligand_efficiency_ln>  (222) 
-0.798007

>  <r_i_glide_gscore>  (222) 
-3.14769

>  <r_i_glide_lipo>  (222) 
0

>  <r_i_glide_hbond>  (222) 
0

>  <r_i_glide_metal>  (222) 
-0

>  <r_i_glide_rewards>  (222) 
-1.85408

>  <r_i_glide_evdw>  (222) 
-22.1745

>  <r_i_glide_ecoul>  (222) 
-2.66698

>  <r_i_glide_erotb>  (222) 
0.27384

>  <r_i_glide_esite>  (222) 
-0.058675

>  <r_i_glide_emodel>  (222) 
-30.0549

>  <r_i_glide_energy>  (222) 
-24.8415

>  <r_i_glide_einternal>  (222) 
0.129018

>  <r_i_glide_intrahb_reward>  (222) 
-0

>  <i_i_glide_confnum>  (222) 
4

>  <i_i_glide_posenum>  (222) 
4

>  <r_i_glide_eff_state_penalty>  (222) 
0

>  <ligand_id>  (222) 
62

>  <original_smiles>  (222) 
c1ncc2c(n1)CCN(c1ncnn3ccnc13)C2

>  <smiles>  (222) 
[H]c1nc([H])c2c(n1)C([H])([H])C([H])([H])N(c1nc([H])nn3c([H])c([H])nc13)C2([H])[H]

$$$$
63:0:0
     RDKit          3D

 57 60  0  0  1  0  0  0  0  0999 V2000
    4.5914   -1.1789   -2.7526 C   0  0  0  0  0  0  0  0  0  0  0  0
    4.3969   -1.5648   -1.2648 C   0  0  2  0  0  0  0  0  0  0  0  0
    5.6342   -1.1040   -0.4845 C   0  0  0  0  0  0  0  0  0  0  0  0
    5.5919   -1.0158    1.0496 C   0  0  0  0  0  0  0  0  0  0  0  0
    4.9255   -2.1238    1.9158 C   0  0  2  0  0  0  0  0  0  0  0  0
    4.9392   -1.5274    3.3405 C   0  0  0  0  0  0  0  0  0  0  0  0
    5.7848   -3.2558    2.1219 O   0  0  0  0  0  0  0  0  0  0  0  0
    5.7308   -4.5050    1.4293 C   0  0  1  0  0  0  0  0  0  0  0  0
    6.6989   -5.4409    2.1908 C   0  0  0  0  0  0  0  0  0  0  0  0
    6.2861   -6.8883    1.8584 C   0  0  0  0  0  0  0  0  0  0  0  0
    4.8702   -6.7822    1.2624 C   0  0  1  0  0  0  0  0  0  0  0  0
    3.9674   -7.9726    1.6837 C   0  0  0  0  0  0  0  0  0  0  0  0
    4.4095   -5.3305    1.5967 C   0  0  1  0  0  0  0  0  0  0  0  0
    3.8795   -5.3351    3.0589 C   0  0  0  0  0  0  0  0  0  0  0  0
    3.2823   -4.8401    0.6680 C   0  0  0  0  0  0  0  0  0  0  0  0
    2.3923   -5.6109    0.3174 O   0  0  0  0  0  0  0  0  0  0  0  0
    3.2466   -3.3544    0.2323 C   0  0  1  0  0  0  0  0  0  0  0  0
    1.9483   -3.0722   -0.2042 O   0  0  0  0  0  0  0  0  0  0  0  0
    3.4691   -2.3718    1.4285 C   0  0  1  0  0  0  0  0  0  0  0  0
    2.5606   -2.6062    2.4973 O   0  0  0  0  0  0  0  0  0  0  0  0
    4.1224   -3.0780   -1.0416 C   0  0  1  0  0  0  0  0  0  0  0  0
    3.3887   -3.4537   -2.2079 O   0  0  0  0  0  0  0  0  0  0  0  0
    5.3534   -4.0030   -1.1960 C   0  0  0  0  0  0  0  0  0  0  0  0
    6.3097   -4.3368   -0.0135 C   0  0  1  0  0  0  0  0  0  0  0  0
    7.6800   -3.6241   -0.0841 C   0  0  0  0  0  0  0  0  0  0  0  0
    5.3898   -1.7637   -3.2035 H   0  0  0  0  0  0  0  0  0  0  0  0
    4.8164   -0.1196   -2.8519 H   0  0  0  0  0  0  0  0  0  0  0  0
    3.6928   -1.3349   -3.3513 H   0  0  0  0  0  0  0  0  0  0  0  0
    3.5335   -0.9812   -0.9605 H   0  0  0  0  0  0  0  0  0  0  0  0
    6.5196   -1.5936   -0.8661 H   0  0  0  0  0  0  0  0  0  0  0  0
    5.8067   -0.0861   -0.7886 H   0  0  0  0  0  0  0  0  0  0  0  0
    6.6162   -0.8750    1.3885 H   0  0  0  0  0  0  0  0  0  0  0  0
    5.0933   -0.0725    1.2790 H   0  0  0  0  0  0  0  0  0  0  0  0
    4.3371   -0.6279    3.4234 H   0  0  0  0  0  0  0  0  0  0  0  0
    5.9528   -1.2445    3.6152 H   0  0  0  0  0  0  0  0  0  0  0  0
    4.6081   -2.2479    4.0882 H   0  0  0  0  0  0  0  0  0  0  0  0
    7.7532   -5.2679    2.0072 H   0  0  0  0  0  0  0  0  0  0  0  0
    6.5730   -5.2927    3.2656 H   0  0  0  0  0  0  0  0  0  0  0  0
    6.9739   -7.3371    1.1440 H   0  0  0  0  0  0  0  0  0  0  0  0
    6.3121   -7.4955    2.7595 H   0  0  0  0  0  0  0  0  0  0  0  0
    4.9711   -6.8598    0.1824 H   0  0  0  0  0  0  0  0  0  0  0  0
    3.8526   -8.0478    2.7646 H   0  0  0  0  0  0  0  0  0  0  0  0
    4.4012   -8.9161    1.3510 H   0  0  0  0  0  0  0  0  0  0  0  0
    2.9711   -7.9091    1.2517 H   0  0  0  0  0  0  0  0  0  0  0  0
    4.4187   -6.0220    3.7072 H   0  0  0  0  0  0  0  0  0  0  0  0
    2.8273   -5.6349    3.1051 H   0  0  0  0  0  0  0  0  0  0  0  0
    3.9518   -4.3632    3.5382 H   0  0  0  0  0  0  0  0  0  0  0  0
    1.7897   -2.1355   -0.3921 H   0  0  0  0  0  0  0  0  0  0  0  0
    3.1091   -1.3923    1.1151 H   0  0  0  0  0  0  0  0  0  0  0  0
    2.6245   -1.8802    3.0997 H   0  0  0  0  0  0  0  0  0  0  0  0
    3.1498   -4.3817   -2.1664 H   0  0  0  0  0  0  0  0  0  0  0  0
    4.9732   -4.9776   -1.5229 H   0  0  0  0  0  0  0  0  0  0  0  0
    5.9343   -3.6787   -2.0591 H   0  0  0  0  0  0  0  0  0  0  0  0
    6.5948   -5.3475   -0.2975 H   0  0  0  0  0  0  0  0  0  0  0  0
    7.7318   -2.7312    0.5338 H   0  0  0  0  0  0  0  0  0  0  0  0
    7.9405   -3.3473   -1.1097 H   0  0  0  0  0  0  0  0  0  0  0  0
    8.4863   -4.2737    0.2441 H   0  0  0  0  0  0  0  0  0  0  0  0
  1  2  1  0
  1 26  1  0
  1 27  1  0
  1 28  1  0
  2 21  1  0
  2  3  1  0
  2 29  1  1
  3  4  1  0
  3 30  1  0
  3 31  1  0
  4  5  1  0
  4 32  1  0
  4 33  1  0
  5 19  1  0
  5  6  1  1
  5  7  1  0
  6 34  1  0
  6 35  1  0
  6 36  1  0
  8  7  1  1
  8 13  1  0
  8 24  1  0
  8  9  1  0
  9 10  1  0
  9 37  1  0
  9 38  1  0
 10 11  1  0
 10 39  1  0
 10 40  1  0
 11 12  1  0
 11 13  1  0
 11 41  1  6
 12 42  1  0
 12 43  1  0
 12 44  1  0
 13 14  1  1
 13 15  1  0
 14 45  1  0
 14 46  1  0
 14 47  1  0
 15 16  2  0
 15 17  1  0
 17 18  1  6
 17 19  1  0
 17 21  1  0
 18 48  1  0
 19 20  1  0
 19 49  1  6
 20 50  1  0
 21 22  1  6
 21 23  1  0
 22 51  1  0
 23 24  1  0
 23 52  1  0
 23 53  1  0
 24 25  1  0
 24 54  1  6
 25 55  1  0
 25 56  1  0
 25 57  1  0
M  END
>  <i_m_ct_stereo_status>  (223) 
1

>  <s_m_source_file>  (223) 
/var/tmp/pbs.5076255.sched01/tmpar858yha/42b8svm9_t.sdf

>  <i_m_source_file_index>  (223) 
42

>  <i_lp_mmshare_version>  (223) 
48012

>  <i_f3d_flags>  (223) 
0

>  <s_epik_input>  (223) 
W09IXVtDQEhdMVtDQF0oTzIpKFtDSDNdKVtDSDJdW0NIMl1bQ0BASF0oW0NIM10pW0NAQF0oW09IXSkoW0NIMl1bQ0BIXTNbQ0gzXSlbQ0BAXTEoW09IXSlDKD1PKVtDQEBdKFtDQF0yMzQpKFtDSDNdKVtDQEhdKFtDSDNdKVtDSDJdW0NIMl00

>  <s_epik_cmdline>  (223) 
J2VwaWtfcHl0aG9uJywgJy1waHQnLCAnMi4wJywgJy1waCcsICc3LjAnLCAnLXRuJywgJzgnLCAnLW1hJywgJzIwMCcsICctaW1hZScsICc8aW5maWxlLm1hZT4nLCAnLW9tYWUnLCAnPG91dGZpbGUubWFlPic=

>  <r_lp_tautomer_probability>  (223) 
1

>  <r_epik_Ionization_Penalty>  (223) 
1.66155e-07

>  <r_epik_Ionization_Penalty_Charging>  (223) 
0

>  <r_epik_Ionization_Penalty_Neutral>  (223) 
1.66155e-07

>  <r_epik_State_Penalty>  (223) 
-0

>  <r_epik_Charging_Adjusted_Penalty>  (223) 
0

>  <i_epik_Tot_Q>  (223) 
0

>  <i_epik_Tot_abs_Q>  (223) 
0

>  <s_lp_Force_Field>  (223) 
OPLS3e

>  <r_lp_Energy>  (223) 
71.4468

>  <b_lp_Chiralities_Consistent>  (223) 
1

>  <s_lp_Variant>  (223) 
63:0-1

>  <s_i_glide_gridfile>  (223) 
pfpi4k_grid

>  <i_i_glide_lignum>  (223) 
42

>  <i_i_glide_rotatable_bonds>  (223) 
3

>  <r_i_docking_score>  (223) 
-3.9307

>  <r_i_glide_ligand_efficiency>  (223) 
-0.157228

>  <r_i_glide_ligand_efficiency_sa>  (223) 
-0.459738

>  <r_i_glide_ligand_efficiency_ln>  (223) 
-0.931694

>  <r_i_glide_gscore>  (223) 
-3.9307

>  <r_i_glide_lipo>  (223) 
-0.779164

>  <r_i_glide_hbond>  (223) 
0

>  <r_i_glide_metal>  (223) 
-0

>  <r_i_glide_rewards>  (223) 
-1.00592

>  <r_i_glide_evdw>  (223) 
-16.8147

>  <r_i_glide_ecoul>  (223) 
-8.6311

>  <r_i_glide_erotb>  (223) 
0

>  <r_i_glide_esite>  (223) 
-0.0102178

>  <r_i_glide_emodel>  (223) 
-30.7244

>  <r_i_glide_energy>  (223) 
-25.4458

>  <r_i_glide_einternal>  (223) 
0.404998

>  <r_i_glide_intrahb_reward>  (223) 
-0

>  <i_i_glide_confnum>  (223) 
2

>  <i_i_glide_posenum>  (223) 
8

>  <r_i_glide_eff_state_penalty>  (223) 
0

>  <ligand_id>  (223) 
63

>  <original_smiles>  (223) 
CC1CCC2(C)OC34CCC(C)C3(C)C(=O)C(O)(C2O)C1(O)CC4C

>  <smiles>  (223) 
[H]OC1([H])C2(O[H])C(=O)C3(C([H])([H])[H])C([H])(C([H])([H])[H])C([H])([H])C([H])([H])C34OC1(C([H])([H])[H])C([H])([H])C([H])([H])C([H])(C([H])([H])[H])C2(O[H])C([H])([H])C4([H])C([H])([H])[H]

$$$$
63:0:1
     RDKit          3D

 57 60  0  0  1  0  0  0  0  0999 V2000
    3.7299   -1.0434   -3.7740 C   0  0  0  0  0  0  0  0  0  0  0  0
    3.6915   -1.3942   -2.2450 C   0  0  2  0  0  0  0  0  0  0  0  0
    4.7557   -0.5837   -1.5538 C   0  0  0  0  0  0  0  0  0  0  0  0
    4.7492   -0.3729   -0.0115 C   0  0  0  0  0  0  0  0  0  0  0  0
    4.4728   -1.5220    0.9877 C   0  0  2  0  0  0  0  0  0  0  0  0
    4.3541   -0.8098    2.3545 C   0  0  0  0  0  0  0  0  0  0  0  0
    5.6295   -2.3329    1.2322 O   0  0  0  0  0  0  0  0  0  0  0  0
    5.9068   -3.5839    0.6021 C   0  0  1  0  0  0  0  0  0  0  0  0
    7.1184   -4.1463    1.3644 C   0  0  0  0  0  0  0  0  0  0  0  0
    7.1404   -5.6671    1.1697 C   0  0  0  0  0  0  0  0  0  0  0  0
    5.7244   -6.0120    0.6755 C   0  0  1  0  0  0  0  0  0  0  0  0
    5.2190   -7.3675    1.2357 C   0  0  0  0  0  0  0  0  0  0  0  0
    4.8756   -4.7292    0.9265 C   0  0  1  0  0  0  0  0  0  0  0  0
    4.4264   -4.7563    2.4194 C   0  0  0  0  0  0  0  0  0  0  0  0
    3.6017   -4.6592    0.1019 C   0  0  0  0  0  0  0  0  0  0  0  0
    2.8394   -5.6597    0.1035 O   0  0  0  0  0  0  0  0  0  0  0  0
    3.1424   -3.3156   -0.5217 C   0  0  1  0  0  0  0  0  0  0  0  0
    1.8094   -3.4451   -0.8945 O   0  0  0  0  0  0  0  0  0  0  0  0
    3.1401   -2.2116    0.6027 C   0  0  1  0  0  0  0  0  0  0  0  0
    2.3427   -2.5901    1.7207 O   0  0  0  0  0  0  0  0  0  0  0  0
    3.8742   -2.8861   -1.8730 C   0  0  1  0  0  0  0  0  0  0  0  0
    3.1806   -3.4619   -2.9696 O   0  0  0  0  0  0  0  0  0  0  0  0
    5.3169   -3.4432   -2.0465 C   0  0  0  0  0  0  0  0  0  0  0  0
    6.3601   -3.3817   -0.8865 C   0  0  1  0  0  0  0  0  0  0  0  0
    7.4600   -2.3181   -1.0543 C   0  0  0  0  0  0  0  0  0  0  0  0
    4.6467   -1.4034   -4.2318 H   0  0  0  0  0  0  0  0  0  0  0  0
    3.6379    0.0287   -3.9540 H   0  0  0  0  0  0  0  0  0  0  0  0
    2.8971   -1.4836   -4.3236 H   0  0  0  0  0  0  0  0  0  0  0  0
    2.7099   -1.0492   -1.9176 H   0  0  0  0  0  0  0  0  0  0  0  0
    5.7318   -0.8146   -1.9425 H   0  0  0  0  0  0  0  0  0  0  0  0
    4.5830    0.4075   -1.9745 H   0  0  0  0  0  0  0  0  0  0  0  0
    5.6971    0.0919    0.2610 H   0  0  0  0  0  0  0  0  0  0  0  0
    4.0111    0.4105    0.1850 H   0  0  0  0  0  0  0  0  0  0  0  0
    3.5102   -0.1187    2.3942 H   0  0  0  0  0  0  0  0  0  0  0  0
    5.2605   -0.2314    2.5677 H   0  0  0  0  0  0  0  0  0  0  0  0
    4.2400   -1.5190    3.1768 H   0  0  0  0  0  0  0  0  0  0  0  0
    8.0721   -3.6761    1.1493 H   0  0  0  0  0  0  0  0  0  0  0  0
    6.9157   -3.9808    2.4190 H   0  0  0  0  0  0  0  0  0  0  0  0
    7.8952   -5.9734    0.4509 H   0  0  0  0  0  0  0  0  0  0  0  0
    7.3693   -6.1433    2.1222 H   0  0  0  0  0  0  0  0  0  0  0  0
    5.7910   -6.1359   -0.4030 H   0  0  0  0  0  0  0  0  0  0  0  0
    5.1596   -7.3883    2.3258 H   0  0  0  0  0  0  0  0  0  0  0  0
    5.9013   -8.1657    0.9441 H   0  0  0  0  0  0  0  0  0  0  0  0
    4.2441   -7.6352    0.8401 H   0  0  0  0  0  0  0  0  0  0  0  0
    5.1517   -5.2039    3.0833 H   0  0  0  0  0  0  0  0  0  0  0  0
    3.5079   -5.3439    2.5438 H   0  0  0  0  0  0  0  0  0  0  0  0
    4.2202   -3.7669    2.8237 H   0  0  0  0  0  0  0  0  0  0  0  0
    1.4898   -2.5383   -1.1189 H   0  0  0  0  0  0  0  0  0  0  0  0
    2.5614   -1.3722    0.2393 H   0  0  0  0  0  0  0  0  0  0  0  0
    1.4527   -2.3287    1.5571 H   0  0  0  0  0  0  0  0  0  0  0  0
    2.3438   -3.7223   -2.6234 H   0  0  0  0  0  0  0  0  0  0  0  0
    5.1964   -4.5048   -2.2526 H   0  0  0  0  0  0  0  0  0  0  0  0
    5.7525   -3.0390   -2.9536 H   0  0  0  0  0  0  0  0  0  0  0  0
    6.9436   -4.2406   -1.1048 H   0  0  0  0  0  0  0  0  0  0  0  0
    7.2604   -1.4154   -0.4746 H   0  0  0  0  0  0  0  0  0  0  0  0
    7.5966   -2.0682   -2.1123 H   0  0  0  0  0  0  0  0  0  0  0  0
    8.4293   -2.6812   -0.7227 H   0  0  0  0  0  0  0  0  0  0  0  0
  1  2  1  0
  1 26  1  0
  1 27  1  0
  1 28  1  0
  2 21  1  0
  2  3  1  0
  2 29  1  1
  3  4  1  0
  3 30  1  0
  3 31  1  0
  4  5  1  0
  4 32  1  0
  4 33  1  0
  5 19  1  0
  5  6  1  1
  5  7  1  0
  6 34  1  0
  6 35  1  0
  6 36  1  0
  8  7  1  1
  8 13  1  0
  8 24  1  0
  8  9  1  0
  9 10  1  0
  9 37  1  0
  9 38  1  0
 10 11  1  0
 10 39  1  0
 10 40  1  0
 11 12  1  0
 11 13  1  0
 11 41  1  6
 12 42  1  0
 12 43  1  0
 12 44  1  0
 13 14  1  1
 13 15  1  0
 14 45  1  0
 14 46  1  0
 14 47  1  0
 15 16  2  0
 15 17  1  0
 17 18  1  6
 17 19  1  0
 17 21  1  0
 18 48  1  0
 19 20  1  0
 19 49  1  6
 20 50  1  0
 21 22  1  6
 21 23  1  0
 22 51  1  0
 23 24  1  0
 23 52  1  0
 23 53  1  0
 24 25  1  0
 24 54  1  6
 25 55  1  0
 25 56  1  0
 25 57  1  0
M  END
>  <i_m_ct_stereo_status>  (224) 
1

>  <s_m_source_file>  (224) 
/var/tmp/pbs.5076255.sched01/tmpar858yha/42b8svm9_t.sdf

>  <i_m_source_file_index>  (224) 
42

>  <i_lp_mmshare_version>  (224) 
48012

>  <i_f3d_flags>  (224) 
0

>  <s_epik_input>  (224) 
W09IXVtDQEhdMVtDQF0oTzIpKFtDSDNdKVtDSDJdW0NIMl1bQ0BASF0oW0NIM10pW0NAQF0oW09IXSkoW0NIMl1bQ0BIXTNbQ0gzXSlbQ0BAXTEoW09IXSlDKD1PKVtDQEBdKFtDQF0yMzQpKFtDSDNdKVtDQEhdKFtDSDNdKVtDSDJdW0NIMl00

>  <s_epik_cmdline>  (224) 
J2VwaWtfcHl0aG9uJywgJy1waHQnLCAnMi4wJywgJy1waCcsICc3LjAnLCAnLXRuJywgJzgnLCAnLW1hJywgJzIwMCcsICctaW1hZScsICc8aW5maWxlLm1hZT4nLCAnLW9tYWUnLCAnPG91dGZpbGUubWFlPic=

>  <r_lp_tautomer_probability>  (224) 
1

>  <r_epik_Ionization_Penalty>  (224) 
1.66155e-07

>  <r_epik_Ionization_Penalty_Charging>  (224) 
0

>  <r_epik_Ionization_Penalty_Neutral>  (224) 
1.66155e-07

>  <r_epik_State_Penalty>  (224) 
-0

>  <r_epik_Charging_Adjusted_Penalty>  (224) 
0

>  <i_epik_Tot_Q>  (224) 
0

>  <i_epik_Tot_abs_Q>  (224) 
0

>  <s_lp_Force_Field>  (224) 
OPLS3e

>  <r_lp_Energy>  (224) 
71.4468

>  <b_lp_Chiralities_Consistent>  (224) 
1

>  <s_lp_Variant>  (224) 
63:0-1

>  <s_i_glide_gridfile>  (224) 
pfpi4k_grid

>  <i_i_glide_lignum>  (224) 
42

>  <i_i_glide_rotatable_bonds>  (224) 
3

>  <r_i_docking_score>  (224) 
-3.92687

>  <r_i_glide_ligand_efficiency>  (224) 
-0.157075

>  <r_i_glide_ligand_efficiency_sa>  (224) 
-0.45929

>  <r_i_glide_ligand_efficiency_ln>  (224) 
-0.930787

>  <r_i_glide_gscore>  (224) 
-3.92687

>  <r_i_glide_lipo>  (224) 
-1.1068

>  <r_i_glide_hbond>  (224) 
0

>  <r_i_glide_metal>  (224) 
-0

>  <r_i_glide_rewards>  (224) 
-1.00592

>  <r_i_glide_evdw>  (224) 
-16.0398

>  <r_i_glide_ecoul>  (224) 
-6.63739

>  <r_i_glide_erotb>  (224) 
0

>  <r_i_glide_esite>  (224) 
-0.0165531

>  <r_i_glide_emodel>  (224) 
-25.5068

>  <r_i_glide_energy>  (224) 
-22.6772

>  <r_i_glide_einternal>  (224) 
1.39429

>  <r_i_glide_intrahb_reward>  (224) 
-0

>  <i_i_glide_confnum>  (224) 
2

>  <i_i_glide_posenum>  (224) 
29

>  <r_i_glide_eff_state_penalty>  (224) 
0

>  <ligand_id>  (224) 
63

>  <original_smiles>  (224) 
CC1CCC2(C)OC34CCC(C)C3(C)C(=O)C(O)(C2O)C1(O)CC4C

>  <smiles>  (224) 
[H]OC1([H])C2(O[H])C(=O)C3(C([H])([H])[H])C([H])(C([H])([H])[H])C([H])([H])C([H])([H])C34OC1(C([H])([H])[H])C([H])([H])C([H])([H])C([H])(C([H])([H])[H])C2(O[H])C([H])([H])C4([H])C([H])([H])[H]

$$$$
63:0:2
     RDKit          3D

 57 60  0  0  1  0  0  0  0  0999 V2000
    3.2877   -1.1492   -2.6758 C   0  0  0  0  0  0  0  0  0  0  0  0
    3.7016   -1.3636   -1.2004 C   0  0  2  0  0  0  0  0  0  0  0  0
    5.1543   -0.9146   -1.0887 C   0  0  0  0  0  0  0  0  0  0  0  0
    5.7788   -0.6555    0.3044 C   0  0  0  0  0  0  0  0  0  0  0  0
    5.5046   -1.5723    1.5127 C   0  0  2  0  0  0  0  0  0  0  0  0
    6.1270   -0.8180    2.6817 C   0  0  0  0  0  0  0  0  0  0  0  0
    6.3152   -2.7515    1.5221 O   0  0  0  0  0  0  0  0  0  0  0  0
    5.9183   -4.0489    1.0960 C   0  0  1  0  0  0  0  0  0  0  0  0
    7.0888   -4.9930    1.4665 C   0  0  0  0  0  0  0  0  0  0  0  0
    6.5130   -6.4101    1.5764 C   0  0  0  0  0  0  0  0  0  0  0  0
    4.9859   -6.2348    1.6293 C   0  0  1  0  0  0  0  0  0  0  0  0
    4.3103   -7.2760    2.5531 C   0  0  0  0  0  0  0  0  0  0  0  0
    4.7603   -4.7177    1.9205 C   0  0  1  0  0  0  0  0  0  0  0  0
    4.9347   -4.5103    3.4511 C   0  0  0  0  0  0  0  0  0  0  0  0
    3.3690   -4.2146    1.5161 C   0  0  0  0  0  0  0  0  0  0  0  0
    2.3674   -4.9594    1.6127 O   0  0  0  0  0  0  0  0  0  0  0  0
    3.2026   -2.7732    0.9582 C   0  0  1  0  0  0  0  0  0  0  0  0
    1.8907   -2.2605    1.2842 O   0  0  0  0  0  0  0  0  0  0  0  0
    4.0020   -1.7153    1.7608 C   0  0  1  0  0  0  0  0  0  0  0  0
    3.6295   -1.7198    3.1343 O   0  0  0  0  0  0  0  0  0  0  0  0
    3.4495   -2.7657   -0.6072 C   0  0  1  0  0  0  0  0  0  0  0  0
    2.2297   -3.1866   -1.1944 O   0  0  0  0  0  0  0  0  0  0  0  0
    4.4606   -3.8092   -1.1409 C   0  0  0  0  0  0  0  0  0  0  0  0
    5.8217   -4.0678   -0.4510 C   0  0  1  0  0  0  0  0  0  0  0  0
    7.0646   -3.4475   -1.1540 C   0  0  0  0  0  0  0  0  0  0  0  0
    3.8057   -1.8053   -3.3734 H   0  0  0  0  0  0  0  0  0  0  0  0
    3.4667   -0.1188   -2.9921 H   0  0  0  0  0  0  0  0  0  0  0  0
    2.2116   -1.3004   -2.7797 H   0  0  0  0  0  0  0  0  0  0  0  0
    3.0751   -0.7029   -0.6191 H   0  0  0  0  0  0  0  0  0  0  0  0
    5.7773   -1.5062   -1.7477 H   0  0  0  0  0  0  0  0  0  0  0  0
    5.1846    0.0547   -1.6156 H   0  0  0  0  0  0  0  0  0  0  0  0
    6.8554   -0.5679    0.1806 H   0  0  0  0  0  0  0  0  0  0  0  0
    5.4579    0.3513    0.5874 H   0  0  0  0  0  0  0  0  0  0  0  0
    5.6937    0.1602    2.8784 H   0  0  0  0  0  0  0  0  0  0  0  0
    7.1817   -0.6944    2.4810 H   0  0  0  0  0  0  0  0  0  0  0  0
    6.0507   -1.3880    3.5978 H   0  0  0  0  0  0  0  0  0  0  0  0
    7.9688   -4.9494    0.8274 H   0  0  0  0  0  0  0  0  0  0  0  0
    7.4593   -4.7155    2.4413 H   0  0  0  0  0  0  0  0  0  0  0  0
    6.8125   -7.0192    0.7251 H   0  0  0  0  0  0  0  0  0  0  0  0
    6.9081   -6.9054    2.4676 H   0  0  0  0  0  0  0  0  0  0  0  0
    4.6108   -6.4420    0.6265 H   0  0  0  0  0  0  0  0  0  0  0  0
    4.6691   -7.2239    3.5819 H   0  0  0  0  0  0  0  0  0  0  0  0
    4.5223   -8.2901    2.2055 H   0  0  0  0  0  0  0  0  0  0  0  0
    3.2274   -7.1680    2.5748 H   0  0  0  0  0  0  0  0  0  0  0  0
    5.6754   -5.1723    3.8926 H   0  0  0  0  0  0  0  0  0  0  0  0
    3.9987   -4.7016    3.9751 H   0  0  0  0  0  0  0  0  0  0  0  0
    5.2471   -3.5057    3.7098 H   0  0  0  0  0  0  0  0  0  0  0  0
    1.6345   -1.6491    0.5783 H   0  0  0  0  0  0  0  0  0  0  0  0
    3.6007   -0.7377    1.4807 H   0  0  0  0  0  0  0  0  0  0  0  0
    2.6915   -1.6304    3.1472 H   0  0  0  0  0  0  0  0  0  0  0  0
    1.6644   -2.4251   -1.2839 H   0  0  0  0  0  0  0  0  0  0  0  0
    3.9484   -4.7663   -1.0836 H   0  0  0  0  0  0  0  0  0  0  0  0
    4.6213   -3.6689   -2.2085 H   0  0  0  0  0  0  0  0  0  0  0  0
    5.9273   -5.1240   -0.6816 H   0  0  0  0  0  0  0  0  0  0  0  0
    7.3978   -2.4873   -0.7649 H   0  0  0  0  0  0  0  0  0  0  0  0
    6.8999   -3.3431   -2.2260 H   0  0  0  0  0  0  0  0  0  0  0  0
    7.9470   -4.0642   -1.0634 H   0  0  0  0  0  0  0  0  0  0  0  0
  1  2  1  0
  1 26  1  0
  1 27  1  0
  1 28  1  0
  2 21  1  0
  2  3  1  0
  2 29  1  1
  3  4  1  0
  3 30  1  0
  3 31  1  0
  4  5  1  0
  4 32  1  0
  4 33  1  0
  5 19  1  0
  5  6  1  1
  5  7  1  0
  6 34  1  0
  6 35  1  0
  6 36  1  0
  8  7  1  1
  8 13  1  0
  8 24  1  0
  8  9  1  0
  9 10  1  0
  9 37  1  0
  9 38  1  0
 10 11  1  0
 10 39  1  0
 10 40  1  0
 11 12  1  0
 11 13  1  0
 11 41  1  6
 12 42  1  0
 12 43  1  0
 12 44  1  0
 13 14  1  1
 13 15  1  0
 14 45  1  0
 14 46  1  0
 14 47  1  0
 15 16  2  0
 15 17  1  0
 17 18  1  6
 17 19  1  0
 17 21  1  0
 18 48  1  0
 19 20  1  0
 19 49  1  6
 20 50  1  0
 21 22  1  6
 21 23  1  0
 22 51  1  0
 23 24  1  0
 23 52  1  0
 23 53  1  0
 24 25  1  0
 24 54  1  6
 25 55  1  0
 25 56  1  0
 25 57  1  0
M  END
>  <i_m_ct_stereo_status>  (225) 
1

>  <s_m_source_file>  (225) 
/var/tmp/pbs.5076255.sched01/tmpar858yha/42b8svm9_t.sdf

>  <i_m_source_file_index>  (225) 
42

>  <i_lp_mmshare_version>  (225) 
48012

>  <i_f3d_flags>  (225) 
0

>  <s_epik_input>  (225) 
W09IXVtDQEhdMVtDQF0oTzIpKFtDSDNdKVtDSDJdW0NIMl1bQ0BASF0oW0NIM10pW0NAQF0oW09IXSkoW0NIMl1bQ0BIXTNbQ0gzXSlbQ0BAXTEoW09IXSlDKD1PKVtDQEBdKFtDQF0yMzQpKFtDSDNdKVtDQEhdKFtDSDNdKVtDSDJdW0NIMl00

>  <s_epik_cmdline>  (225) 
J2VwaWtfcHl0aG9uJywgJy1waHQnLCAnMi4wJywgJy1waCcsICc3LjAnLCAnLXRuJywgJzgnLCAnLW1hJywgJzIwMCcsICctaW1hZScsICc8aW5maWxlLm1hZT4nLCAnLW9tYWUnLCAnPG91dGZpbGUubWFlPic=

>  <r_lp_tautomer_probability>  (225) 
1

>  <r_epik_Ionization_Penalty>  (225) 
1.66155e-07

>  <r_epik_Ionization_Penalty_Charging>  (225) 
0

>  <r_epik_Ionization_Penalty_Neutral>  (225) 
1.66155e-07

>  <r_epik_State_Penalty>  (225) 
-0

>  <r_epik_Charging_Adjusted_Penalty>  (225) 
0

>  <i_epik_Tot_Q>  (225) 
0

>  <i_epik_Tot_abs_Q>  (225) 
0

>  <s_lp_Force_Field>  (225) 
OPLS3e

>  <r_lp_Energy>  (225) 
71.4468

>  <b_lp_Chiralities_Consistent>  (225) 
1

>  <s_lp_Variant>  (225) 
63:0-1

>  <s_i_glide_gridfile>  (225) 
pfpi4k_grid

>  <i_i_glide_lignum>  (225) 
42

>  <i_i_glide_rotatable_bonds>  (225) 
3

>  <r_i_docking_score>  (225) 
-3.3918

>  <r_i_glide_ligand_efficiency>  (225) 
-0.135672

>  <r_i_glide_ligand_efficiency_sa>  (225) 
-0.396707

>  <r_i_glide_ligand_efficiency_ln>  (225) 
-0.803958

>  <r_i_glide_gscore>  (225) 
-3.3918

>  <r_i_glide_lipo>  (225) 
-0.826836

>  <r_i_glide_hbond>  (225) 
0

>  <r_i_glide_metal>  (225) 
-0

>  <r_i_glide_rewards>  (225) 
-1.01136

>  <r_i_glide_evdw>  (225) 
-14.5197

>  <r_i_glide_ecoul>  (225) 
-5.51745

>  <r_i_glide_erotb>  (225) 
0

>  <r_i_glide_esite>  (225) 
0

>  <r_i_glide_emodel>  (225) 
-22.3909

>  <r_i_glide_energy>  (225) 
-20.0372

>  <r_i_glide_einternal>  (225) 
1.6078

>  <r_i_glide_intrahb_reward>  (225) 
-0

>  <i_i_glide_confnum>  (225) 
2

>  <i_i_glide_posenum>  (225) 
1

>  <r_i_glide_eff_state_penalty>  (225) 
0

>  <ligand_id>  (225) 
63

>  <original_smiles>  (225) 
CC1CCC2(C)OC34CCC(C)C3(C)C(=O)C(O)(C2O)C1(O)CC4C

>  <smiles>  (225) 
[H]OC1([H])C2(O[H])C(=O)C3(C([H])([H])[H])C([H])(C([H])([H])[H])C([H])([H])C([H])([H])C34OC1(C([H])([H])[H])C([H])([H])C([H])([H])C([H])(C([H])([H])[H])C2(O[H])C([H])([H])C4([H])C([H])([H])[H]

$$$$
65:0:0
     RDKit          3D

 35 38  0  0  1  0  0  0  0  0999 V2000
    2.6475   -2.9508   -3.4557 C   0  0  0  0  0  0  0  0  0  0  0  0
    3.6872   -2.3789   -2.6204 N   0  0  0  0  0  0  0  0  0  0  0  0
    4.0328   -1.0735   -2.7605 N   0  0  0  0  0  0  0  0  0  0  0  0
    4.9859   -0.8381   -1.9092 N   0  0  0  0  0  0  0  0  0  0  0  0
    5.2364   -1.9934   -1.1667 C   0  0  0  0  0  0  0  0  0  0  0  0
    4.4338   -2.9705   -1.6244 C   0  0  0  0  0  0  0  0  0  0  0  0
    4.4032   -4.3400   -1.1079 C   0  0  0  0  0  0  0  0  0  0  0  0
    4.9390   -4.3196    0.3447 C   0  0  1  0  0  0  0  0  0  0  0  0
    3.8208   -3.9024    1.2985 C   0  0  0  0  0  0  0  0  0  0  0  0
    3.1269   -5.2053    1.6582 C   0  0  0  0  0  0  0  0  0  0  0  0
    4.1262   -6.2637    1.5011 N   0  0  0  0  0  0  0  0  0  0  0  0
    4.0588   -7.5685    1.8856 C   0  0  0  0  0  0  0  0  0  0  0  0
    5.0415   -8.2996    1.7648 O   0  0  0  0  0  0  0  0  0  0  0  0
    2.7258   -8.1046    2.3478 C   0  0  0  0  0  0  0  0  0  0  0  0
    2.3488   -9.4274    2.1844 C   0  0  0  0  0  0  0  0  0  0  0  0
    0.7747   -9.7689    2.8817 S   0  0  0  0  0  0  0  0  0  0  0  0
    0.6667   -8.0844    3.3647 C   0  0  0  0  0  0  0  0  0  0  0  0
    1.7436   -7.3693    3.0359 N   0  0  0  0  0  0  0  0  0  0  0  0
    5.3171   -5.7217    0.8477 C   0  0  0  0  0  0  0  0  0  0  0  0
    6.0700   -3.4459    0.5203 O   0  0  0  0  0  0  0  0  0  0  0  0
    6.1814   -2.2284   -0.0863 C   0  0  0  0  0  0  0  0  0  0  0  0
    7.0609   -1.4362    0.2401 O   0  0  0  0  0  0  0  0  0  0  0  0
    2.2404   -3.8576   -3.0057 H   0  0  0  0  0  0  0  0  0  0  0  0
    3.0588   -3.1869   -4.4395 H   0  0  0  0  0  0  0  0  0  0  0  0
    1.8308   -2.2360   -3.5752 H   0  0  0  0  0  0  0  0  0  0  0  0
    3.3755   -4.6731   -1.1187 H   0  0  0  0  0  0  0  0  0  0  0  0
    5.0112   -4.9781   -1.7518 H   0  0  0  0  0  0  0  0  0  0  0  0
    4.2279   -3.4530    2.2068 H   0  0  0  0  0  0  0  0  0  0  0  0
    3.1278   -3.1771    0.8725 H   0  0  0  0  0  0  0  0  0  0  0  0
    2.7774   -5.0962    2.6817 H   0  0  0  0  0  0  0  0  0  0  0  0
    2.2795   -5.3947    0.9962 H   0  0  0  0  0  0  0  0  0  0  0  0
    2.9155  -10.2138    1.7004 H   0  0  0  0  0  0  0  0  0  0  0  0
   -0.1505   -7.6152    3.8996 H   0  0  0  0  0  0  0  0  0  0  0  0
    5.6584   -6.3570    0.0284 H   0  0  0  0  0  0  0  0  0  0  0  0
    6.1268   -5.6812    1.5853 H   0  0  0  0  0  0  0  0  0  0  0  0
  1  2  1  0
  1 23  1  0
  1 24  1  0
  1 25  1  0
  2  6  1  0
  2  3  1  0
  3  4  2  0
  4  5  1  0
  5 21  1  0
  5  6  2  0
  6  7  1  0
  7  8  1  0
  7 26  1  0
  7 27  1  0
  8 19  1  0
  8  9  1  0
  8 20  1  6
  9 10  1  0
  9 28  1  0
  9 29  1  0
 10 11  1  0
 10 30  1  0
 10 31  1  0
 11 12  1  0
 11 19  1  0
 12 13  2  0
 12 14  1  0
 14 18  1  0
 14 15  2  0
 15 16  1  0
 15 32  1  0
 16 17  1  0
 17 18  2  0
 17 33  1  0
 19 34  1  0
 19 35  1  0
 20 21  1  0
 21 22  2  0
M  END
>  <i_m_ct_stereo_status>  (226) 
1

>  <s_m_source_file>  (226) 
/var/tmp/pbs.5076255.sched01/tmpoq50wh_d/842pmd5wfz.sdf

>  <i_m_source_file_index>  (226) 
2

>  <i_lp_mmshare_version>  (226) 
48012

>  <i_f3d_flags>  (226) 
0

>  <s_epik_input>  (226) 
W0NIM11uMW5uYyhDKE8yKT1PKWMxW0NIMl1bQ0BdMjNbQ0gyXVtDSDJdTihbQ0gyXTMpQyg9TyljNFtjSF1zW2NIXW40

>  <s_epik_cmdline>  (226) 
J2VwaWtfcHl0aG9uJywgJy1waHQnLCAnMi4wJywgJy1waCcsICc3LjAnLCAnLXRuJywgJzgnLCAnLW1hJywgJzIwMCcsICctaW1hZScsICc8aW5maWxlLm1hZT4nLCAnLW9tYWUnLCAnPG91dGZpbGUubWFlPic=

>  <r_lp_tautomer_probability>  (226) 
1

>  <r_epik_Ionization_Penalty>  (226) 
3.03568e-07

>  <r_epik_Ionization_Penalty_Charging>  (226) 
0

>  <r_epik_Ionization_Penalty_Neutral>  (226) 
3.03568e-07

>  <r_epik_State_Penalty>  (226) 
-0

>  <r_epik_Charging_Adjusted_Penalty>  (226) 
0

>  <i_epik_Tot_Q>  (226) 
0

>  <i_epik_Tot_abs_Q>  (226) 
0

>  <s_epik_Chemistry_Notes>  (226) 
This compound has an ester and may undergo hydrolysis at high or low pH.

>  <s_lp_Force_Field>  (226) 
OPLS3e

>  <r_lp_Energy>  (226) 
21.3117

>  <b_lp_Chiralities_Consistent>  (226) 
1

>  <s_lp_Variant>  (226) 
65:0-1

>  <s_i_glide_gridfile>  (226) 
pfpi4k_grid

>  <i_i_glide_lignum>  (226) 
2

>  <i_i_glide_rotatable_bonds>  (226) 
2

>  <r_i_docking_score>  (226) 
-3.40812

>  <r_i_glide_ligand_efficiency>  (226) 
-0.154915

>  <r_i_glide_ligand_efficiency_sa>  (226) 
-0.434077

>  <r_i_glide_ligand_efficiency_ln>  (226) 
-0.833069

>  <r_i_glide_gscore>  (226) 
-3.40812

>  <r_i_glide_lipo>  (226) 
-0.433348

>  <r_i_glide_hbond>  (226) 
-0.0563637

>  <r_i_glide_metal>  (226) 
-0

>  <r_i_glide_rewards>  (226) 
-1.34989

>  <r_i_glide_evdw>  (226) 
-30.4374

>  <r_i_glide_ecoul>  (226) 
-2.37736

>  <r_i_glide_erotb>  (226) 
0.365912

>  <r_i_glide_esite>  (226) 
-0.0559578

>  <r_i_glide_emodel>  (226) 
-39.5727

>  <r_i_glide_energy>  (226) 
-32.8148

>  <r_i_glide_einternal>  (226) 
1.00114

>  <r_i_glide_intrahb_reward>  (226) 
-0

>  <i_i_glide_confnum>  (226) 
4

>  <i_i_glide_posenum>  (226) 
37

>  <r_i_glide_eff_state_penalty>  (226) 
0

>  <ligand_id>  (226) 
65

>  <original_smiles>  (226) 
Cn1nnc2c1CC1(CCN(C(=O)c3cscn3)C1)OC2=O

>  <smiles>  (226) 
[H]c1nc(C(=O)N2C([H])([H])C([H])([H])C3(OC(=O)c4nnn(C([H])([H])[H])c4C3([H])[H])C2([H])[H])c([H])s1

$$$$
65:0:1
     RDKit          3D

 35 38  0  0  1  0  0  0  0  0999 V2000
    2.6163   -2.8581   -3.5957 C   0  0  0  0  0  0  0  0  0  0  0  0
    3.6385   -2.3138   -2.7223 N   0  0  0  0  0  0  0  0  0  0  0  0
    4.0734   -1.0426   -2.9087 N   0  0  0  0  0  0  0  0  0  0  0  0
    4.9825   -0.8163   -2.0004 N   0  0  0  0  0  0  0  0  0  0  0  0
    5.1078   -1.9503   -1.1974 C   0  0  0  0  0  0  0  0  0  0  0  0
    4.2741   -2.8929   -1.6438 C   0  0  0  0  0  0  0  0  0  0  0  0
    4.1240   -4.2394   -1.0610 C   0  0  0  0  0  0  0  0  0  0  0  0
    4.5712   -4.1557    0.4187 C   0  0  1  0  0  0  0  0  0  0  0  0
    3.4310   -3.6122    1.2885 C   0  0  0  0  0  0  0  0  0  0  0  0
    2.6300   -4.8486    1.6682 C   0  0  0  0  0  0  0  0  0  0  0  0
    3.5688   -5.9761    1.5993 N   0  0  0  0  0  0  0  0  0  0  0  0
    3.3802   -7.2268    2.0577 C   0  0  0  0  0  0  0  0  0  0  0  0
    4.3307   -8.0147    2.1883 O   0  0  0  0  0  0  0  0  0  0  0  0
    1.9668   -7.6075    2.4082 C   0  0  0  0  0  0  0  0  0  0  0  0
    1.6424   -8.4670    3.4314 C   0  0  0  0  0  0  0  0  0  0  0  0
   -0.0800   -8.7695    3.5324 S   0  0  0  0  0  0  0  0  0  0  0  0
   -0.2973   -7.7372    2.1263 C   0  0  0  0  0  0  0  0  0  0  0  0
    0.8400   -7.2362    1.6411 N   0  0  0  0  0  0  0  0  0  0  0  0
    4.8323   -5.5485    1.0080 C   0  0  0  0  0  0  0  0  0  0  0  0
    5.7468   -3.3466    0.6168 O   0  0  0  0  0  0  0  0  0  0  0  0
    5.9792   -2.1742   -0.0487 C   0  0  0  0  0  0  0  0  0  0  0  0
    6.8853   -1.4183    0.2790 O   0  0  0  0  0  0  0  0  0  0  0  0
    2.1248   -3.7126   -3.1239 H   0  0  0  0  0  0  0  0  0  0  0  0
    3.0691   -3.1783   -4.5348 H   0  0  0  0  0  0  0  0  0  0  0  0
    1.8603   -2.1006   -3.8099 H   0  0  0  0  0  0  0  0  0  0  0  0
    3.0961   -4.5674   -1.1258 H   0  0  0  0  0  0  0  0  0  0  0  0
    4.7488   -4.9323   -1.6225 H   0  0  0  0  0  0  0  0  0  0  0  0
    3.8141   -3.1297    2.1896 H   0  0  0  0  0  0  0  0  0  0  0  0
    2.8127   -2.8759    0.7722 H   0  0  0  0  0  0  0  0  0  0  0  0
    2.1805   -4.7437    2.6566 H   0  0  0  0  0  0  0  0  0  0  0  0
    1.8381   -4.9769    0.9322 H   0  0  0  0  0  0  0  0  0  0  0  0
    2.3188   -8.9545    4.1257 H   0  0  0  0  0  0  0  0  0  0  0  0
   -1.2437   -7.5009    1.6548 H   0  0  0  0  0  0  0  0  0  0  0  0
    5.1775   -6.2544    0.2473 H   0  0  0  0  0  0  0  0  0  0  0  0
    5.5948   -5.5137    1.7932 H   0  0  0  0  0  0  0  0  0  0  0  0
  1  2  1  0
  1 23  1  0
  1 24  1  0
  1 25  1  0
  2  6  1  0
  2  3  1  0
  3  4  2  0
  4  5  1  0
  5 21  1  0
  5  6  2  0
  6  7  1  0
  7  8  1  0
  7 26  1  0
  7 27  1  0
  8 19  1  0
  8  9  1  0
  8 20  1  6
  9 10  1  0
  9 28  1  0
  9 29  1  0
 10 11  1  0
 10 30  1  0
 10 31  1  0
 11 12  1  0
 11 19  1  0
 12 13  2  0
 12 14  1  0
 14 18  1  0
 14 15  2  0
 15 16  1  0
 15 32  1  0
 16 17  1  0
 17 18  2  0
 17 33  1  0
 19 34  1  0
 19 35  1  0
 20 21  1  0
 21 22  2  0
M  END
>  <i_m_ct_stereo_status>  (227) 
1

>  <s_m_source_file>  (227) 
/var/tmp/pbs.5076255.sched01/tmpoq50wh_d/842pmd5wfz.sdf

>  <i_m_source_file_index>  (227) 
2

>  <i_lp_mmshare_version>  (227) 
48012

>  <i_f3d_flags>  (227) 
0

>  <s_epik_input>  (227) 
W0NIM11uMW5uYyhDKE8yKT1PKWMxW0NIMl1bQ0BdMjNbQ0gyXVtDSDJdTihbQ0gyXTMpQyg9TyljNFtjSF1zW2NIXW40

>  <s_epik_cmdline>  (227) 
J2VwaWtfcHl0aG9uJywgJy1waHQnLCAnMi4wJywgJy1waCcsICc3LjAnLCAnLXRuJywgJzgnLCAnLW1hJywgJzIwMCcsICctaW1hZScsICc8aW5maWxlLm1hZT4nLCAnLW9tYWUnLCAnPG91dGZpbGUubWFlPic=

>  <r_lp_tautomer_probability>  (227) 
1

>  <r_epik_Ionization_Penalty>  (227) 
3.03568e-07

>  <r_epik_Ionization_Penalty_Charging>  (227) 
0

>  <r_epik_Ionization_Penalty_Neutral>  (227) 
3.03568e-07

>  <r_epik_State_Penalty>  (227) 
-0

>  <r_epik_Charging_Adjusted_Penalty>  (227) 
0

>  <i_epik_Tot_Q>  (227) 
0

>  <i_epik_Tot_abs_Q>  (227) 
0

>  <s_epik_Chemistry_Notes>  (227) 
This compound has an ester and may undergo hydrolysis at high or low pH.

>  <s_lp_Force_Field>  (227) 
OPLS3e

>  <r_lp_Energy>  (227) 
21.3117

>  <b_lp_Chiralities_Consistent>  (227) 
1

>  <s_lp_Variant>  (227) 
65:0-1

>  <s_i_glide_gridfile>  (227) 
pfpi4k_grid

>  <i_i_glide_lignum>  (227) 
2

>  <i_i_glide_rotatable_bonds>  (227) 
2

>  <r_i_docking_score>  (227) 
-3.25494

>  <r_i_glide_ligand_efficiency>  (227) 
-0.147952

>  <r_i_glide_ligand_efficiency_sa>  (227) 
-0.414567

>  <r_i_glide_ligand_efficiency_ln>  (227) 
-0.795626

>  <r_i_glide_gscore>  (227) 
-3.25494

>  <r_i_glide_lipo>  (227) 
-0.355656

>  <r_i_glide_hbond>  (227) 
-0.0346318

>  <r_i_glide_metal>  (227) 
-0

>  <r_i_glide_rewards>  (227) 
-1.32891

>  <r_i_glide_evdw>  (227) 
-30.4812

>  <r_i_glide_ecoul>  (227) 
-2.18692

>  <r_i_glide_erotb>  (227) 
0.365912

>  <r_i_glide_esite>  (227) 
-0.0495558

>  <r_i_glide_emodel>  (227) 
-38.3013

>  <r_i_glide_energy>  (227) 
-32.6681

>  <r_i_glide_einternal>  (227) 
2.38482

>  <r_i_glide_intrahb_reward>  (227) 
-0

>  <i_i_glide_confnum>  (227) 
4

>  <i_i_glide_posenum>  (227) 
29

>  <r_i_glide_eff_state_penalty>  (227) 
0

>  <ligand_id>  (227) 
65

>  <original_smiles>  (227) 
Cn1nnc2c1CC1(CCN(C(=O)c3cscn3)C1)OC2=O

>  <smiles>  (227) 
[H]c1nc(C(=O)N2C([H])([H])C([H])([H])C3(OC(=O)c4nnn(C([H])([H])[H])c4C3([H])[H])C2([H])[H])c([H])s1

$$$$
65:0:2
     RDKit          3D

 35 38  0  0  1  0  0  0  0  0999 V2000
    2.5767   -2.9005   -3.6178 C   0  0  0  0  0  0  0  0  0  0  0  0
    3.6043   -2.3490   -2.7547 N   0  0  0  0  0  0  0  0  0  0  0  0
    4.0689   -1.0871   -2.9594 N   0  0  0  0  0  0  0  0  0  0  0  0
    4.9819   -0.8564   -2.0603 N   0  0  0  0  0  0  0  0  0  0  0  0
    5.0967   -1.9744   -1.2411 C   0  0  0  0  0  0  0  0  0  0  0  0
    4.2474   -2.9236   -1.6813 C   0  0  0  0  0  0  0  0  0  0  0  0
    4.0801   -4.2525   -1.0650 C   0  0  0  0  0  0  0  0  0  0  0  0
    4.5389   -4.1478    0.4126 C   0  0  1  0  0  0  0  0  0  0  0  0
    3.4028   -3.5837    1.2777 C   0  0  0  0  0  0  0  0  0  0  0  0
    2.5916   -4.8093    1.6841 C   0  0  0  0  0  0  0  0  0  0  0  0
    3.5152   -5.9434    1.6139 N   0  0  0  0  0  0  0  0  0  0  0  0
    3.3153   -7.1934    2.0773 C   0  0  0  0  0  0  0  0  0  0  0  0
    4.2472   -7.9952    2.1653 O   0  0  0  0  0  0  0  0  0  0  0  0
    1.9218   -7.5740    2.4754 C   0  0  0  0  0  0  0  0  0  0  0  0
    0.7844   -7.3754    1.7173 C   0  0  0  0  0  0  0  0  0  0  0  0
   -0.6450   -8.0284    2.4826 S   0  0  0  0  0  0  0  0  0  0  0  0
    0.3741   -8.5991    3.7901 C   0  0  0  0  0  0  0  0  0  0  0  0
    1.6611   -8.2711    3.6617 N   0  0  0  0  0  0  0  0  0  0  0  0
    4.7839   -5.5349    1.0127 C   0  0  0  0  0  0  0  0  0  0  0  0
    5.7290   -3.3494    0.5872 O   0  0  0  0  0  0  0  0  0  0  0  0
    5.9735   -2.1932   -0.0973 C   0  0  0  0  0  0  0  0  0  0  0  0
    6.8993   -1.4526    0.2246 O   0  0  0  0  0  0  0  0  0  0  0  0
    2.0840   -3.7407   -3.1238 H   0  0  0  0  0  0  0  0  0  0  0  0
    3.0276   -3.2416   -4.5509 H   0  0  0  0  0  0  0  0  0  0  0  0
    1.8311   -2.1377   -3.8368 H   0  0  0  0  0  0  0  0  0  0  0  0
    3.0441   -4.5782   -1.1206 H   0  0  0  0  0  0  0  0  0  0  0  0
    4.6994   -4.9651   -1.6116 H   0  0  0  0  0  0  0  0  0  0  0  0
    3.8035   -3.0914    2.1662 H   0  0  0  0  0  0  0  0  0  0  0  0
    2.7943   -2.8458    0.7498 H   0  0  0  0  0  0  0  0  0  0  0  0
    2.1517   -4.6827    2.6746 H   0  0  0  0  0  0  0  0  0  0  0  0
    1.7978   -4.9522    0.9573 H   0  0  0  0  0  0  0  0  0  0  0  0
    0.7119   -6.9218    0.7405 H   0  0  0  0  0  0  0  0  0  0  0  0
    0.0345   -9.1726    4.6417 H   0  0  0  0  0  0  0  0  0  0  0  0
    5.1188   -6.2564    0.2624 H   0  0  0  0  0  0  0  0  0  0  0  0
    5.5466   -5.5001    1.7954 H   0  0  0  0  0  0  0  0  0  0  0  0
  1  2  1  0
  1 23  1  0
  1 24  1  0
  1 25  1  0
  2  6  1  0
  2  3  1  0
  3  4  2  0
  4  5  1  0
  5 21  1  0
  5  6  2  0
  6  7  1  0
  7  8  1  0
  7 26  1  0
  7 27  1  0
  8 19  1  0
  8  9  1  0
  8 20  1  6
  9 10  1  0
  9 28  1  0
  9 29  1  0
 10 11  1  0
 10 30  1  0
 10 31  1  0
 11 12  1  0
 11 19  1  0
 12 13  2  0
 12 14  1  0
 14 18  1  0
 14 15  2  0
 15 16  1  0
 15 32  1  0
 16 17  1  0
 17 18  2  0
 17 33  1  0
 19 34  1  0
 19 35  1  0
 20 21  1  0
 21 22  2  0
M  END
>  <i_m_ct_stereo_status>  (228) 
1

>  <s_m_source_file>  (228) 
/var/tmp/pbs.5076255.sched01/tmpoq50wh_d/842pmd5wfz.sdf

>  <i_m_source_file_index>  (228) 
2

>  <i_lp_mmshare_version>  (228) 
48012

>  <i_f3d_flags>  (228) 
0

>  <s_epik_input>  (228) 
W0NIM11uMW5uYyhDKE8yKT1PKWMxW0NIMl1bQ0BdMjNbQ0gyXVtDSDJdTihbQ0gyXTMpQyg9TyljNFtjSF1zW2NIXW40

>  <s_epik_cmdline>  (228) 
J2VwaWtfcHl0aG9uJywgJy1waHQnLCAnMi4wJywgJy1waCcsICc3LjAnLCAnLXRuJywgJzgnLCAnLW1hJywgJzIwMCcsICctaW1hZScsICc8aW5maWxlLm1hZT4nLCAnLW9tYWUnLCAnPG91dGZpbGUubWFlPic=

>  <r_lp_tautomer_probability>  (228) 
1

>  <r_epik_Ionization_Penalty>  (228) 
3.03568e-07

>  <r_epik_Ionization_Penalty_Charging>  (228) 
0

>  <r_epik_Ionization_Penalty_Neutral>  (228) 
3.03568e-07

>  <r_epik_State_Penalty>  (228) 
-0

>  <r_epik_Charging_Adjusted_Penalty>  (228) 
0

>  <i_epik_Tot_Q>  (228) 
0

>  <i_epik_Tot_abs_Q>  (228) 
0

>  <s_epik_Chemistry_Notes>  (228) 
This compound has an ester and may undergo hydrolysis at high or low pH.

>  <s_lp_Force_Field>  (228) 
OPLS3e

>  <r_lp_Energy>  (228) 
21.3117

>  <b_lp_Chiralities_Consistent>  (228) 
1

>  <s_lp_Variant>  (228) 
65:0-1

>  <s_i_glide_gridfile>  (228) 
pfpi4k_grid

>  <i_i_glide_lignum>  (228) 
2

>  <i_i_glide_rotatable_bonds>  (228) 
2

>  <r_i_docking_score>  (228) 
-3.22143

>  <r_i_glide_ligand_efficiency>  (228) 
-0.146429

>  <r_i_glide_ligand_efficiency_sa>  (228) 
-0.410299

>  <r_i_glide_ligand_efficiency_ln>  (228) 
-0.787435

>  <r_i_glide_gscore>  (228) 
-3.22143

>  <r_i_glide_lipo>  (228) 
-0.357204

>  <r_i_glide_hbond>  (228) 
-0.0454815

>  <r_i_glide_metal>  (228) 
-0

>  <r_i_glide_rewards>  (228) 
-1.33156

>  <r_i_glide_evdw>  (228) 
-30.6848

>  <r_i_glide_ecoul>  (228) 
-1.78766

>  <r_i_glide_erotb>  (228) 
0.365912

>  <r_i_glide_esite>  (228) 
-0.05071

>  <r_i_glide_emodel>  (228) 
-39.2827

>  <r_i_glide_energy>  (228) 
-32.4724

>  <r_i_glide_einternal>  (228) 
0.125373

>  <r_i_glide_intrahb_reward>  (228) 
-0

>  <i_i_glide_confnum>  (228) 
5

>  <i_i_glide_posenum>  (228) 
34

>  <r_i_glide_eff_state_penalty>  (228) 
0

>  <ligand_id>  (228) 
65

>  <original_smiles>  (228) 
Cn1nnc2c1CC1(CCN(C(=O)c3cscn3)C1)OC2=O

>  <smiles>  (228) 
[H]c1nc(C(=O)N2C([H])([H])C([H])([H])C3(OC(=O)c4nnn(C([H])([H])[H])c4C3([H])[H])C2([H])[H])c([H])s1

$$$$
66:0:0
     RDKit          3D

 65 70  0  0  1  0  0  0  0  0999 V2000
    0.2293   -9.7157    4.2184 C   0  0  0  0  0  0  0  0  0  0  0  0
    0.2559   -8.3666    3.7905 O   0  0  0  0  0  0  0  0  0  0  0  0
    0.7522   -8.1929    2.4997 C   0  0  2  0  0  0  0  0  0  0  0  0
    2.3414   -8.3234    2.4987 C   0  0  0  0  0  0  0  0  0  0  0  0
    2.6204   -6.8464    2.4280 C   0  0  2  0  0  0  0  0  0  0  0  0
    1.5902   -6.4699    1.3735 C   0  0  1  0  0  0  0  0  0  0  0  0
    0.4595   -6.9217    1.9903 O   0  0  0  0  0  0  0  0  0  0  0  0
    1.8106   -5.1079    1.1946 O   0  0  0  0  0  0  0  0  0  0  0  0
    3.1886   -4.7845    1.3716 C   0  0  1  0  0  0  0  0  0  0  0  0
    3.7597   -4.5115   -0.1464 C   0  0  2  0  0  0  0  0  0  0  0  0
    5.2729   -4.7063   -0.3326 C   0  0  0  0  0  0  0  0  0  0  0  0
    6.0191   -3.9571    0.6969 C   0  0  0  0  0  0  0  0  0  0  0  0
    5.7948   -2.6643    0.8433 C   0  0  0  0  0  0  0  0  0  0  0  0
    5.8642   -1.7975    1.7627 C   0  0  0  0  0  0  0  0  0  0  0  0
    5.4302   -2.3071    2.9319 C   0  0  0  0  0  0  0  0  0  0  0  0
    4.3604   -3.2447    3.2821 C   0  0  0  0  0  0  0  0  0  0  0  0
    4.3720   -3.7048    4.5349 C   0  0  0  0  0  0  0  0  0  0  0  0
    3.1756   -4.5156    4.8979 C   0  0  0  0  0  0  0  0  0  0  0  0
    2.1705   -4.1114    3.7839 C   0  0  1  0  0  0  0  0  0  0  0  0
    1.1818   -3.1156    4.4275 C   0  0  0  0  0  0  0  0  0  0  0  0
    3.0660   -3.6381    2.5087 C   0  0  2  0  0  0  0  0  0  0  0  0
    2.3621   -2.3474    2.0050 C   0  0  0  0  0  0  0  0  0  0  0  0
    5.1414   -1.4657    0.3212 C   0  0  2  0  0  0  0  0  0  0  0  0
    4.6604   -0.1138    0.8161 C   0  0  0  0  0  0  0  0  0  0  0  0
    5.6633   -1.3167   -1.0862 C   0  0  0  0  0  0  0  0  0  0  0  0
    4.5094   -1.4394   -2.1088 C   0  0  0  0  0  0  0  0  0  0  0  0
    3.8967   -2.8331   -2.2372 C   0  0  0  0  0  0  0  0  0  0  0  0
    4.0152   -3.4349   -3.3062 O   0  0  0  0  0  0  0  0  0  0  0  0
    3.0814   -3.4201   -1.0433 C   0  0  0  0  0  0  0  0  0  0  0  0
    3.8198   -6.1848    1.8194 C   0  0  1  0  0  0  0  0  0  0  0  0
    4.8713   -6.1338    2.7528 O   0  0  0  0  0  0  0  0  0  0  0  0
   -0.1803   -9.8038    5.2129 H   0  0  0  0  0  0  0  0  0  0  0  0
    1.2260  -10.1366    4.2617 H   0  0  0  0  0  0  0  0  0  0  0  0
   -0.3537  -10.3610    3.5685 H   0  0  0  0  0  0  0  0  0  0  0  0
    0.2892   -8.8884    1.7871 H   0  0  0  0  0  0  0  0  0  0  0  0
    2.6836   -8.6797    3.4794 H   0  0  0  0  0  0  0  0  0  0  0  0
    2.6749   -8.9277    1.6304 H   0  0  0  0  0  0  0  0  0  0  0  0
    2.3503   -6.4755    3.4108 H   0  0  0  0  0  0  0  0  0  0  0  0
    1.7044   -6.9590    0.3751 H   0  0  0  0  0  0  0  0  0  0  0  0
    3.4033   -5.4005   -0.6410 H   0  0  0  0  0  0  0  0  0  0  0  0
    5.5811   -5.7346   -0.2826 H   0  0  0  0  0  0  0  0  0  0  0  0
    5.6584   -4.4544   -1.3067 H   0  0  0  0  0  0  0  0  0  0  0  0
    6.5812   -4.5249    1.4239 H   0  0  0  0  0  0  0  0  0  0  0  0
    5.8750   -1.7963    3.7890 H   0  0  0  0  0  0  0  0  0  0  0  0
    5.1425   -3.5424    5.2833 H   0  0  0  0  0  0  0  0  0  0  0  0
    3.4871   -5.5498    4.8591 H   0  0  0  0  0  0  0  0  0  0  0  0
    2.7948   -4.3478    5.9140 H   0  0  0  0  0  0  0  0  0  0  0  0
    1.4873   -4.8967    3.4867 H   0  0  0  0  0  0  0  0  0  0  0  0
    1.6539   -2.2155    4.8536 H   0  0  0  0  0  0  0  0  0  0  0  0
    0.6637   -3.6341    5.2414 H   0  0  0  0  0  0  0  0  0  0  0  0
    0.3965   -2.8285    3.7253 H   0  0  0  0  0  0  0  0  0  0  0  0
    1.4168   -2.6148    1.5331 H   0  0  0  0  0  0  0  0  0  0  0  0
    2.9311   -1.8352    1.2481 H   0  0  0  0  0  0  0  0  0  0  0  0
    2.1761   -1.5615    2.7510 H   0  0  0  0  0  0  0  0  0  0  0  0
    4.1144   -0.1743    1.7583 H   0  0  0  0  0  0  0  0  0  0  0  0
    4.0158    0.3535    0.0718 H   0  0  0  0  0  0  0  0  0  0  0  0
    5.5420    0.5072    0.9707 H   0  0  0  0  0  0  0  0  0  0  0  0
    6.0947   -0.3290   -1.1525 H   0  0  0  0  0  0  0  0  0  0  0  0
    6.4410   -2.0429   -1.3196 H   0  0  0  0  0  0  0  0  0  0  0  0
    3.7136   -0.7320   -1.8679 H   0  0  0  0  0  0  0  0  0  0  0  0
    4.8788   -1.1636   -3.1014 H   0  0  0  0  0  0  0  0  0  0  0  0
    2.1706   -3.8401   -1.4527 H   0  0  0  0  0  0  0  0  0  0  0  0
    2.7503   -2.5612   -0.4957 H   0  0  0  0  0  0  0  0  0  0  0  0
    4.1510   -6.7456    0.9640 H   0  0  0  0  0  0  0  0  0  0  0  0
    4.6553   -5.4960    3.4079 H   0  0  0  0  0  0  0  0  0  0  0  0
  1  2  1  0
  1 32  1  0
  1 33  1  0
  1 34  1  0
  2  3  1  0
  3  7  1  0
  3  4  1  0
  3 35  1  6
  4  5  1  0
  4 36  1  0
  4 37  1  0
  5 30  1  0
  5  6  1  0
  5 38  1  1
  6  7  1  0
  6  8  1  0
  6 39  1  6
  9  8  1  6
  9 21  1  0
  9 10  1  0
  9 30  1  0
 10 29  1  0
 10 11  1  0
 10 40  1  6
 11 12  1  0
 11 41  1  0
 11 42  1  0
 12 13  2  3
 12 43  1  0
 13 23  1  0
 13 14  1  0
 14 15  2  3
 14 23  1  0
 15 16  1  0
 15 44  1  0
 16 21  1  0
 16 17  2  0
 17 18  1  0
 17 45  1  0
 18 19  1  0
 18 46  1  0
 18 47  1  0
 19 20  1  0
 19 21  1  0
 19 48  1  6
 20 49  1  0
 20 50  1  0
 20 51  1  0
 21 22  1  6
 22 52  1  0
 22 53  1  0
 22 54  1  0
 23 24  1  1
 23 25  1  0
 24 55  1  0
 24 56  1  0
 24 57  1  0
 25 26  1  0
 25 58  1  0
 25 59  1  0
 26 27  1  0
 26 60  1  0
 26 61  1  0
 27 28  2  0
 27 29  1  0
 29 62  1  0
 29 63  1  0
 30 31  1  0
 30 64  1  6
 31 65  1  0
M  END
>  <i_m_ct_stereo_status>  (229) 
1

>  <s_m_source_file>  (229) 
/var/tmp/pbs.5076255.sched01/tmpoq50wh_d/842pmd5wfz.sdf

>  <i_m_source_file_index>  (229) 
3

>  <i_lp_mmshare_version>  (229) 
48012

>  <i_f3d_flags>  (229) 
0

>  <s_epik_input>  (229) 
W0NIM11PW0NAQEhdKE8xKVtDSDJdW0NAQEhdKFtDQEBIXTJbT0hdKVtDQEBIXTFPW0NAXTIzW0NAQEhdNFtDSDJdL1tDSF09QzVcQyhDNShbQ0gzXSlbQ0gyXVtDSDJdQyg9TylbQ0gyXTQpPVtDSF1cQz02W0NAXTMoW0NIM10pW0NASF0oW0NIM10pW0NIMl1bQ0hdNg==

>  <s_epik_cmdline>  (229) 
J2VwaWtfcHl0aG9uJywgJy1waHQnLCAnMi4wJywgJy1waCcsICc3LjAnLCAnLXRuJywgJzgnLCAnLW1hJywgJzIwMCcsICctaW1hZScsICc8aW5maWxlLm1hZT4nLCAnLW9tYWUnLCAnPG91dGZpbGUubWFlPic=

>  <r_lp_tautomer_probability>  (229) 
1

>  <r_epik_Ionization_Penalty>  (229) 
2.37183e-07

>  <r_epik_Ionization_Penalty_Charging>  (229) 
0

>  <r_epik_Ionization_Penalty_Neutral>  (229) 
2.37183e-07

>  <r_epik_State_Penalty>  (229) 
-0

>  <r_epik_Charging_Adjusted_Penalty>  (229) 
0

>  <i_epik_Tot_Q>  (229) 
0

>  <i_epik_Tot_abs_Q>  (229) 
0

>  <s_epik_Chemistry_Notes>  (229) 
This compound contains an acetal/aminal-like group ( X-CH(R)-Y where X, Y are N, S, or O) that may be acid/base labile, releasing an aldehyde.

>  <s_lp_Force_Field>  (229) 
OPLS3e

>  <r_lp_Energy>  (229) 
168.185

>  <b_lp_Chiralities_Consistent>  (229) 
1

>  <s_lp_Variant>  (229) 
66:0-1

>  <s_i_glide_gridfile>  (229) 
pfpi4k_grid

>  <i_i_glide_lignum>  (229) 
3

>  <i_i_glide_rotatable_bonds>  (229) 
2

>  <r_i_docking_score>  (229) 
-2.97141

>  <r_i_glide_ligand_efficiency>  (229) 
-0.0958519

>  <r_i_glide_ligand_efficiency_sa>  (229) 
-0.301107

>  <r_i_glide_ligand_efficiency_ln>  (229) 
-0.670144

>  <r_i_glide_gscore>  (229) 
-2.97141

>  <r_i_glide_lipo>  (229) 
-0.678594

>  <r_i_glide_hbond>  (229) 
-0.0727162

>  <r_i_glide_metal>  (229) 
-0

>  <r_i_glide_rewards>  (229) 
-0.500828

>  <r_i_glide_evdw>  (229) 
-23.0757

>  <r_i_glide_ecoul>  (229) 
-3.11022

>  <r_i_glide_erotb>  (229) 
0

>  <r_i_glide_esite>  (229) 
-0.098954

>  <r_i_glide_emodel>  (229) 
-27.0258

>  <r_i_glide_energy>  (229) 
-26.1859

>  <r_i_glide_einternal>  (229) 
2.86422

>  <r_i_glide_intrahb_reward>  (229) 
-0

>  <i_i_glide_confnum>  (229) 
2

>  <i_i_glide_posenum>  (229) 
1

>  <r_i_glide_eff_state_penalty>  (229) 
0

>  <ligand_id>  (229) 
66

>  <original_smiles>  (229) 
COC1CC2C(O1)OC1(C3CC=C4C(=CC5=CCC(C)C51C)C4(C)CCC(=O)C3)C2O

>  <smiles>  (229) 
[H]OC1([H])C2([H])C([H])(OC([H])(OC([H])([H])[H])C2([H])[H])OC12C1([H])C([H])([H])C(=O)C([H])([H])C([H])([H])C3(C([H])([H])[H])C(=C([H])C4=C([H])C([H])([H])C([H])(C([H])([H])[H])C42C([H])([H])[H])C3=C([H])C1([H])[H]

$$$$
66:0:1
     RDKit          3D

 65 70  0  0  1  0  0  0  0  0999 V2000
   -1.3700   -8.6414    3.6877 C   0  0  0  0  0  0  0  0  0  0  0  0
    0.0521   -8.4880    3.7319 O   0  0  0  0  0  0  0  0  0  0  0  0
    0.6281   -8.2908    2.4669 C   0  0  2  0  0  0  0  0  0  0  0  0
    2.2000   -8.4149    2.5705 C   0  0  0  0  0  0  0  0  0  0  0  0
    2.5219   -6.9513    2.5269 C   0  0  2  0  0  0  0  0  0  0  0  0
    1.5581   -6.5069    1.4483 C   0  0  1  0  0  0  0  0  0  0  0  0
    0.3567   -6.9833    1.9634 O   0  0  0  0  0  0  0  0  0  0  0  0
    1.7927   -5.1351    1.3318 O   0  0  0  0  0  0  0  0  0  0  0  0
    3.1833   -4.8754    1.5660 C   0  0  1  0  0  0  0  0  0  0  0  0
    3.7881   -4.5706    0.0968 C   0  0  2  0  0  0  0  0  0  0  0  0
    5.3247   -4.7511   -0.0407 C   0  0  0  0  0  0  0  0  0  0  0  0
    6.0067   -4.0198    1.0561 C   0  0  0  0  0  0  0  0  0  0  0  0
    5.7678   -2.7271    1.2492 C   0  0  0  0  0  0  0  0  0  0  0  0
    5.8034   -1.8980    2.2007 C   0  0  0  0  0  0  0  0  0  0  0  0
    5.3805   -2.4511    3.3512 C   0  0  0  0  0  0  0  0  0  0  0  0
    4.2369   -3.3697    3.6109 C   0  0  0  0  0  0  0  0  0  0  0  0
    4.1492   -3.8944    4.8499 C   0  0  0  0  0  0  0  0  0  0  0  0
    2.9338   -4.7366    5.0918 C   0  0  0  0  0  0  0  0  0  0  0  0
    2.0007   -4.2837    3.9466 C   0  0  1  0  0  0  0  0  0  0  0  0
    0.9565   -3.3277    4.5722 C   0  0  0  0  0  0  0  0  0  0  0  0
    2.9853   -3.7564    2.7648 C   0  0  2  0  0  0  0  0  0  0  0  0
    2.3014   -2.4648    2.2382 C   0  0  0  0  0  0  0  0  0  0  0  0
    5.1494   -1.5010    0.7392 C   0  0  2  0  0  0  0  0  0  0  0  0
    4.6048   -0.1664    1.2485 C   0  0  0  0  0  0  0  0  0  0  0  0
    5.7253   -1.3153   -0.6511 C   0  0  0  0  0  0  0  0  0  0  0  0
    4.6174   -1.4307   -1.7322 C   0  0  0  0  0  0  0  0  0  0  0  0
    4.0084   -2.8368   -1.9214 C   0  0  0  0  0  0  0  0  0  0  0  0
    4.1928   -3.4358   -2.9810 O   0  0  0  0  0  0  0  0  0  0  0  0
    3.1459   -3.4477   -0.7906 C   0  0  0  0  0  0  0  0  0  0  0  0
    3.7614   -6.2844    2.0135 C   0  0  1  0  0  0  0  0  0  0  0  0
    4.8070   -6.2781    2.9571 O   0  0  0  0  0  0  0  0  0  0  0  0
   -1.7447   -8.8713    4.6837 H   0  0  0  0  0  0  0  0  0  0  0  0
   -1.7089   -9.4495    3.0318 H   0  0  0  0  0  0  0  0  0  0  0  0
   -1.8546   -7.7173    3.3719 H   0  0  0  0  0  0  0  0  0  0  0  0
    0.2534   -9.0335    1.7515 H   0  0  0  0  0  0  0  0  0  0  0  0
    2.4859   -8.8310    3.5447 H   0  0  0  0  0  0  0  0  0  0  0  0
    2.6057   -8.9865    1.7134 H   0  0  0  0  0  0  0  0  0  0  0  0
    2.2320   -6.6112    3.5055 H   0  0  0  0  0  0  0  0  0  0  0  0
    1.7238   -6.9693    0.4565 H   0  0  0  0  0  0  0  0  0  0  0  0
    3.4590   -5.4385   -0.4546 H   0  0  0  0  0  0  0  0  0  0  0  0
    5.6214   -5.7897    0.0096 H   0  0  0  0  0  0  0  0  0  0  0  0
    5.7463   -4.4756   -0.9973 H   0  0  0  0  0  0  0  0  0  0  0  0
    6.5457   -4.6110    1.7806 H   0  0  0  0  0  0  0  0  0  0  0  0
    5.7822   -1.9777    4.2451 H   0  0  0  0  0  0  0  0  0  0  0  0
    4.8645   -3.7678    5.6399 H   0  0  0  0  0  0  0  0  0  0  0  0
    3.2503   -5.7758    5.0274 H   0  0  0  0  0  0  0  0  0  0  0  0
    2.4978   -4.6172    6.0897 H   0  0  0  0  0  0  0  0  0  0  0  0
    1.3125   -5.0440    3.5981 H   0  0  0  0  0  0  0  0  0  0  0  0
    1.4030   -2.4439    5.0436 H   0  0  0  0  0  0  0  0  0  0  0  0
    0.3996   -3.8690    5.3409 H   0  0  0  0  0  0  0  0  0  0  0  0
    0.2144   -3.0203    3.8333 H   0  0  0  0  0  0  0  0  0  0  0  0
    1.4184   -2.7193    1.6748 H   0  0  0  0  0  0  0  0  0  0  0  0
    2.9059   -1.9288    1.5371 H   0  0  0  0  0  0  0  0  0  0  0  0
    2.0309   -1.7175    3.0004 H   0  0  0  0  0  0  0  0  0  0  0  0
    4.0044   -0.2624    2.1525 H   0  0  0  0  0  0  0  0  0  0  0  0
    3.9879    0.3127    0.4883 H   0  0  0  0  0  0  0  0  0  0  0  0
    5.4389    0.4890    1.4765 H   0  0  0  0  0  0  0  0  0  0  0  0
    6.1880   -0.3363   -0.6886 H   0  0  0  0  0  0  0  0  0  0  0  0
    6.5133   -2.0335   -0.8750 H   0  0  0  0  0  0  0  0  0  0  0  0
    3.8085   -0.7347   -1.5094 H   0  0  0  0  0  0  0  0  0  0  0  0
    5.0250   -1.1225   -2.6980 H   0  0  0  0  0  0  0  0  0  0  0  0
    2.2500   -3.8541   -1.2574 H   0  0  0  0  0  0  0  0  0  0  0  0
    2.7821   -2.6038   -0.2353 H   0  0  0  0  0  0  0  0  0  0  0  0
    4.1192   -6.8398    1.1536 H   0  0  0  0  0  0  0  0  0  0  0  0
    5.5383   -5.8174    2.5779 H   0  0  0  0  0  0  0  0  0  0  0  0
  1  2  1  0
  1 32  1  0
  1 33  1  0
  1 34  1  0
  2  3  1  0
  3  7  1  0
  3  4  1  0
  3 35  1  6
  4  5  1  0
  4 36  1  0
  4 37  1  0
  5 30  1  0
  5  6  1  0
  5 38  1  1
  6  7  1  0
  6  8  1  0
  6 39  1  6
  9  8  1  6
  9 21  1  0
  9 10  1  0
  9 30  1  0
 10 29  1  0
 10 11  1  0
 10 40  1  6
 11 12  1  0
 11 41  1  0
 11 42  1  0
 12 13  2  3
 12 43  1  0
 13 23  1  0
 13 14  1  0
 14 15  2  3
 14 23  1  0
 15 16  1  0
 15 44  1  0
 16 21  1  0
 16 17  2  0
 17 18  1  0
 17 45  1  0
 18 19  1  0
 18 46  1  0
 18 47  1  0
 19 20  1  0
 19 21  1  0
 19 48  1  6
 20 49  1  0
 20 50  1  0
 20 51  1  0
 21 22  1  6
 22 52  1  0
 22 53  1  0
 22 54  1  0
 23 24  1  1
 23 25  1  0
 24 55  1  0
 24 56  1  0
 24 57  1  0
 25 26  1  0
 25 58  1  0
 25 59  1  0
 26 27  1  0
 26 60  1  0
 26 61  1  0
 27 28  2  0
 27 29  1  0
 29 62  1  0
 29 63  1  0
 30 31  1  0
 30 64  1  6
 31 65  1  0
M  END
>  <i_m_ct_stereo_status>  (230) 
1

>  <s_m_source_file>  (230) 
/var/tmp/pbs.5076255.sched01/tmpoq50wh_d/842pmd5wfz.sdf

>  <i_m_source_file_index>  (230) 
3

>  <i_lp_mmshare_version>  (230) 
48012

>  <i_f3d_flags>  (230) 
0

>  <s_epik_input>  (230) 
W0NIM11PW0NAQEhdKE8xKVtDSDJdW0NAQEhdKFtDQEBIXTJbT0hdKVtDQEBIXTFPW0NAXTIzW0NAQEhdNFtDSDJdL1tDSF09QzVcQyhDNShbQ0gzXSlbQ0gyXVtDSDJdQyg9TylbQ0gyXTQpPVtDSF1cQz02W0NAXTMoW0NIM10pW0NASF0oW0NIM10pW0NIMl1bQ0hdNg==

>  <s_epik_cmdline>  (230) 
J2VwaWtfcHl0aG9uJywgJy1waHQnLCAnMi4wJywgJy1waCcsICc3LjAnLCAnLXRuJywgJzgnLCAnLW1hJywgJzIwMCcsICctaW1hZScsICc8aW5maWxlLm1hZT4nLCAnLW9tYWUnLCAnPG91dGZpbGUubWFlPic=

>  <r_lp_tautomer_probability>  (230) 
1

>  <r_epik_Ionization_Penalty>  (230) 
2.37183e-07

>  <r_epik_Ionization_Penalty_Charging>  (230) 
0

>  <r_epik_Ionization_Penalty_Neutral>  (230) 
2.37183e-07

>  <r_epik_State_Penalty>  (230) 
-0

>  <r_epik_Charging_Adjusted_Penalty>  (230) 
0

>  <i_epik_Tot_Q>  (230) 
0

>  <i_epik_Tot_abs_Q>  (230) 
0

>  <s_epik_Chemistry_Notes>  (230) 
This compound contains an acetal/aminal-like group ( X-CH(R)-Y where X, Y are N, S, or O) that may be acid/base labile, releasing an aldehyde.

>  <s_lp_Force_Field>  (230) 
OPLS3e

>  <r_lp_Energy>  (230) 
168.185

>  <b_lp_Chiralities_Consistent>  (230) 
1

>  <s_lp_Variant>  (230) 
66:0-1

>  <s_i_glide_gridfile>  (230) 
pfpi4k_grid

>  <i_i_glide_lignum>  (230) 
3

>  <i_i_glide_rotatable_bonds>  (230) 
2

>  <r_i_docking_score>  (230) 
-2.77352

>  <r_i_glide_ligand_efficiency>  (230) 
-0.0894684

>  <r_i_glide_ligand_efficiency_sa>  (230) 
-0.281054

>  <r_i_glide_ligand_efficiency_ln>  (230) 
-0.625514

>  <r_i_glide_gscore>  (230) 
-2.77352

>  <r_i_glide_lipo>  (230) 
-0.644383

>  <r_i_glide_hbond>  (230) 
-0.0727848

>  <r_i_glide_metal>  (230) 
-0

>  <r_i_glide_rewards>  (230) 
-0.500828

>  <r_i_glide_evdw>  (230) 
-23.7956

>  <r_i_glide_ecoul>  (230) 
-2.17063

>  <r_i_glide_erotb>  (230) 
0

>  <r_i_glide_esite>  (230) 
-0.102826

>  <r_i_glide_emodel>  (230) 
-26.554

>  <r_i_glide_energy>  (230) 
-25.9662

>  <r_i_glide_einternal>  (230) 
0.353127

>  <r_i_glide_intrahb_reward>  (230) 
-0

>  <i_i_glide_confnum>  (230) 
2

>  <i_i_glide_posenum>  (230) 
7

>  <r_i_glide_eff_state_penalty>  (230) 
0

>  <ligand_id>  (230) 
66

>  <original_smiles>  (230) 
COC1CC2C(O1)OC1(C3CC=C4C(=CC5=CCC(C)C51C)C4(C)CCC(=O)C3)C2O

>  <smiles>  (230) 
[H]OC1([H])C2([H])C([H])(OC([H])(OC([H])([H])[H])C2([H])[H])OC12C1([H])C([H])([H])C(=O)C([H])([H])C([H])([H])C3(C([H])([H])[H])C(=C([H])C4=C([H])C([H])([H])C([H])(C([H])([H])[H])C42C([H])([H])[H])C3=C([H])C1([H])[H]

$$$$
66:0:2
     RDKit          3D

 65 70  0  0  1  0  0  0  0  0999 V2000
    0.4677   -9.7438    4.4518 C   0  0  0  0  0  0  0  0  0  0  0  0
    0.4471   -8.3849    4.0353 O   0  0  0  0  0  0  0  0  0  0  0  0
    0.8367   -8.1861    2.7106 C   0  0  2  0  0  0  0  0  0  0  0  0
    2.4156   -8.3084    2.5750 C   0  0  0  0  0  0  0  0  0  0  0  0
    2.7078   -6.8392    2.4724 C   0  0  2  0  0  0  0  0  0  0  0  0
    1.5860   -6.4525    1.5206 C   0  0  1  0  0  0  0  0  0  0  0  0
    0.5064   -6.9034    2.2337 O   0  0  0  0  0  0  0  0  0  0  0  0
    1.7875   -5.0880    1.3387 O   0  0  0  0  0  0  0  0  0  0  0  0
    3.1780   -4.7631    1.3930 C   0  0  1  0  0  0  0  0  0  0  0  0
    3.5853   -4.4824   -0.1720 C   0  0  2  0  0  0  0  0  0  0  0  0
    5.0766   -4.6621   -0.5123 C   0  0  0  0  0  0  0  0  0  0  0  0
    5.9008   -3.9019    0.4565 C   0  0  0  0  0  0  0  0  0  0  0  0
    5.6826   -2.6132    0.6373 C   0  0  0  0  0  0  0  0  0  0  0  0
    5.8536   -1.7502    1.5458 C   0  0  0  0  0  0  0  0  0  0  0  0
    5.5829   -2.2964    2.7569 C   0  0  0  0  0  0  0  0  0  0  0  0
    4.5099   -3.2007    3.2103 C   0  0  0  0  0  0  0  0  0  0  0  0
    4.5969   -3.6832    4.4472 C   0  0  0  0  0  0  0  0  0  0  0  0
    3.4413   -4.5215    4.8997 C   0  0  0  0  0  0  0  0  0  0  0  0
    2.3447   -4.1100    3.8857 C   0  0  1  0  0  0  0  0  0  0  0  0
    1.4012   -3.1355    4.6233 C   0  0  0  0  0  0  0  0  0  0  0  0
    3.1444   -3.6183    2.5473 C   0  0  2  0  0  0  0  0  0  0  0  0
    2.3818   -2.3372    2.1078 C   0  0  0  0  0  0  0  0  0  0  0  0
    4.9846   -1.4024    0.1934 C   0  0  2  0  0  0  0  0  0  0  0  0
    4.5253   -0.0684    0.7535 C   0  0  0  0  0  0  0  0  0  0  0  0
    5.3542   -1.2478   -1.2724 C   0  0  0  0  0  0  0  0  0  0  0  0
    4.1096   -1.3997   -2.1811 C   0  0  0  0  0  0  0  0  0  0  0  0
    3.5020   -2.8024   -2.2525 C   0  0  0  0  0  0  0  0  0  0  0  0
    3.5393   -3.4200   -3.3193 O   0  0  0  0  0  0  0  0  0  0  0  0
    2.8083   -3.3930   -0.9893 C   0  0  0  0  0  0  0  0  0  0  0  0
    3.8449   -6.1700    1.7686 C   0  0  1  0  0  0  0  0  0  0  0  0
    5.0217   -6.1391    2.5499 O   0  0  0  0  0  0  0  0  0  0  0  0
    0.1508   -9.8519    5.4808 H   0  0  0  0  0  0  0  0  0  0  0  0
    1.4655  -10.1665    4.3976 H   0  0  0  0  0  0  0  0  0  0  0  0
   -0.1729  -10.3857    3.8536 H   0  0  0  0  0  0  0  0  0  0  0  0
    0.3282   -8.8970    2.0454 H   0  0  0  0  0  0  0  0  0  0  0  0
    2.8455   -8.6645    3.5166 H   0  0  0  0  0  0  0  0  0  0  0  0
    2.6797   -8.8938    1.6787 H   0  0  0  0  0  0  0  0  0  0  0  0
    2.5182   -6.4678    3.4705 H   0  0  0  0  0  0  0  0  0  0  0  0
    1.6051   -6.9245    0.4975 H   0  0  0  0  0  0  0  0  0  0  0  0
    3.1770   -5.3607   -0.6372 H   0  0  0  0  0  0  0  0  0  0  0  0
    5.3844   -5.6959   -0.4845 H   0  0  0  0  0  0  0  0  0  0  0  0
    5.3634   -4.4114   -1.5281 H   0  0  0  0  0  0  0  0  0  0  0  0
    6.5481   -4.4705    1.1097 H   0  0  0  0  0  0  0  0  0  0  0  0
    6.0721   -1.7632    3.5688 H   0  0  0  0  0  0  0  0  0  0  0  0
    5.4253   -3.5362    5.1307 H   0  0  0  0  0  0  0  0  0  0  0  0
    3.7625   -5.5544    4.8161 H   0  0  0  0  0  0  0  0  0  0  0  0
    3.1488   -4.3760    5.9470 H   0  0  0  0  0  0  0  0  0  0  0  0
    1.6285   -4.8908    3.6499 H   0  0  0  0  0  0  0  0  0  0  0  0
    1.9027   -2.2360    5.0092 H   0  0  0  0  0  0  0  0  0  0  0  0
    0.9618   -3.6625    5.4772 H   0  0  0  0  0  0  0  0  0  0  0  0
    0.5547   -2.8524    3.9934 H   0  0  0  0  0  0  0  0  0  0  0  0
    1.4195   -2.6200    1.6979 H   0  0  0  0  0  0  0  0  0  0  0  0
    2.8718   -1.8146    1.3072 H   0  0  0  0  0  0  0  0  0  0  0  0
    2.2270   -1.5663    2.8740 H   0  0  0  0  0  0  0  0  0  0  0  0
    4.0542   -0.1462    1.7299 H   0  0  0  0  0  0  0  0  0  0  0  0
    3.8140    0.3821    0.0812 H   0  0  0  0  0  0  0  0  0  0  0  0
    5.3844    0.5807    0.8887 H   0  0  0  0  0  0  0  0  0  0  0  0
    5.7499   -0.2513   -1.4172 H   0  0  0  0  0  0  0  0  0  0  0  0
    6.1183   -1.9601   -1.5795 H   0  0  0  0  0  0  0  0  0  0  0  0
    3.3389   -0.6972   -1.8632 H   0  0  0  0  0  0  0  0  0  0  0  0
    4.3871   -1.1089   -3.1989 H   0  0  0  0  0  0  0  0  0  0  0  0
    1.8631   -3.8111   -1.3178 H   0  0  0  0  0  0  0  0  0  0  0  0
    2.5286   -2.5349   -0.4131 H   0  0  0  0  0  0  0  0  0  0  0  0
    4.0700   -6.7225    0.8765 H   0  0  0  0  0  0  0  0  0  0  0  0
    5.6435   -5.6154    2.0931 H   0  0  0  0  0  0  0  0  0  0  0  0
  1  2  1  0
  1 32  1  0
  1 33  1  0
  1 34  1  0
  2  3  1  0
  3  7  1  0
  3  4  1  0
  3 35  1  6
  4  5  1  0
  4 36  1  0
  4 37  1  0
  5 30  1  0
  5  6  1  0
  5 38  1  1
  6  7  1  0
  6  8  1  0
  6 39  1  6
  9  8  1  6
  9 21  1  0
  9 10  1  0
  9 30  1  0
 10 29  1  0
 10 11  1  0
 10 40  1  6
 11 12  1  0
 11 41  1  0
 11 42  1  0
 12 13  2  3
 12 43  1  0
 13 23  1  0
 13 14  1  0
 14 15  2  3
 14 23  1  0
 15 16  1  0
 15 44  1  0
 16 21  1  0
 16 17  2  0
 17 18  1  0
 17 45  1  0
 18 19  1  0
 18 46  1  0
 18 47  1  0
 19 20  1  0
 19 21  1  0
 19 48  1  6
 20 49  1  0
 20 50  1  0
 20 51  1  0
 21 22  1  6
 22 52  1  0
 22 53  1  0
 22 54  1  0
 23 24  1  1
 23 25  1  0
 24 55  1  0
 24 56  1  0
 24 57  1  0
 25 26  1  0
 25 58  1  0
 25 59  1  0
 26 27  1  0
 26 60  1  0
 26 61  1  0
 27 28  2  0
 27 29  1  0
 29 62  1  0
 29 63  1  0
 30 31  1  0
 30 64  1  6
 31 65  1  0
M  END
>  <i_m_ct_stereo_status>  (231) 
1

>  <s_m_source_file>  (231) 
/var/tmp/pbs.5076255.sched01/tmpoq50wh_d/842pmd5wfz.sdf

>  <i_m_source_file_index>  (231) 
3

>  <i_lp_mmshare_version>  (231) 
48012

>  <i_f3d_flags>  (231) 
0

>  <s_epik_input>  (231) 
W0NIM11PW0NAQEhdKE8xKVtDSDJdW0NAQEhdKFtDQEBIXTJbT0hdKVtDQEBIXTFPW0NAXTIzW0NAQEhdNFtDSDJdL1tDSF09QzVcQyhDNShbQ0gzXSlbQ0gyXVtDSDJdQyg9TylbQ0gyXTQpPVtDSF1cQz02W0NAXTMoW0NIM10pW0NASF0oW0NIM10pW0NIMl1bQ0hdNg==

>  <s_epik_cmdline>  (231) 
J2VwaWtfcHl0aG9uJywgJy1waHQnLCAnMi4wJywgJy1waCcsICc3LjAnLCAnLXRuJywgJzgnLCAnLW1hJywgJzIwMCcsICctaW1hZScsICc8aW5maWxlLm1hZT4nLCAnLW9tYWUnLCAnPG91dGZpbGUubWFlPic=

>  <r_lp_tautomer_probability>  (231) 
1

>  <r_epik_Ionization_Penalty>  (231) 
2.37183e-07

>  <r_epik_Ionization_Penalty_Charging>  (231) 
0

>  <r_epik_Ionization_Penalty_Neutral>  (231) 
2.37183e-07

>  <r_epik_State_Penalty>  (231) 
-0

>  <r_epik_Charging_Adjusted_Penalty>  (231) 
0

>  <i_epik_Tot_Q>  (231) 
0

>  <i_epik_Tot_abs_Q>  (231) 
0

>  <s_epik_Chemistry_Notes>  (231) 
This compound contains an acetal/aminal-like group ( X-CH(R)-Y where X, Y are N, S, or O) that may be acid/base labile, releasing an aldehyde.

>  <s_lp_Force_Field>  (231) 
OPLS3e

>  <r_lp_Energy>  (231) 
168.185

>  <b_lp_Chiralities_Consistent>  (231) 
1

>  <s_lp_Variant>  (231) 
66:0-1

>  <s_i_glide_gridfile>  (231) 
pfpi4k_grid

>  <i_i_glide_lignum>  (231) 
3

>  <i_i_glide_rotatable_bonds>  (231) 
2

>  <r_i_docking_score>  (231) 
-2.7567

>  <r_i_glide_ligand_efficiency>  (231) 
-0.0889259

>  <r_i_glide_ligand_efficiency_sa>  (231) 
-0.27935

>  <r_i_glide_ligand_efficiency_ln>  (231) 
-0.621721

>  <r_i_glide_gscore>  (231) 
-2.7567

>  <r_i_glide_lipo>  (231) 
-0.574692

>  <r_i_glide_hbond>  (231) 
-0.0687416

>  <r_i_glide_metal>  (231) 
-0

>  <r_i_glide_rewards>  (231) 
-0.500828

>  <r_i_glide_evdw>  (231) 
-22.6408

>  <r_i_glide_ecoul>  (231) 
-2.52741

>  <r_i_glide_erotb>  (231) 
0

>  <r_i_glide_esite>  (231) 
-0.10129

>  <r_i_glide_emodel>  (231) 
-26.0497

>  <r_i_glide_energy>  (231) 
-25.1682

>  <r_i_glide_einternal>  (231) 
3.16479

>  <r_i_glide_intrahb_reward>  (231) 
-0

>  <i_i_glide_confnum>  (231) 
2

>  <i_i_glide_posenum>  (231) 
6

>  <r_i_glide_eff_state_penalty>  (231) 
0

>  <ligand_id>  (231) 
66

>  <original_smiles>  (231) 
COC1CC2C(O1)OC1(C3CC=C4C(=CC5=CCC(C)C51C)C4(C)CCC(=O)C3)C2O

>  <smiles>  (231) 
[H]OC1([H])C2([H])C([H])(OC([H])(OC([H])([H])[H])C2([H])[H])OC12C1([H])C([H])([H])C(=O)C([H])([H])C([H])([H])C3(C([H])([H])[H])C(=C([H])C4=C([H])C([H])([H])C([H])(C([H])([H])[H])C42C([H])([H])[H])C3=C([H])C1([H])[H]

$$$$
67:0:0
     RDKit          3D

 36 38  0  0  1  0  0  0  0  0999 V2000
    1.9134   -1.4851    2.4615 C   0  0  0  0  0  0  0  0  0  0  0  0
    3.3187   -1.0760    2.4079 N   0  0  0  0  0  0  0  0  0  0  0  0
    3.8988   -0.4619    3.4673 N   0  0  0  0  0  0  0  0  0  0  0  0
    5.1493   -0.2369    3.1050 C   0  0  0  0  0  0  0  0  0  0  0  0
    5.4210   -0.6436    1.7683 C   0  0  0  0  0  0  0  0  0  0  0  0
    4.2308   -1.2408    1.3875 C   0  0  0  0  0  0  0  0  0  0  0  0
    3.9974   -1.8206    0.0898 C   0  0  0  0  0  0  0  0  0  0  0  0
    4.1467   -1.1115   -0.9044 O   0  0  0  0  0  0  0  0  0  0  0  0
    3.6216   -3.1390    0.0361 N   0  0  0  0  0  0  0  0  0  0  0  0
    3.5634   -4.0040    1.2145 C   0  0  0  0  0  0  0  0  0  0  0  0
    3.7120   -5.5157    1.1768 C   0  0  0  0  0  0  0  0  0  0  0  0
    2.3602   -4.9207    1.4268 C   0  0  0  0  0  0  0  0  0  0  0  0
    3.2152   -3.7610   -1.2326 C   0  0  2  0  0  0  0  0  0  0  0  0
    4.1879   -3.6605   -2.4244 C   0  0  0  0  0  0  0  0  0  0  0  0
    3.3652   -2.9331   -3.5430 C   0  0  0  0  0  0  0  0  0  0  0  0
    2.2579   -2.2949   -2.8148 N   0  0  0  0  0  0  0  0  0  0  0  0
    1.8766   -3.2360   -1.7738 C   0  0  0  0  0  0  0  0  0  0  0  0
    1.8722   -2.5431    2.6807 H   0  0  0  0  0  0  0  0  0  0  0  0
    1.4298   -1.3092    1.5084 H   0  0  0  0  0  0  0  0  0  0  0  0
    1.3748   -0.9667    3.2546 H   0  0  0  0  0  0  0  0  0  0  0  0
    5.8006    0.2619    3.8037 H   0  0  0  0  0  0  0  0  0  0  0  0
    6.3139   -0.5434    1.1541 H   0  0  0  0  0  0  0  0  0  0  0  0
    4.0166   -3.6217    2.1255 H   0  0  0  0  0  0  0  0  0  0  0  0
    3.9067   -6.0305    0.2398 H   0  0  0  0  0  0  0  0  0  0  0  0
    4.2026   -5.9614    2.0443 H   0  0  0  0  0  0  0  0  0  0  0  0
    1.9649   -4.9842    2.4447 H   0  0  0  0  0  0  0  0  0  0  0  0
    1.6129   -5.0041    0.6495 H   0  0  0  0  0  0  0  0  0  0  0  0
    2.8858   -4.7586   -1.0404 H   0  0  0  0  0  0  0  0  0  0  0  0
    5.1079   -3.1056   -2.1950 H   0  0  0  0  0  0  0  0  0  0  0  0
    4.5642   -4.6429   -2.7570 H   0  0  0  0  0  0  0  0  0  0  0  0
    3.9613   -2.2173   -4.1112 H   0  0  0  0  0  0  0  0  0  0  0  0
    2.9333   -3.6678   -4.2270 H   0  0  0  0  0  0  0  0  0  0  0  0
    2.5898   -1.4862   -2.3297 H   0  0  0  0  0  0  0  0  0  0  0  0
    1.2395   -4.0059   -2.2145 H   0  0  0  0  0  0  0  0  0  0  0  0
    1.3664   -2.9198   -0.8752 H   0  0  0  0  0  0  0  0  0  0  0  0
    1.4683   -2.0264   -3.4094 H   0  0  0  0  0  0  0  0  0  0  0  0
  1  2  1  0
  1 18  1  0
  1 19  1  0
  1 20  1  0
  2  6  1  0
  2  3  1  0
  3  4  2  0
  4  5  1  0
  4 21  1  0
  5  6  2  0
  5 22  1  0
  6  7  1  0
  7  8  2  0
  7  9  1  0
  9 10  1  0
  9 13  1  0
 10 12  1  0
 10 11  1  0
 10 23  1  0
 11 12  1  0
 11 24  1  0
 11 25  1  0
 12 26  1  0
 12 27  1  0
 13 17  1  0
 13 14  1  0
 13 28  1  1
 14 15  1  0
 14 29  1  0
 14 30  1  0
 15 16  1  0
 15 31  1  0
 15 32  1  0
 16 17  1  0
 16 33  1  0
 16 36  1  0
 17 34  1  0
 17 35  1  0
M  CHG  1  16   1
M  END
>  <i_m_ct_stereo_status>  (232) 
1

>  <s_m_source_file>  (232) 
/var/tmp/pbs.5076255.sched01/tmpoq50wh_d/842pmd5wfz.sdf

>  <i_m_source_file_index>  (232) 
4

>  <i_lp_mmshare_version>  (232) 
48012

>  <i_f3d_flags>  (232) 
0

>  <s_epik_input>  (232) 
W0NIM11uMW5bY0hdW2NIXWMxQyg9TylOKFtDSF0yW0NIMl1bQ0gyXTIpW0NAQEhdM1tDSDJdW0NIMl1bTkhdW0NIMl0z

>  <s_epik_cmdline>  (232) 
J2VwaWtfcHl0aG9uJywgJy1waHQnLCAnMi4wJywgJy1waCcsICc3LjAnLCAnLXRuJywgJzgnLCAnLW1hJywgJzIwMCcsICctaW1hZScsICc8aW5maWxlLm1hZT4nLCAnLW9tYWUnLCAnPG91dGZpbGUubWFlPic=

>  <r_lp_tautomer_probability>  (232) 
1

>  <r_epik_Ionization_Penalty>  (232) 
0.000308457

>  <r_epik_Ionization_Penalty_Charging>  (232) 
0.000307217

>  <r_epik_Ionization_Penalty_Neutral>  (232) 
1.24026e-06

>  <r_epik_State_Penalty>  (232) 
0.000184979

>  <r_epik_Charging_Adjusted_Penalty>  (232) 
0.000492196

>  <i_epik_Tot_Q>  (232) 
1

>  <i_epik_Tot_abs_Q>  (232) 
1

>  <s_lp_Force_Field>  (232) 
OPLS3e

>  <r_lp_Energy>  (232) 
33.9199

>  <b_lp_Chiralities_Consistent>  (232) 
1

>  <s_lp_Variant>  (232) 
67:0-1

>  <s_i_glide_gridfile>  (232) 
pfpi4k_grid

>  <i_i_glide_lignum>  (232) 
4

>  <i_i_glide_rotatable_bonds>  (232) 
4

>  <r_i_docking_score>  (232) 
-2.97674

>  <r_i_glide_ligand_efficiency>  (232) 
-0.175102

>  <r_i_glide_ligand_efficiency_sa>  (232) 
-0.450237

>  <r_i_glide_ligand_efficiency_ln>  (232) 
-0.776565

>  <r_i_glide_gscore>  (232) 
-2.97674

>  <r_i_glide_lipo>  (232) 
-0.532114

>  <r_i_glide_hbond>  (232) 
-3.3871e-05

>  <r_i_glide_metal>  (232) 
-0

>  <r_i_glide_rewards>  (232) 
-2.30474

>  <r_i_glide_evdw>  (232) 
-13.2882

>  <r_i_glide_ecoul>  (232) 
-4.27381

>  <r_i_glide_erotb>  (232) 
1.24209

>  <r_i_glide_esite>  (232) 
-0.0764653

>  <r_i_glide_emodel>  (232) 
-16.8574

>  <r_i_glide_energy>  (232) 
-17.562

>  <r_i_glide_einternal>  (232) 
13.1378

>  <r_i_glide_intrahb_reward>  (232) 
-0.5

>  <i_i_glide_confnum>  (232) 
2

>  <i_i_glide_posenum>  (232) 
7

>  <r_i_glide_eff_state_penalty>  (232) 
0

>  <ligand_id>  (232) 
67

>  <original_smiles>  (232) 
Cn1nccc1C(=O)N(C1CC1)C1CCNC1

>  <smiles>  (232) 
[H]c1nn(C([H])([H])[H])c(C(=O)N(C2([H])C([H])([H])C2([H])[H])C2([H])C([H])([H])C([H])([H])[N+]([H])([H])C2([H])[H])c1[H]

$$$$
67:0:1
     RDKit          3D

 36 38  0  0  1  0  0  0  0  0999 V2000
    2.1765   -1.2033    3.2400 C   0  0  0  0  0  0  0  0  0  0  0  0
    2.7865   -2.5136    3.3891 N   0  0  0  0  0  0  0  0  0  0  0  0
    2.8415   -3.0708    4.6180 N   0  0  0  0  0  0  0  0  0  0  0  0
    3.3657   -4.2748    4.4295 C   0  0  0  0  0  0  0  0  0  0  0  0
    3.6268   -4.5520    3.0661 C   0  0  0  0  0  0  0  0  0  0  0  0
    3.3540   -3.3872    2.4511 C   0  0  0  0  0  0  0  0  0  0  0  0
    3.4097   -3.0937    0.9886 C   0  0  0  0  0  0  0  0  0  0  0  0
    2.5992   -2.3133    0.5652 O   0  0  0  0  0  0  0  0  0  0  0  0
    4.3705   -3.6541    0.1581 N   0  0  0  0  0  0  0  0  0  0  0  0
    5.4434   -4.4927    0.6253 C   0  0  0  0  0  0  0  0  0  0  0  0
    6.7685   -4.5757   -0.0887 C   0  0  0  0  0  0  0  0  0  0  0  0
    5.7830   -5.7245   -0.1808 C   0  0  0  0  0  0  0  0  0  0  0  0
    4.3243   -3.3614   -1.3083 C   0  0  2  0  0  0  0  0  0  0  0  0
    4.4639   -1.8675   -1.6779 C   0  0  0  0  0  0  0  0  0  0  0  0
    3.2021   -1.5925   -2.5178 C   0  0  0  0  0  0  0  0  0  0  0  0
    2.2456   -2.6793   -2.1725 N   0  0  0  0  0  0  0  0  0  0  0  0
    3.0463   -3.8253   -1.9470 C   0  0  0  0  0  0  0  0  0  0  0  0
    1.1622   -1.3151    2.8470 H   0  0  0  0  0  0  0  0  0  0  0  0
    2.7493   -0.5767    2.5520 H   0  0  0  0  0  0  0  0  0  0  0  0
    2.1217   -0.6941    4.2060 H   0  0  0  0  0  0  0  0  0  0  0  0
    3.5277   -4.9302    5.2630 H   0  0  0  0  0  0  0  0  0  0  0  0
    4.0012   -5.4789    2.6298 H   0  0  0  0  0  0  0  0  0  0  0  0
    5.6382   -4.5437    1.6881 H   0  0  0  0  0  0  0  0  0  0  0  0
    6.9527   -3.9049   -0.9312 H   0  0  0  0  0  0  0  0  0  0  0  0
    7.6212   -4.7231    0.5645 H   0  0  0  0  0  0  0  0  0  0  0  0
    5.9963   -6.6263    0.3833 H   0  0  0  0  0  0  0  0  0  0  0  0
    5.2315   -5.8914   -1.1100 H   0  0  0  0  0  0  0  0  0  0  0  0
    5.0759   -3.8761   -1.8915 H   0  0  0  0  0  0  0  0  0  0  0  0
    4.5058   -1.2438   -0.7802 H   0  0  0  0  0  0  0  0  0  0  0  0
    5.3883   -1.6864   -2.2305 H   0  0  0  0  0  0  0  0  0  0  0  0
    2.8027   -0.5772   -2.3350 H   0  0  0  0  0  0  0  0  0  0  0  0
    3.4362   -1.7097   -3.5835 H   0  0  0  0  0  0  0  0  0  0  0  0
    1.8692   -2.3530   -1.2694 H   0  0  0  0  0  0  0  0  0  0  0  0
    3.2597   -4.1862   -2.9519 H   0  0  0  0  0  0  0  0  0  0  0  0
    2.4865   -4.5512   -1.3513 H   0  0  0  0  0  0  0  0  0  0  0  0
    1.4699   -2.7596   -2.8259 H   0  0  0  0  0  0  0  0  0  0  0  0
  1  2  1  0
  1 18  1  0
  1 19  1  0
  1 20  1  0
  2  6  1  0
  2  3  1  0
  3  4  2  0
  4  5  1  0
  4 21  1  0
  5  6  2  0
  5 22  1  0
  6  7  1  0
  7  8  2  0
  7  9  1  0
  9 10  1  0
  9 13  1  0
 10 12  1  0
 10 11  1  0
 10 23  1  0
 11 12  1  0
 11 24  1  0
 11 25  1  0
 12 26  1  0
 12 27  1  0
 13 17  1  0
 13 14  1  0
 13 28  1  6
 14 15  1  0
 14 29  1  0
 14 30  1  0
 15 16  1  0
 15 31  1  0
 15 32  1  0
 16 17  1  0
 16 33  1  0
 16 36  1  0
 17 34  1  0
 17 35  1  0
M  CHG  1  16   1
M  END
>  <i_m_ct_stereo_status>  (233) 
1

>  <s_m_source_file>  (233) 
/var/tmp/pbs.5076255.sched01/tmpoq50wh_d/842pmd5wfz.sdf

>  <i_m_source_file_index>  (233) 
4

>  <i_lp_mmshare_version>  (233) 
48012

>  <i_f3d_flags>  (233) 
0

>  <s_epik_input>  (233) 
W0NIM11uMW5bY0hdW2NIXWMxQyg9TylOKFtDSF0yW0NIMl1bQ0gyXTIpW0NAQEhdM1tDSDJdW0NIMl1bTkhdW0NIMl0z

>  <s_epik_cmdline>  (233) 
J2VwaWtfcHl0aG9uJywgJy1waHQnLCAnMi4wJywgJy1waCcsICc3LjAnLCAnLXRuJywgJzgnLCAnLW1hJywgJzIwMCcsICctaW1hZScsICc8aW5maWxlLm1hZT4nLCAnLW9tYWUnLCAnPG91dGZpbGUubWFlPic=

>  <r_lp_tautomer_probability>  (233) 
1

>  <r_epik_Ionization_Penalty>  (233) 
0.000308457

>  <r_epik_Ionization_Penalty_Charging>  (233) 
0.000307217

>  <r_epik_Ionization_Penalty_Neutral>  (233) 
1.24026e-06

>  <r_epik_State_Penalty>  (233) 
0.000184979

>  <r_epik_Charging_Adjusted_Penalty>  (233) 
0.000492196

>  <i_epik_Tot_Q>  (233) 
1

>  <i_epik_Tot_abs_Q>  (233) 
1

>  <s_lp_Force_Field>  (233) 
OPLS3e

>  <r_lp_Energy>  (233) 
33.9199

>  <b_lp_Chiralities_Consistent>  (233) 
1

>  <s_lp_Variant>  (233) 
67:0-1

>  <s_i_glide_gridfile>  (233) 
pfpi4k_grid

>  <i_i_glide_lignum>  (233) 
4

>  <i_i_glide_rotatable_bonds>  (233) 
4

>  <r_i_docking_score>  (233) 
-2.42838

>  <r_i_glide_ligand_efficiency>  (233) 
-0.142846

>  <r_i_glide_ligand_efficiency_sa>  (233) 
-0.367297

>  <r_i_glide_ligand_efficiency_ln>  (233) 
-0.63351

>  <r_i_glide_gscore>  (233) 
-2.42838

>  <r_i_glide_lipo>  (233) 
-0.1705

>  <r_i_glide_hbond>  (233) 
-0.128857

>  <r_i_glide_metal>  (233) 
-0

>  <r_i_glide_rewards>  (233) 
-2.30503

>  <r_i_glide_evdw>  (233) 
-4.11734

>  <r_i_glide_ecoul>  (233) 
-5.44022

>  <r_i_glide_erotb>  (233) 
1.24209

>  <r_i_glide_esite>  (233) 
-0.0441852

>  <r_i_glide_emodel>  (233) 
-10.7123

>  <r_i_glide_energy>  (233) 
-9.55756

>  <r_i_glide_einternal>  (233) 
7.86918

>  <r_i_glide_intrahb_reward>  (233) 
-0.5

>  <i_i_glide_confnum>  (233) 
2

>  <i_i_glide_posenum>  (233) 
1

>  <r_i_glide_eff_state_penalty>  (233) 
0

>  <ligand_id>  (233) 
67

>  <original_smiles>  (233) 
Cn1nccc1C(=O)N(C1CC1)C1CCNC1

>  <smiles>  (233) 
[H]c1nn(C([H])([H])[H])c(C(=O)N(C2([H])C([H])([H])C2([H])[H])C2([H])C([H])([H])C([H])([H])[N+]([H])([H])C2([H])[H])c1[H]

$$$$
67:0:2
     RDKit          3D

 36 38  0  0  1  0  0  0  0  0999 V2000
   -3.0714    2.9789    4.0026 C   0  0  0  0  0  0  0  0  0  0  0  0
   -2.5125    3.0218    5.3535 N   0  0  0  0  0  0  0  0  0  0  0  0
   -3.3354    3.1042    6.4206 N   0  0  0  0  0  0  0  0  0  0  0  0
   -2.5738    2.9106    7.4799 C   0  0  0  0  0  0  0  0  0  0  0  0
   -1.1912    2.7889    7.1426 C   0  0  0  0  0  0  0  0  0  0  0  0
   -1.1880    2.9551    5.7898 C   0  0  0  0  0  0  0  0  0  0  0  0
   -0.0029    2.8668    4.8888 C   0  0  0  0  0  0  0  0  0  0  0  0
   -0.2577    2.4432    3.7661 O   0  0  0  0  0  0  0  0  0  0  0  0
    1.2566    3.2550    5.2688 N   0  0  0  0  0  0  0  0  0  0  0  0
    1.5644    3.8864    6.5449 C   0  0  0  0  0  0  0  0  0  0  0  0
    2.7226    4.8577    6.7549 C   0  0  0  0  0  0  0  0  0  0  0  0
    2.8377    3.4628    7.2881 C   0  0  0  0  0  0  0  0  0  0  0  0
    2.4567    3.1823    4.3513 C   0  0  2  0  0  0  0  0  0  0  0  0
    2.6265    4.4576    3.5268 C   0  0  0  0  0  0  0  0  0  0  0  0
    1.8254    4.1405    2.3376 C   0  0  0  0  0  0  0  0  0  0  0  0
    1.9050    2.6985    2.0886 N   0  0  0  0  0  0  0  0  0  0  0  0
    2.3922    2.0571    3.2853 C   0  0  0  0  0  0  0  0  0  0  0  0
   -2.9731    1.9730    3.5989 H   0  0  0  0  0  0  0  0  0  0  0  0
   -2.5412    3.6525    3.3359 H   0  0  0  0  0  0  0  0  0  0  0  0
   -4.1277    3.2436    3.9917 H   0  0  0  0  0  0  0  0  0  0  0  0
   -3.0163    2.8797    8.4627 H   0  0  0  0  0  0  0  0  0  0  0  0
   -0.3531    2.6269    7.8022 H   0  0  0  0  0  0  0  0  0  0  0  0
    0.7482    4.2572    7.1258 H   0  0  0  0  0  0  0  0  0  0  0  0
    3.3237    5.1844    5.8945 H   0  0  0  0  0  0  0  0  0  0  0  0
    2.4995    5.6499    7.4503 H   0  0  0  0  0  0  0  0  0  0  0  0
    2.7495    3.3210    8.3596 H   0  0  0  0  0  0  0  0  0  0  0  0
    3.5756    2.7950    6.8168 H   0  0  0  0  0  0  0  0  0  0  0  0
    3.3871    3.0468    4.8405 H   0  0  0  0  0  0  0  0  0  0  0  0
    2.2675    5.3889    3.9770 H   0  0  0  0  0  0  0  0  0  0  0  0
    3.6461    4.6126    3.1673 H   0  0  0  0  0  0  0  0  0  0  0  0
    0.8042    4.3747    2.6815 H   0  0  0  0  0  0  0  0  0  0  0  0
    2.0407    4.8032    1.5042 H   0  0  0  0  0  0  0  0  0  0  0  0
    0.9550    2.3604    1.8369 H   0  0  0  0  0  0  0  0  0  0  0  0
    3.3867    1.6547    3.0957 H   0  0  0  0  0  0  0  0  0  0  0  0
    1.7818    1.1774    3.6169 H   0  0  0  0  0  0  0  0  0  0  0  0
    2.5178    2.5388    1.3053 H   0  0  0  0  0  0  0  0  0  0  0  0
  1  2  1  0
  1 18  1  0
  1 19  1  0
  1 20  1  0
  2  6  1  0
  2  3  1  0
  3  4  2  0
  4  5  1  0
  4 21  1  0
  5  6  2  0
  5 22  1  0
  6  7  1  0
  7  8  2  0
  7  9  1  0
  9 10  1  0
  9 13  1  0
 10 12  1  0
 10 11  1  0
 10 23  1  0
 11 12  1  0
 11 24  1  0
 11 25  1  0
 12 26  1  0
 12 27  1  0
 13 17  1  0
 13 14  1  0
 13 28  1  1
 14 15  1  0
 14 29  1  0
 14 30  1  0
 15 16  1  0
 15 31  1  0
 15 32  1  0
 16 17  1  0
 16 33  1  0
 16 36  1  0
 17 34  1  0
 17 35  1  0
M  CHG  1  16   1
M  END
>  <i_m_ct_stereo_status>  (234) 
1

>  <s_m_source_file>  (234) 
/var/tmp/pbs.5076255.sched01/tmpoq50wh_d/842pmd5wfz.sdf

>  <i_m_source_file_index>  (234) 
4

>  <i_lp_mmshare_version>  (234) 
48012

>  <i_f3d_flags>  (234) 
0

>  <s_epik_input>  (234) 
W0NIM11uMW5bY0hdW2NIXWMxQyg9TylOKFtDSF0yW0NIMl1bQ0gyXTIpW0NAQEhdM1tDSDJdW0NIMl1bTkhdW0NIMl0z

>  <s_epik_cmdline>  (234) 
J2VwaWtfcHl0aG9uJywgJy1waHQnLCAnMi4wJywgJy1waCcsICc3LjAnLCAnLXRuJywgJzgnLCAnLW1hJywgJzIwMCcsICctaW1hZScsICc8aW5maWxlLm1hZT4nLCAnLW9tYWUnLCAnPG91dGZpbGUubWFlPic=

>  <r_lp_tautomer_probability>  (234) 
1

>  <r_epik_Ionization_Penalty>  (234) 
0.000308457

>  <r_epik_Ionization_Penalty_Charging>  (234) 
0.000307217

>  <r_epik_Ionization_Penalty_Neutral>  (234) 
1.24026e-06

>  <r_epik_State_Penalty>  (234) 
0.000184979

>  <r_epik_Charging_Adjusted_Penalty>  (234) 
0.000492196

>  <i_epik_Tot_Q>  (234) 
1

>  <i_epik_Tot_abs_Q>  (234) 
1

>  <s_lp_Force_Field>  (234) 
OPLS3e

>  <r_lp_Energy>  (234) 
33.9199

>  <b_lp_Chiralities_Consistent>  (234) 
1

>  <s_lp_Variant>  (234) 
67:0-1

>  <s_i_glide_gridfile>  (234) 
pfpi4k_grid

>  <i_i_glide_lignum>  (234) 
4

>  <i_i_glide_rotatable_bonds>  (234) 
4

>  <r_i_docking_score>  (234) 
-1.62001

>  <r_i_glide_ligand_efficiency>  (234) 
-0.0952949

>  <r_i_glide_ligand_efficiency_sa>  (234) 
-0.24503

>  <r_i_glide_ligand_efficiency_ln>  (234) 
-0.422625

>  <r_i_glide_gscore>  (234) 
-1.62001

>  <r_i_glide_lipo>  (234) 
-0.150519

>  <r_i_glide_hbond>  (234) 
0

>  <r_i_glide_metal>  (234) 
-0

>  <r_i_glide_rewards>  (234) 
-1.80474

>  <r_i_glide_evdw>  (234) 
-4.65941

>  <r_i_glide_ecoul>  (234) 
-3.88459

>  <r_i_glide_erotb>  (234) 
1.24209

>  <r_i_glide_esite>  (234) 
-0.0911904

>  <r_i_glide_emodel>  (234) 
-3.00328

>  <r_i_glide_energy>  (234) 
-8.544

>  <r_i_glide_einternal>  (234) 
7.98265

>  <r_i_glide_intrahb_reward>  (234) 
-0

>  <i_i_glide_confnum>  (234) 
3

>  <i_i_glide_posenum>  (234) 
28

>  <r_i_glide_eff_state_penalty>  (234) 
0

>  <ligand_id>  (234) 
67

>  <original_smiles>  (234) 
Cn1nccc1C(=O)N(C1CC1)C1CCNC1

>  <smiles>  (234) 
[H]c1nn(C([H])([H])[H])c(C(=O)N(C2([H])C([H])([H])C2([H])[H])C2([H])C([H])([H])C([H])([H])[N+]([H])([H])C2([H])[H])c1[H]

$$$$
68:0:0
     RDKit          3D

 42 45  0  0  1  0  0  0  0  0999 V2000
    0.2475  -10.2675    3.0484 C   0  0  0  0  0  0  0  0  0  0  0  0
    0.9780   -9.1645    2.8461 C   0  0  0  0  0  0  0  0  0  0  0  0
    2.1663   -9.1485    1.8796 C   0  0  0  0  0  0  0  0  0  0  0  0
    3.3037   -8.1939    2.3269 C   0  0  0  0  0  0  0  0  0  0  0  0
    2.8147   -6.7530    2.6361 C   0  0  1  0  0  0  0  0  0  0  0  0
    2.5976   -5.9839    1.3278 C   0  0  0  0  0  0  0  0  0  0  0  0
    1.4764   -5.8597    0.8283 O   0  0  0  0  0  0  0  0  0  0  0  0
    3.8324   -5.4156    0.6118 C   0  0  2  0  0  0  0  0  0  0  0  0
    5.1864   -5.6342    1.2869 C   0  0  1  0  0  0  0  0  0  0  0  0
    6.2522   -4.8574    0.4872 C   0  0  0  0  0  0  0  0  0  0  0  0
    5.3430   -3.6630    0.8841 C   0  0  2  0  0  0  0  0  0  0  0  0
    5.9114   -2.2533    0.8922 C   0  0  0  0  0  0  0  0  0  0  0  0
    5.3303   -4.4199    2.2194 C   0  0  0  0  0  0  0  0  0  0  0  0
    5.4277   -4.1885    3.4240 O   0  0  0  0  0  0  0  0  0  0  0  0
    3.8986   -3.8750    0.3780 C   0  0  0  0  0  0  0  0  0  0  0  0
    3.7653   -3.5490   -1.1204 C   0  0  0  0  0  0  0  0  0  0  0  0
    2.8455   -3.0405    1.1592 C   0  0  0  0  0  0  0  0  0  0  0  0
    1.5478   -6.8447    3.3954 C   0  0  0  0  0  0  0  0  0  0  0  0
    1.0173   -5.8274    4.1095 O   0  0  0  0  0  0  0  0  0  0  0  0
   -0.1876   -6.2827    4.6847 N   0  0  0  0  0  0  0  0  0  0  0  0
   -0.3651   -7.5198    4.3064 N   0  0  0  0  0  0  0  0  0  0  0  0
    0.7037   -7.8866    3.5026 C   0  0  0  0  0  0  0  0  0  0  0  0
   -0.5919  -10.2796    3.7321 H   0  0  0  0  0  0  0  0  0  0  0  0
    0.5061  -11.1841    2.5408 H   0  0  0  0  0  0  0  0  0  0  0  0
    2.5542  -10.1562    1.7323 H   0  0  0  0  0  0  0  0  0  0  0  0
    1.8059   -8.8111    0.9058 H   0  0  0  0  0  0  0  0  0  0  0  0
    3.7568   -8.5997    3.2331 H   0  0  0  0  0  0  0  0  0  0  0  0
    4.0871   -8.2122    1.5671 H   0  0  0  0  0  0  0  0  0  0  0  0
    3.5474   -6.2300    3.2503 H   0  0  0  0  0  0  0  0  0  0  0  0
    3.8492   -5.9242   -0.3510 H   0  0  0  0  0  0  0  0  0  0  0  0
    5.4825   -6.6143    1.6601 H   0  0  0  0  0  0  0  0  0  0  0  0
    7.2720   -4.8784    0.8915 H   0  0  0  0  0  0  0  0  0  0  0  0
    6.2294   -5.0769   -0.5775 H   0  0  0  0  0  0  0  0  0  0  0  0
    6.0580   -1.9135   -0.1352 H   0  0  0  0  0  0  0  0  0  0  0  0
    6.8857   -2.2214    1.3814 H   0  0  0  0  0  0  0  0  0  0  0  0
    5.2550   -1.5446    1.3895 H   0  0  0  0  0  0  0  0  0  0  0  0
    3.8941   -2.4807   -1.2945 H   0  0  0  0  0  0  0  0  0  0  0  0
    2.7818   -3.8331   -1.4975 H   0  0  0  0  0  0  0  0  0  0  0  0
    4.5086   -4.0742   -1.7199 H   0  0  0  0  0  0  0  0  0  0  0  0
    3.0135   -1.9706    1.0404 H   0  0  0  0  0  0  0  0  0  0  0  0
    2.8324   -3.2564    2.2289 H   0  0  0  0  0  0  0  0  0  0  0  0
    1.8432   -3.2296    0.7799 H   0  0  0  0  0  0  0  0  0  0  0  0
  1  2  2  0
  1 23  1  0
  1 24  1  0
  2 22  1  0
  2  3  1  0
  3  4  1  0
  3 25  1  0
  3 26  1  0
  4  5  1  0
  4 27  1  0
  4 28  1  0
  5  6  1  0
  5 18  1  0
  5 29  1  1
  6  7  2  0
  6  8  1  0
  8 15  1  0
  8  9  1  0
  8 30  1  6
  9 13  1  0
  9 10  1  0
  9 31  1  1
 10 11  1  0
 10 32  1  0
 10 33  1  0
 11 12  1  1
 11 13  1  0
 11 15  1  0
 12 34  1  0
 12 35  1  0
 12 36  1  0
 13 14  2  0
 15 16  1  0
 15 17  1  0
 16 37  1  0
 16 38  1  0
 16 39  1  0
 17 40  1  0
 17 41  1  0
 17 42  1  0
 18 22  2  0
 18 19  1  0
 19 20  1  0
 20 21  2  0
 21 22  1  0
M  END
>  <i_m_ct_stereo_status>  (235) 
1

>  <s_m_source_file>  (235) 
/var/tmp/pbs.5076255.sched01/tmpoq50wh_d/842pmd5wfz.sdf

>  <i_m_source_file_index>  (235) 
5

>  <i_lp_mmshare_version>  (235) 
48012

>  <i_f3d_flags>  (235) 
0

>  <s_epik_input>  (235) 
bzFubmMoYzEyKUMoPVtDSDJdKVtDSDJdW0NIMl1bQ0BIXTJDKD1PKVtDQEBIXShDMyhbQ0gzXSlbQ0gzXSlbQ0BIXShDND1PKVtDSDJdW0NAQF0zNFtDSDNd

>  <s_epik_cmdline>  (235) 
J2VwaWtfcHl0aG9uJywgJy1waHQnLCAnMi4wJywgJy1waCcsICc3LjAnLCAnLXRuJywgJzgnLCAnLW1hJywgJzIwMCcsICctaW1hZScsICc8aW5maWxlLm1hZT4nLCAnLW9tYWUnLCAnPG91dGZpbGUubWFlPic=

>  <r_lp_tautomer_probability>  (235) 
1

>  <r_epik_Ionization_Penalty>  (235) 
2.42909e-12

>  <r_epik_Ionization_Penalty_Charging>  (235) 
0

>  <r_epik_Ionization_Penalty_Neutral>  (235) 
2.42909e-12

>  <r_epik_State_Penalty>  (235) 
-0

>  <r_epik_Charging_Adjusted_Penalty>  (235) 
0

>  <i_epik_Tot_Q>  (235) 
0

>  <i_epik_Tot_abs_Q>  (235) 
0

>  <s_lp_Force_Field>  (235) 
OPLS3e

>  <r_lp_Energy>  (235) 
27.997

>  <b_lp_Chiralities_Consistent>  (235) 
1

>  <s_lp_Variant>  (235) 
68:0-1

>  <s_i_glide_gridfile>  (235) 
pfpi4k_grid

>  <i_i_glide_lignum>  (235) 
5

>  <i_i_glide_rotatable_bonds>  (235) 
2

>  <r_i_docking_score>  (235) 
-3.22642

>  <r_i_glide_ligand_efficiency>  (235) 
-0.146655

>  <r_i_glide_ligand_efficiency_sa>  (235) 
-0.410934

>  <r_i_glide_ligand_efficiency_ln>  (235) 
-0.788654

>  <r_i_glide_gscore>  (235) 
-3.22642

>  <r_i_glide_lipo>  (235) 
-0.413673

>  <r_i_glide_hbond>  (235) 
-0.152122

>  <r_i_glide_metal>  (235) 
-0

>  <r_i_glide_rewards>  (235) 
-1.39934

>  <r_i_glide_evdw>  (235) 
-20.5232

>  <r_i_glide_ecoul>  (235) 
-3.66708

>  <r_i_glide_erotb>  (235) 
0.407495

>  <r_i_glide_esite>  (235) 
-0.0925538

>  <r_i_glide_emodel>  (235) 
-26.7569

>  <r_i_glide_energy>  (235) 
-24.1903

>  <r_i_glide_einternal>  (235) 
5.5011

>  <r_i_glide_intrahb_reward>  (235) 
-0

>  <i_i_glide_confnum>  (235) 
2

>  <i_i_glide_posenum>  (235) 
8

>  <r_i_glide_eff_state_penalty>  (235) 
0

>  <ligand_id>  (235) 
68

>  <original_smiles>  (235) 
C=C1CCC(C(=O)C2C3CC(C)(C3=O)C2(C)C)c2onnc21

>  <smiles>  (235) 
[H]C([H])=C1c2nnoc2C([H])(C(=O)C2([H])C3([H])C(=O)C(C([H])([H])[H])(C3([H])[H])C2(C([H])([H])[H])C([H])([H])[H])C([H])([H])C1([H])[H]

$$$$
68:0:1
     RDKit          3D

 42 45  0  0  1  0  0  0  0  0999 V2000
    4.9434   -8.5169    2.6932 C   0  0  0  0  0  0  0  0  0  0  0  0
    4.5970   -7.3561    2.1316 C   0  0  0  0  0  0  0  0  0  0  0  0
    5.5960   -6.2337    1.8719 C   0  0  0  0  0  0  0  0  0  0  0  0
    4.9917   -4.8018    1.9836 C   0  0  0  0  0  0  0  0  0  0  0  0
    3.6967   -4.5952    1.1488 C   0  0  1  0  0  0  0  0  0  0  0  0
    4.0619   -4.3695   -0.3198 C   0  0  0  0  0  0  0  0  0  0  0  0
    4.9425   -5.0354   -0.8642 O   0  0  0  0  0  0  0  0  0  0  0  0
    3.3084   -3.2841   -1.0878 C   0  0  2  0  0  0  0  0  0  0  0  0
    2.6453   -3.7032   -2.3995 C   0  0  1  0  0  0  0  0  0  0  0  0
    2.0743   -2.4543   -3.0579 C   0  0  0  0  0  0  0  0  0  0  0  0
    3.5476   -2.0160   -3.0274 C   0  0  2  0  0  0  0  0  0  0  0  0
    3.9622   -0.9358   -3.9974 C   0  0  0  0  0  0  0  0  0  0  0  0
    3.7192   -3.4466   -3.4877 C   0  0  0  0  0  0  0  0  0  0  0  0
    4.3705   -4.0202   -4.3614 O   0  0  0  0  0  0  0  0  0  0  0  0
    4.1393   -2.0714   -1.5956 C   0  0  0  0  0  0  0  0  0  0  0  0
    3.7893   -0.8349   -0.7731 C   0  0  0  0  0  0  0  0  0  0  0  0
    5.6894   -2.2239   -1.5455 C   0  0  0  0  0  0  0  0  0  0  0  0
    2.8768   -5.8206    1.2736 C   0  0  0  0  0  0  0  0  0  0  0  0
    1.5391   -5.8654    0.9745 O   0  0  0  0  0  0  0  0  0  0  0  0
    1.0779   -7.1422    1.3108 N   0  0  0  0  0  0  0  0  0  0  0  0
    2.1000   -7.8645    1.7094 N   0  0  0  0  0  0  0  0  0  0  0  0
    3.2113   -7.0432    1.7028 C   0  0  0  0  0  0  0  0  0  0  0  0
    4.2336   -9.3120    2.8890 H   0  0  0  0  0  0  0  0  0  0  0  0
    5.9694   -8.6662    2.9888 H   0  0  0  0  0  0  0  0  0  0  0  0
    6.4570   -6.3304    2.5282 H   0  0  0  0  0  0  0  0  0  0  0  0
    5.9923   -6.3875    0.8677 H   0  0  0  0  0  0  0  0  0  0  0  0
    4.7294   -4.6248    3.0225 H   0  0  0  0  0  0  0  0  0  0  0  0
    5.7276   -4.0449    1.7164 H   0  0  0  0  0  0  0  0  0  0  0  0
    3.1427   -3.7199    1.5075 H   0  0  0  0  0  0  0  0  0  0  0  0
    2.5303   -2.9190   -0.4137 H   0  0  0  0  0  0  0  0  0  0  0  0
    1.8033   -4.3819   -2.4053 H   0  0  0  0  0  0  0  0  0  0  0  0
    1.5877   -2.5950   -4.0424 H   0  0  0  0  0  0  0  0  0  0  0  0
    1.4471   -2.0274   -2.3369 H   0  0  0  0  0  0  0  0  0  0  0  0
    3.6595    0.0636   -3.6499 H   0  0  0  0  0  0  0  0  0  0  0  0
    3.5840   -1.1209   -5.0086 H   0  0  0  0  0  0  0  0  0  0  0  0
    5.0108   -0.9602   -4.0698 H   0  0  0  0  0  0  0  0  0  0  0  0
    4.2596    0.0379   -1.2124 H   0  0  0  0  0  0  0  0  0  0  0  0
    4.0804   -0.9250    0.2779 H   0  0  0  0  0  0  0  0  0  0  0  0
    2.7249   -0.6437   -0.8142 H   0  0  0  0  0  0  0  0  0  0  0  0
    6.1773   -1.3648   -1.9990 H   0  0  0  0  0  0  0  0  0  0  0  0
    6.0561   -3.1115   -2.0675 H   0  0  0  0  0  0  0  0  0  0  0  0
    6.0357   -2.2845   -0.5093 H   0  0  0  0  0  0  0  0  0  0  0  0
  1  2  2  0
  1 23  1  0
  1 24  1  0
  2 22  1  0
  2  3  1  0
  3  4  1  0
  3 25  1  0
  3 26  1  0
  4  5  1  0
  4 27  1  0
  4 28  1  0
  5  6  1  0
  5 18  1  0
  5 29  1  1
  6  7  2  0
  6  8  1  0
  8 15  1  0
  8  9  1  0
  8 30  1  1
  9 13  1  0
  9 10  1  0
  9 31  1  1
 10 11  1  0
 10 32  1  0
 10 33  1  0
 11 12  1  6
 11 13  1  0
 11 15  1  0
 12 34  1  0
 12 35  1  0
 12 36  1  0
 13 14  2  0
 15 16  1  0
 15 17  1  0
 16 37  1  0
 16 38  1  0
 16 39  1  0
 17 40  1  0
 17 41  1  0
 17 42  1  0
 18 22  2  0
 18 19  1  0
 19 20  1  0
 20 21  2  0
 21 22  1  0
M  END
>  <i_m_ct_stereo_status>  (236) 
1

>  <s_m_source_file>  (236) 
/var/tmp/pbs.5076255.sched01/tmpoq50wh_d/842pmd5wfz.sdf

>  <i_m_source_file_index>  (236) 
5

>  <i_lp_mmshare_version>  (236) 
48012

>  <i_f3d_flags>  (236) 
0

>  <s_epik_input>  (236) 
bzFubmMoYzEyKUMoPVtDSDJdKVtDSDJdW0NIMl1bQ0BIXTJDKD1PKVtDQEBIXShDMyhbQ0gzXSlbQ0gzXSlbQ0BIXShDND1PKVtDSDJdW0NAQF0zNFtDSDNd

>  <s_epik_cmdline>  (236) 
J2VwaWtfcHl0aG9uJywgJy1waHQnLCAnMi4wJywgJy1waCcsICc3LjAnLCAnLXRuJywgJzgnLCAnLW1hJywgJzIwMCcsICctaW1hZScsICc8aW5maWxlLm1hZT4nLCAnLW9tYWUnLCAnPG91dGZpbGUubWFlPic=

>  <r_lp_tautomer_probability>  (236) 
1

>  <r_epik_Ionization_Penalty>  (236) 
2.42909e-12

>  <r_epik_Ionization_Penalty_Charging>  (236) 
0

>  <r_epik_Ionization_Penalty_Neutral>  (236) 
2.42909e-12

>  <r_epik_State_Penalty>  (236) 
-0

>  <r_epik_Charging_Adjusted_Penalty>  (236) 
0

>  <i_epik_Tot_Q>  (236) 
0

>  <i_epik_Tot_abs_Q>  (236) 
0

>  <s_lp_Force_Field>  (236) 
OPLS3e

>  <r_lp_Energy>  (236) 
27.997

>  <b_lp_Chiralities_Consistent>  (236) 
1

>  <s_lp_Variant>  (236) 
68:0-1

>  <s_i_glide_gridfile>  (236) 
pfpi4k_grid

>  <i_i_glide_lignum>  (236) 
5

>  <i_i_glide_rotatable_bonds>  (236) 
2

>  <r_i_docking_score>  (236) 
-3.15787

>  <r_i_glide_ligand_efficiency>  (236) 
-0.14354

>  <r_i_glide_ligand_efficiency_sa>  (236) 
-0.402204

>  <r_i_glide_ligand_efficiency_ln>  (236) 
-0.771899

>  <r_i_glide_gscore>  (236) 
-3.15787

>  <r_i_glide_lipo>  (236) 
-0.484248

>  <r_i_glide_hbond>  (236) 
-0.0133363

>  <r_i_glide_metal>  (236) 
-0

>  <r_i_glide_rewards>  (236) 
-1.55734

>  <r_i_glide_evdw>  (236) 
-15.271

>  <r_i_glide_ecoul>  (236) 
-3.71691

>  <r_i_glide_erotb>  (236) 
0.407495

>  <r_i_glide_esite>  (236) 
-0.18936

>  <r_i_glide_emodel>  (236) 
-20.8303

>  <r_i_glide_energy>  (236) 
-18.9879

>  <r_i_glide_einternal>  (236) 
1.58461

>  <r_i_glide_intrahb_reward>  (236) 
-0

>  <i_i_glide_confnum>  (236) 
1

>  <i_i_glide_posenum>  (236) 
5

>  <r_i_glide_eff_state_penalty>  (236) 
0

>  <ligand_id>  (236) 
68

>  <original_smiles>  (236) 
C=C1CCC(C(=O)C2C3CC(C)(C3=O)C2(C)C)c2onnc21

>  <smiles>  (236) 
[H]C([H])=C1c2nnoc2C([H])(C(=O)C2([H])C3([H])C(=O)C(C([H])([H])[H])(C3([H])[H])C2(C([H])([H])[H])C([H])([H])[H])C([H])([H])C1([H])[H]

$$$$
68:0:2
     RDKit          3D

 42 45  0  0  1  0  0  0  0  0999 V2000
    3.0176   -9.7221    3.6577 C   0  0  0  0  0  0  0  0  0  0  0  0
    3.3029   -8.5329    3.1122 C   0  0  0  0  0  0  0  0  0  0  0  0
    4.7212   -7.9250    3.1460 C   0  0  0  0  0  0  0  0  0  0  0  0
    4.7266   -6.3674    3.2328 C   0  0  0  0  0  0  0  0  0  0  0  0
    3.8481   -5.6874    2.1689 C   0  0  1  0  0  0  0  0  0  0  0  0
    4.5838   -5.6283    0.8290 C   0  0  0  0  0  0  0  0  0  0  0  0
    4.5968   -6.5939    0.0693 O   0  0  0  0  0  0  0  0  0  0  0  0
    5.3376   -4.3497    0.4328 C   0  0  2  0  0  0  0  0  0  0  0  0
    5.8390   -3.4634    1.5723 C   0  0  1  0  0  0  0  0  0  0  0  0
    6.4452   -2.1789    0.9662 C   0  0  0  0  0  0  0  0  0  0  0  0
    4.9951   -2.0469    0.4117 C   0  0  2  0  0  0  0  0  0  0  0  0
    4.4259   -0.6967    0.0128 C   0  0  0  0  0  0  0  0  0  0  0  0
    4.6603   -2.5005    1.8292 C   0  0  0  0  0  0  0  0  0  0  0  0
    3.9229   -2.1459    2.7503 O   0  0  0  0  0  0  0  0  0  0  0  0
    4.5930   -3.2880   -0.4214 C   0  0  0  0  0  0  0  0  0  0  0  0
    5.1784   -3.2291   -1.8375 C   0  0  0  0  0  0  0  0  0  0  0  0
    3.0595   -3.5081   -0.5290 C   0  0  0  0  0  0  0  0  0  0  0  0
    2.6055   -6.4618    2.0131 C   0  0  0  0  0  0  0  0  0  0  0  0
    1.5149   -5.9620    1.4301 O   0  0  0  0  0  0  0  0  0  0  0  0
    0.4873   -6.9326    1.5133 N   0  0  0  0  0  0  0  0  0  0  0  0
    0.9953   -7.9746    2.1260 N   0  0  0  0  0  0  0  0  0  0  0  0
    2.3203   -7.7129    2.4282 C   0  0  0  0  0  0  0  0  0  0  0  0
    2.0167  -10.1434    3.6283 H   0  0  0  0  0  0  0  0  0  0  0  0
    3.7943  -10.2748    4.1668 H   0  0  0  0  0  0  0  0  0  0  0  0
    5.3073   -8.3493    3.9577 H   0  0  0  0  0  0  0  0  0  0  0  0
    5.2231   -8.1939    2.2143 H   0  0  0  0  0  0  0  0  0  0  0  0
    4.3374   -6.0697    4.2099 H   0  0  0  0  0  0  0  0  0  0  0  0
    5.7600   -5.9926    3.1985 H   0  0  0  0  0  0  0  0  0  0  0  0
    3.5373   -4.7028    2.5171 H   0  0  0  0  0  0  0  0  0  0  0  0
    6.1951   -4.7009   -0.1344 H   0  0  0  0  0  0  0  0  0  0  0  0
    6.3752   -3.9130    2.4119 H   0  0  0  0  0  0  0  0  0  0  0  0
    6.7763   -1.4131    1.6957 H   0  0  0  0  0  0  0  0  0  0  0  0
    7.2127   -2.3773    0.2208 H   0  0  0  0  0  0  0  0  0  0  0  0
    4.8647   -0.3691   -0.9226 H   0  0  0  0  0  0  0  0  0  0  0  0
    4.6461    0.0597    0.7702 H   0  0  0  0  0  0  0  0  0  0  0  0
    3.3435   -0.7382   -0.1143 H   0  0  0  0  0  0  0  0  0  0  0  0
    4.7043   -2.4288   -2.4070 H   0  0  0  0  0  0  0  0  0  0  0  0
    5.0150   -4.1688   -2.3698 H   0  0  0  0  0  0  0  0  0  0  0  0
    6.2526   -3.0344   -1.8228 H   0  0  0  0  0  0  0  0  0  0  0  0
    2.5738   -2.6874   -1.0521 H   0  0  0  0  0  0  0  0  0  0  0  0
    2.5706   -3.6147    0.4393 H   0  0  0  0  0  0  0  0  0  0  0  0
    2.8437   -4.4115   -1.0982 H   0  0  0  0  0  0  0  0  0  0  0  0
  1  2  2  0
  1 23  1  0
  1 24  1  0
  2 22  1  0
  2  3  1  0
  3  4  1  0
  3 25  1  0
  3 26  1  0
  4  5  1  0
  4 27  1  0
  4 28  1  0
  5  6  1  0
  5 18  1  0
  5 29  1  1
  6  7  2  0
  6  8  1  0
  8 15  1  0
  8  9  1  0
  8 30  1  6
  9 13  1  0
  9 10  1  0
  9 31  1  1
 10 11  1  0
 10 32  1  0
 10 33  1  0
 11 12  1  6
 11 13  1  0
 11 15  1  0
 12 34  1  0
 12 35  1  0
 12 36  1  0
 13 14  2  0
 15 16  1  0
 15 17  1  0
 16 37  1  0
 16 38  1  0
 16 39  1  0
 17 40  1  0
 17 41  1  0
 17 42  1  0
 18 22  2  0
 18 19  1  0
 19 20  1  0
 20 21  2  0
 21 22  1  0
M  END
>  <i_m_ct_stereo_status>  (237) 
1

>  <s_m_source_file>  (237) 
/var/tmp/pbs.5076255.sched01/tmpoq50wh_d/842pmd5wfz.sdf

>  <i_m_source_file_index>  (237) 
5

>  <i_lp_mmshare_version>  (237) 
48012

>  <i_f3d_flags>  (237) 
0

>  <s_epik_input>  (237) 
bzFubmMoYzEyKUMoPVtDSDJdKVtDSDJdW0NIMl1bQ0BIXTJDKD1PKVtDQEBIXShDMyhbQ0gzXSlbQ0gzXSlbQ0BIXShDND1PKVtDSDJdW0NAQF0zNFtDSDNd

>  <s_epik_cmdline>  (237) 
J2VwaWtfcHl0aG9uJywgJy1waHQnLCAnMi4wJywgJy1waCcsICc3LjAnLCAnLXRuJywgJzgnLCAnLW1hJywgJzIwMCcsICctaW1hZScsICc8aW5maWxlLm1hZT4nLCAnLW9tYWUnLCAnPG91dGZpbGUubWFlPic=

>  <r_lp_tautomer_probability>  (237) 
1

>  <r_epik_Ionization_Penalty>  (237) 
2.42909e-12

>  <r_epik_Ionization_Penalty_Charging>  (237) 
0

>  <r_epik_Ionization_Penalty_Neutral>  (237) 
2.42909e-12

>  <r_epik_State_Penalty>  (237) 
-0

>  <r_epik_Charging_Adjusted_Penalty>  (237) 
0

>  <i_epik_Tot_Q>  (237) 
0

>  <i_epik_Tot_abs_Q>  (237) 
0

>  <s_lp_Force_Field>  (237) 
OPLS3e

>  <r_lp_Energy>  (237) 
27.997

>  <b_lp_Chiralities_Consistent>  (237) 
1

>  <s_lp_Variant>  (237) 
68:0-1

>  <s_i_glide_gridfile>  (237) 
pfpi4k_grid

>  <i_i_glide_lignum>  (237) 
5

>  <i_i_glide_rotatable_bonds>  (237) 
2

>  <r_i_docking_score>  (237) 
-2.97127

>  <r_i_glide_ligand_efficiency>  (237) 
-0.135058

>  <r_i_glide_ligand_efficiency_sa>  (237) 
-0.378437

>  <r_i_glide_ligand_efficiency_ln>  (237) 
-0.726287

>  <r_i_glide_gscore>  (237) 
-2.97127

>  <r_i_glide_lipo>  (237) 
-0.42708

>  <r_i_glide_hbond>  (237) 
0

>  <r_i_glide_metal>  (237) 
-0

>  <r_i_glide_rewards>  (237) 
-1.49789

>  <r_i_glide_evdw>  (237) 
-21.5691

>  <r_i_glide_ecoul>  (237) 
-1.11294

>  <r_i_glide_erotb>  (237) 
0.407495

>  <r_i_glide_esite>  (237) 
-0.2084

>  <r_i_glide_emodel>  (237) 
-24.7807

>  <r_i_glide_energy>  (237) 
-22.682

>  <r_i_glide_einternal>  (237) 
5.32028

>  <r_i_glide_intrahb_reward>  (237) 
-0

>  <i_i_glide_confnum>  (237) 
2

>  <i_i_glide_posenum>  (237) 
1

>  <r_i_glide_eff_state_penalty>  (237) 
0

>  <ligand_id>  (237) 
68

>  <original_smiles>  (237) 
C=C1CCC(C(=O)C2C3CC(C)(C3=O)C2(C)C)c2onnc21

>  <smiles>  (237) 
[H]C([H])=C1c2nnoc2C([H])(C(=O)C2([H])C3([H])C(=O)C(C([H])([H])[H])(C3([H])[H])C2(C([H])([H])[H])C([H])([H])[H])C([H])([H])C1([H])[H]

$$$$
69:0:0
     RDKit          3D

 64 70  0  0  1  0  0  0  0  0999 V2000
    2.6192    4.1154    7.5058 C   0  0  0  0  0  0  0  0  0  0  0  0
    2.8028    2.9167    6.5704 C   0  0  0  0  0  0  0  0  0  0  0  0
    4.2595    2.9258    6.0783 C   0  0  0  0  0  0  0  0  0  0  0  0
    2.5749    1.7540    7.4418 O   0  0  0  0  0  0  0  0  0  0  0  0
    2.3178    0.4024    6.9659 C   0  0  1  0  0  0  0  0  0  0  0  0
    3.4435   -0.3748    6.2610 C   0  0  0  0  0  0  0  0  0  0  0  0
    3.0011   -0.8028    4.8202 C   0  0  2  0  0  0  0  0  0  0  0  0
    3.5463    0.1543    3.4485 C   0  0  1  0  0  0  0  0  0  0  0  0
    4.2790   -0.7340    2.6220 O   0  0  0  0  0  0  0  0  0  0  0  0
    2.6833    1.0509    2.5243 O   0  0  0  0  0  0  0  0  0  0  0  0
    2.1587    2.5490    2.5190 C   0  0  0  0  0  0  0  0  0  0  0  0
    0.8387    2.7428    3.4117 C   0  0  1  0  0  0  0  0  0  0  0  0
   -0.1061    3.7491    4.1451 C   0  0  1  0  0  0  0  0  0  0  0  0
   -1.1112    4.2229    3.2697 O   0  0  0  0  0  0  0  0  0  0  0  0
   -0.8164    3.0187    5.4953 C   0  0  0  0  0  0  0  0  0  0  0  0
   -0.2407    1.5751    6.0755 C   0  0  1  0  0  0  0  0  0  0  0  0
   -0.2390    0.8083    7.4320 C   0  0  0  0  0  0  0  0  0  0  0  0
    0.8847   -0.3306    7.2752 C   0  0  2  0  0  0  0  0  0  0  0  0
    1.0404   -1.0480    8.6312 C   0  0  0  0  0  0  0  0  0  0  0  0
    0.3776   -1.4044    6.1126 C   0  0  1  0  0  0  0  0  0  0  0  0
    0.1683   -2.6059    6.6799 F   0  0  0  0  0  0  0  0  0  0  0  0
   -1.0799   -0.8253    5.3686 C   0  0  0  0  0  0  0  0  0  0  0  0
   -2.1858   -1.3364    5.6728 O   0  0  0  0  0  0  0  0  0  0  0  0
   -1.0575    0.4536    4.1732 C   0  0  1  0  0  0  0  0  0  0  0  0
   -0.0084    0.4856    4.8690 C   0  0  0  0  0  0  0  0  0  0  0  0
    0.8656   -0.7339    3.9824 C   0  0  0  0  0  0  0  0  0  0  0  0
    1.5670   -1.5837    4.9367 C   0  0  1  0  0  0  0  0  0  0  0  0
    0.0940    1.5129    3.4163 C   0  0  1  0  0  0  0  0  0  0  0  0
   -0.2508    1.2632    1.9397 C   0  0  0  0  0  0  0  0  0  0  0  0
    1.5764    2.2761    4.3708 C   0  0  2  0  0  0  0  0  0  0  0  0
    1.8939    3.2214    5.4636 O   0  0  0  0  0  0  0  0  0  0  0  0
    1.5968    4.1442    7.8808 H   0  0  0  0  0  0  0  0  0  0  0  0
    2.8207    5.0514    6.9815 H   0  0  0  0  0  0  0  0  0  0  0  0
    3.2907    4.0355    8.3592 H   0  0  0  0  0  0  0  0  0  0  0  0
    4.4561    2.1119    5.4001 H   0  0  0  0  0  0  0  0  0  0  0  0
    4.9418    2.8396    6.9258 H   0  0  0  0  0  0  0  0  0  0  0  0
    4.4646    3.8506    5.5404 H   0  0  0  0  0  0  0  0  0  0  0  0
    2.1846    0.8653    6.0857 H   0  0  0  0  0  0  0  0  0  0  0  0
    4.4062    0.1410    6.2567 H   0  0  0  0  0  0  0  0  0  0  0  0
    3.6051   -1.2818    6.8427 H   0  0  0  0  0  0  0  0  0  0  0  0
    3.6602   -1.6605    4.7051 H   0  0  0  0  0  0  0  0  0  0  0  0
    4.3310    0.8280    3.7772 H   0  0  0  0  0  0  0  0  0  0  0  0
    3.6816   -1.2813    2.1489 H   0  0  0  0  0  0  0  0  0  0  0  0
    2.9518    3.2491    2.8008 H   0  0  0  0  0  0  0  0  0  0  0  0
    1.8846    2.7928    1.5002 H   0  0  0  0  0  0  0  0  0  0  0  0
    0.4543    4.6421    4.4238 H   0  0  0  0  0  0  0  0  0  0  0  0
   -0.7244    4.3099    2.3911 H   0  0  0  0  0  0  0  0  0  0  0  0
   -0.7360    3.7433    6.2983 H   0  0  0  0  0  0  0  0  0  0  0  0
   -1.8907    2.9356    5.3229 H   0  0  0  0  0  0  0  0  0  0  0  0
    0.5638    2.0556    6.5286 H   0  0  0  0  0  0  0  0  0  0  0  0
    0.0169    1.4641    8.2683 H   0  0  0  0  0  0  0  0  0  0  0  0
   -1.2244    0.4146    7.6905 H   0  0  0  0  0  0  0  0  0  0  0  0
    0.1126   -1.5092    8.9799 H   0  0  0  0  0  0  0  0  0  0  0  0
    1.3861   -0.3663    9.4084 H   0  0  0  0  0  0  0  0  0  0  0  0
    1.7879   -1.8380    8.5586 H   0  0  0  0  0  0  0  0  0  0  0  0
   -1.8984    1.0749    4.4269 H   0  0  0  0  0  0  0  0  0  0  0  0
    0.9941    0.3584    4.8269 H   0  0  0  0  0  0  0  0  0  0  0  0
    0.2113   -1.4241    3.4302 H   0  0  0  0  0  0  0  0  0  0  0  0
    1.3517   -0.5280    3.0466 H   0  0  0  0  0  0  0  0  0  0  0  0
    1.6419   -2.5869    4.5478 H   0  0  0  0  0  0  0  0  0  0  0  0
   -1.1315    0.6284    1.8114 H   0  0  0  0  0  0  0  0  0  0  0  0
    0.5710    0.8338    1.3698 H   0  0  0  0  0  0  0  0  0  0  0  0
   -0.5138    2.2064    1.4871 H   0  0  0  0  0  0  0  0  0  0  0  0
    2.5523    1.8727    4.4569 H   0  0  0  0  0  0  0  0  0  0  0  0
  1  2  1  0
  1 32  1  0
  1 33  1  0
  1 34  1  0
  2 31  1  0
  2  3  1  0
  2  4  1  0
  3 35  1  0
  3 36  1  0
  3 37  1  0
  4  5  1  0
  5 18  1  0
  5  6  1  0
  5 38  1  6
  6  7  1  0
  6 39  1  0
  6 40  1  0
  7 27  1  0
  7  8  1  0
  7 41  1  6
  8  9  1  0
  8 10  1  0
  8 42  1  1
  9 43  1  0
 10 11  1  0
 12 11  1  6
 11 44  1  0
 11 45  1  0
 12 28  1  0
 12 30  1  0
 12 13  1  0
 13 14  1  0
 13 15  1  0
 13 46  1  1
 14 47  1  0
 15 16  1  0
 15 48  1  0
 15 49  1  0
 16 25  1  0
 16 17  1  0
 16 50  1  1
 17 18  1  0
 17 51  1  0
 17 52  1  0
 18 19  1  1
 18 20  1  0
 19 53  1  0
 19 54  1  0
 19 55  1  0
 20 27  1  0
 20 21  1  1
 20 22  1  0
 22 23  2  0
 22 24  1  0
 24 25  1  0
 24 28  1  0
 24 56  1  1
 25 26  1  0
 25 57  1  0
 26 27  1  0
 26 58  1  0
 26 59  1  0
 27 60  1  6
 28 29  1  6
 28 30  1  0
 29 61  1  0
 29 62  1  0
 29 63  1  0
 30 31  1  0
 30 64  1  6
M  END
>  <i_m_ct_stereo_status>  (238) 
1

>  <s_m_source_file>  (238) 
/var/tmp/pbs.5076255.sched01/tmpoq50wh_d/842pmd5wfz.sdf

>  <i_m_source_file_index>  (238) 
6

>  <i_lp_mmshare_version>  (238) 
48012

>  <i_f3d_flags>  (238) 
0

>  <s_epik_input>  (238) 
Tz1DMVtDQEBdMihGKVtDQEBIXShbQ0gyXTMpW0NAQEhdKFtDQEBIXShbT0hdKU9bQ0gyXTQpW0NIMl1bQ0BIXShPQyhbQ0gzXSkoW0NIM10pT1tDQEhdNTYpW0NAQF0yKFtDSDNdKVtDSDJdW0NASF0oW0NIMl1bQ0BASF03W09IXSlbQ0BASF0zW0NIXTFbQ0BdNihDNDU3KVtDSDNd

>  <s_epik_cmdline>  (238) 
J2VwaWtfcHl0aG9uJywgJy1waHQnLCAnMi4wJywgJy1waCcsICc3LjAnLCAnLXRuJywgJzgnLCAnLW1hJywgJzIwMCcsICctaW1hZScsICc8aW5maWxlLm1hZT4nLCAnLW9tYWUnLCAnPG91dGZpbGUubWFlPic=

>  <r_lp_tautomer_probability>  (238) 
1

>  <r_epik_Ionization_Penalty>  (238) 
4.32003e-07

>  <r_epik_Ionization_Penalty_Charging>  (238) 
0

>  <r_epik_Ionization_Penalty_Neutral>  (238) 
4.32003e-07

>  <r_epik_State_Penalty>  (238) 
-0

>  <r_epik_Charging_Adjusted_Penalty>  (238) 
0

>  <i_epik_Tot_Q>  (238) 
0

>  <i_epik_Tot_abs_Q>  (238) 
0

>  <s_epik_Chemistry_Notes>  (238) 
This compound contains an acetal/aminal-like group ( X-CH(R)-Y where X, Y are N, S, or O) that may be acid/base labile, releasing an aldehyde.

>  <s_lp_Force_Field>  (238) 
OPLS3e

>  <r_lp_Energy>  (238) 
901.42

>  <b_lp_Chiralities_Consistent>  (238) 
1

>  <s_lp_Variant>  (238) 
69:0-1

>  <s_i_glide_gridfile>  (238) 
pfpi4k_grid

>  <i_i_glide_lignum>  (238) 
6

>  <i_i_glide_rotatable_bonds>  (238) 
2

>  <r_i_docking_score>  (238) 
-3.04403

>  <r_i_glide_ligand_efficiency>  (238) 
-0.0981945

>  <r_i_glide_ligand_efficiency_sa>  (238) 
-0.308466

>  <r_i_glide_ligand_efficiency_ln>  (238) 
-0.686522

>  <r_i_glide_gscore>  (238) 
-3.04403

>  <r_i_glide_lipo>  (238) 
-0.00106553

>  <r_i_glide_hbond>  (238) 
-0.182183

>  <r_i_glide_metal>  (238) 
-0

>  <r_i_glide_rewards>  (238) 
-0.432862

>  <r_i_glide_evdw>  (238) 
-24.2863

>  <r_i_glide_ecoul>  (238) 
-7.66295

>  <r_i_glide_erotb>  (238) 
0

>  <r_i_glide_esite>  (238) 
-0.0641611

>  <r_i_glide_emodel>  (238) 
-37.9182

>  <r_i_glide_energy>  (238) 
-31.9493

>  <r_i_glide_einternal>  (238) 
0.72582

>  <r_i_glide_intrahb_reward>  (238) 
-0

>  <i_i_glide_confnum>  (238) 
2

>  <i_i_glide_posenum>  (238) 
23

>  <r_i_glide_eff_state_penalty>  (238) 
0

>  <ligand_id>  (238) 
69

>  <original_smiles>  (238) 
CC1(C)OC2CC3C(O)OCC45C(O)CC6CC2(C)C2(F)C(=O)C(C6CC32)C4(C)C5O1

>  <smiles>  (238) 
[H]OC1([H])OC([H])([H])C23C([H])(O[H])C([H])([H])C4([H])C([H])([H])C5(C([H])([H])[H])C6([H])OC(C([H])([H])[H])(C([H])([H])[H])OC2([H])C3(C([H])([H])[H])C2([H])C(=O)C5(F)C([H])(C([H])([H])C24[H])C1([H])C6([H])[H]

$$$$
69:0:1
     RDKit          3D

 64 70  0  0  1  0  0  0  0  0999 V2000
    1.4259    4.9486    7.7219 C   0  0  0  0  0  0  0  0  0  0  0  0
    1.9441    3.7136    6.9763 C   0  0  0  0  0  0  0  0  0  0  0  0
    3.4570    3.8835    6.7621 C   0  0  0  0  0  0  0  0  0  0  0  0
    1.6933    2.6108    7.9170 O   0  0  0  0  0  0  0  0  0  0  0  0
    1.7092    1.1944    7.5667 C   0  0  1  0  0  0  0  0  0  0  0  0
    3.0391    0.5226    7.1694 C   0  0  0  0  0  0  0  0  0  0  0  0
    2.9584   -0.0834    5.7239 C   0  0  2  0  0  0  0  0  0  0  0  0
    3.6485    0.8271    4.3771 C   0  0  1  0  0  0  0  0  0  0  0  0
    4.6289   -0.0083    3.8115 O   0  0  0  0  0  0  0  0  0  0  0  0
    2.8824    1.5028    3.2084 O   0  0  0  0  0  0  0  0  0  0  0  0
    2.1879    2.8995    2.9353 C   0  0  0  0  0  0  0  0  0  0  0  0
    0.6929    2.9768    3.5438 C   0  0  1  0  0  0  0  0  0  0  0  0
   -0.5044    3.8915    3.9846 C   0  0  1  0  0  0  0  0  0  0  0  0
   -1.3825    4.1060    2.8985 O   0  0  0  0  0  0  0  0  0  0  0  0
   -1.3718    3.1983    5.2562 C   0  0  0  0  0  0  0  0  0  0  0  0
   -0.7482    1.9025    6.0810 C   0  0  1  0  0  0  0  0  0  0  0  0
   -0.9165    1.2732    7.4932 C   0  0  0  0  0  0  0  0  0  0  0  0
    0.3471    0.2943    7.6818 C   0  0  2  0  0  0  0  0  0  0  0  0
    0.3252   -0.2759    9.1184 C   0  0  0  0  0  0  0  0  0  0  0  0
    0.2258   -0.9475    6.5798 C   0  0  1  0  0  0  0  0  0  0  0  0
    0.0488   -2.1072    7.2208 F   0  0  0  0  0  0  0  0  0  0  0  0
   -1.1355   -0.6683    5.5048 C   0  0  0  0  0  0  0  0  0  0  0  0
   -2.1784   -1.3020    5.6594 O   0  0  0  0  0  0  0  0  0  0  0  0
   -1.0148    0.5001    4.2010 C   0  0  1  0  0  0  0  0  0  0  0  0
   -0.1596    0.7646    5.0639 C   0  0  2  0  0  0  0  0  0  0  0  0
    1.0442   -0.3877    4.5092 C   0  0  0  0  0  0  0  0  0  0  0  0
    1.6309   -1.0447    5.6628 C   0  0  1  0  0  0  0  0  0  0  0  0
    0.1154    1.6573    3.5413 C   0  0  1  0  0  0  0  0  0  0  0  0
    0.1071    1.2678    2.0451 C   0  0  0  0  0  0  0  0  0  0  0  0
    1.2723    2.7114    4.6697 C   0  0  2  0  0  0  0  0  0  0  0  0
    1.2472    3.7864    5.6925 O   0  0  0  0  0  0  0  0  0  0  0  0
    0.3534    4.8573    7.8928 H   0  0  0  0  0  0  0  0  0  0  0  0
    1.6085    5.8558    7.1434 H   0  0  0  0  0  0  0  0  0  0  0  0
    1.9182    5.0422    8.6898 H   0  0  0  0  0  0  0  0  0  0  0  0
    3.8778    3.0438    6.2324 H   0  0  0  0  0  0  0  0  0  0  0  0
    3.9646    3.9678    7.7234 H   0  0  0  0  0  0  0  0  0  0  0  0
    3.6518    4.7769    6.1709 H   0  0  0  0  0  0  0  0  0  0  0  0
    1.6882    1.5553    6.6324 H   0  0  0  0  0  0  0  0  0  0  0  0
    3.9080    1.1651    7.2947 H   0  0  0  0  0  0  0  0  0  0  0  0
    3.1928   -0.3012    7.8652 H   0  0  0  0  0  0  0  0  0  0  0  0
    3.7286   -0.8481    5.8252 H   0  0  0  0  0  0  0  0  0  0  0  0
    4.2530    1.6338    4.7828 H   0  0  0  0  0  0  0  0  0  0  0  0
    5.1944    0.5411    3.2884 H   0  0  0  0  0  0  0  0  0  0  0  0
    2.8213    3.7281    3.2740 H   0  0  0  0  0  0  0  0  0  0  0  0
    2.1198    3.0207    1.8581 H   0  0  0  0  0  0  0  0  0  0  0  0
   -0.1331    4.8874    4.2430 H   0  0  0  0  0  0  0  0  0  0  0  0
   -0.8368    4.2241    2.1152 H   0  0  0  0  0  0  0  0  0  0  0  0
   -1.5584    3.9956    5.9712 H   0  0  0  0  0  0  0  0  0  0  0  0
   -2.3695    2.9417    4.8925 H   0  0  0  0  0  0  0  0  0  0  0  0
   -0.1134    2.5285    6.6072 H   0  0  0  0  0  0  0  0  0  0  0  0
   -0.9279    2.0279    8.2858 H   0  0  0  0  0  0  0  0  0  0  0  0
   -1.8765    0.7634    7.5985 H   0  0  0  0  0  0  0  0  0  0  0  0
   -0.5888   -0.8289    9.3451 H   0  0  0  0  0  0  0  0  0  0  0  0
    0.4194    0.5133    9.8657 H   0  0  0  0  0  0  0  0  0  0  0  0
    1.1641   -0.9576    9.2729 H   0  0  0  0  0  0  0  0  0  0  0  0
   -1.9775    1.0068    4.2294 H   0  0  0  0  0  0  0  0  0  0  0  0
    0.8527    0.7781    5.2408 H   0  0  0  0  0  0  0  0  0  0  0  0
    0.6074   -1.2142    3.9328 H   0  0  0  0  0  0  0  0  0  0  0  0
    1.6740   -0.2022    3.6629 H   0  0  0  0  0  0  0  0  0  0  0  0
    1.9034   -2.0701    5.4198 H   0  0  0  0  0  0  0  0  0  0  0  0
   -0.6342    0.4980    1.8208 H   0  0  0  0  0  0  0  0  0  0  0  0
    1.0703    0.8964    1.6958 H   0  0  0  0  0  0  0  0  0  0  0  0
   -0.1625    2.1296    1.4316 H   0  0  0  0  0  0  0  0  0  0  0  0
    2.2354    2.4127    4.9864 H   0  0  0  0  0  0  0  0  0  0  0  0
  1  2  1  0
  1 32  1  0
  1 33  1  0
  1 34  1  0
  2 31  1  0
  2  3  1  0
  2  4  1  0
  3 35  1  0
  3 36  1  0
  3 37  1  0
  4  5  1  0
  5 18  1  0
  5  6  1  0
  5 38  1  6
  6  7  1  0
  6 39  1  0
  6 40  1  0
  7 27  1  0
  7  8  1  0
  7 41  1  1
  8  9  1  0
  8 10  1  0
  8 42  1  1
  9 43  1  0
 10 11  1  0
 12 11  1  6
 11 44  1  0
 11 45  1  0
 12 28  1  0
 12 30  1  0
 12 13  1  0
 13 14  1  0
 13 15  1  0
 13 46  1  1
 14 47  1  0
 15 16  1  0
 15 48  1  0
 15 49  1  0
 16 25  1  0
 16 17  1  0
 16 50  1  1
 17 18  1  0
 17 51  1  0
 17 52  1  0
 18 19  1  1
 18 20  1  0
 19 53  1  0
 19 54  1  0
 19 55  1  0
 20 27  1  0
 20 21  1  1
 20 22  1  0
 22 23  2  0
 22 24  1  0
 24 25  1  0
 24 28  1  0
 24 56  1  1
 25 26  1  0
 25 57  1  6
 26 27  1  0
 26 58  1  0
 26 59  1  0
 27 60  1  6
 28 29  1  6
 28 30  1  0
 29 61  1  0
 29 62  1  0
 29 63  1  0
 30 31  1  0
 30 64  1  6
M  END
>  <i_m_ct_stereo_status>  (239) 
1

>  <s_m_source_file>  (239) 
/var/tmp/pbs.5076255.sched01/tmpoq50wh_d/842pmd5wfz.sdf

>  <i_m_source_file_index>  (239) 
6

>  <i_lp_mmshare_version>  (239) 
48012

>  <i_f3d_flags>  (239) 
0

>  <s_epik_input>  (239) 
Tz1DMVtDQEBdMihGKVtDQEBIXShbQ0gyXTMpW0NAQEhdKFtDQEBIXShbT0hdKU9bQ0gyXTQpW0NIMl1bQ0BIXShPQyhbQ0gzXSkoW0NIM10pT1tDQEhdNTYpW0NAQF0yKFtDSDNdKVtDSDJdW0NASF0oW0NIMl1bQ0BASF03W09IXSlbQ0BASF0zW0NIXTFbQ0BdNihDNDU3KVtDSDNd

>  <s_epik_cmdline>  (239) 
J2VwaWtfcHl0aG9uJywgJy1waHQnLCAnMi4wJywgJy1waCcsICc3LjAnLCAnLXRuJywgJzgnLCAnLW1hJywgJzIwMCcsICctaW1hZScsICc8aW5maWxlLm1hZT4nLCAnLW9tYWUnLCAnPG91dGZpbGUubWFlPic=

>  <r_lp_tautomer_probability>  (239) 
1

>  <r_epik_Ionization_Penalty>  (239) 
4.32003e-07

>  <r_epik_Ionization_Penalty_Charging>  (239) 
0

>  <r_epik_Ionization_Penalty_Neutral>  (239) 
4.32003e-07

>  <r_epik_State_Penalty>  (239) 
-0

>  <r_epik_Charging_Adjusted_Penalty>  (239) 
0

>  <i_epik_Tot_Q>  (239) 
0

>  <i_epik_Tot_abs_Q>  (239) 
0

>  <s_epik_Chemistry_Notes>  (239) 
This compound contains an acetal/aminal-like group ( X-CH(R)-Y where X, Y are N, S, or O) that may be acid/base labile, releasing an aldehyde.

>  <s_lp_Force_Field>  (239) 
OPLS3e

>  <r_lp_Energy>  (239) 
901.42

>  <b_lp_Chiralities_Consistent>  (239) 
1

>  <s_lp_Variant>  (239) 
69:0-1

>  <s_i_glide_gridfile>  (239) 
pfpi4k_grid

>  <i_i_glide_lignum>  (239) 
6

>  <i_i_glide_rotatable_bonds>  (239) 
2

>  <r_i_docking_score>  (239) 
-2.8335

>  <r_i_glide_ligand_efficiency>  (239) 
-0.0914031

>  <r_i_glide_ligand_efficiency_sa>  (239) 
-0.287132

>  <r_i_glide_ligand_efficiency_ln>  (239) 
-0.63904

>  <r_i_glide_gscore>  (239) 
-2.8335

>  <r_i_glide_lipo>  (239) 
0

>  <r_i_glide_hbond>  (239) 
-0.182808

>  <r_i_glide_metal>  (239) 
-0

>  <r_i_glide_rewards>  (239) 
-0.432862

>  <r_i_glide_evdw>  (239) 
-23.2222

>  <r_i_glide_ecoul>  (239) 
-6.42675

>  <r_i_glide_erotb>  (239) 
0

>  <r_i_glide_esite>  (239) 
-0.0927027

>  <r_i_glide_emodel>  (239) 
-35.0782

>  <r_i_glide_energy>  (239) 
-29.649

>  <r_i_glide_einternal>  (239) 
1.11088

>  <r_i_glide_intrahb_reward>  (239) 
-0

>  <i_i_glide_confnum>  (239) 
2

>  <i_i_glide_posenum>  (239) 
1

>  <r_i_glide_eff_state_penalty>  (239) 
0

>  <ligand_id>  (239) 
69

>  <original_smiles>  (239) 
CC1(C)OC2CC3C(O)OCC45C(O)CC6CC2(C)C2(F)C(=O)C(C6CC32)C4(C)C5O1

>  <smiles>  (239) 
[H]OC1([H])OC([H])([H])C23C([H])(O[H])C([H])([H])C4([H])C([H])([H])C5(C([H])([H])[H])C6([H])OC(C([H])([H])[H])(C([H])([H])[H])OC2([H])C3(C([H])([H])[H])C2([H])C(=O)C5(F)C([H])(C([H])([H])C24[H])C1([H])C6([H])[H]

$$$$
69:0:2
     RDKit          3D

 64 70  0  0  1  0  0  0  0  0999 V2000
    3.0504   -1.0545    2.6127 C   0  0  0  0  0  0  0  0  0  0  0  0
    2.2299    0.1929    2.9462 C   0  0  0  0  0  0  0  0  0  0  0  0
    2.1413    1.0467    1.6770 C   0  0  0  0  0  0  0  0  0  0  0  0
    0.9033   -0.3376    3.2886 O   0  0  0  0  0  0  0  0  0  0  0  0
   -0.1368    0.4188    3.9720 C   0  0  1  0  0  0  0  0  0  0  0  0
   -0.8136    1.6074    3.2613 C   0  0  0  0  0  0  0  0  0  0  0  0
   -0.6405    2.9234    4.0928 C   0  0  2  0  0  0  0  0  0  0  0  0
    0.6134    4.0681    3.6381 C   0  0  1  0  0  0  0  0  0  0  0  0
   -0.0662    5.2591    3.2993 O   0  0  0  0  0  0  0  0  0  0  0  0
    1.9111    4.4291    4.4008 O   0  0  0  0  0  0  0  0  0  0  0  0
    3.3863    3.8558    4.4884 C   0  0  0  0  0  0  0  0  0  0  0  0
    3.4997    2.6012    5.4969 C   0  0  1  0  0  0  0  0  0  0  0  0
    4.3373    1.3657    5.9756 C   0  0  1  0  0  0  0  0  0  0  0  0
    5.2354    1.7489    6.9948 O   0  0  0  0  0  0  0  0  0  0  0  0
    3.3344    0.1363    6.5512 C   0  0  0  0  0  0  0  0  0  0  0  0
    1.7021    0.1845    6.2645 C   0  0  1  0  0  0  0  0  0  0  0  0
    0.5312   -0.8410    6.1846 C   0  0  0  0  0  0  0  0  0  0  0  0
   -0.6640   -0.0557    5.4501 C   0  0  2  0  0  0  0  0  0  0  0  0
   -1.8140   -1.0443    5.1918 C   0  0  0  0  0  0  0  0  0  0  0  0
   -1.1747    1.1706    6.4531 C   0  0  1  0  0  0  0  0  0  0  0  0
   -2.4281    0.9430    6.8669 F   0  0  0  0  0  0  0  0  0  0  0  0
   -0.1239    1.2822    7.8316 C   0  0  0  0  0  0  0  0  0  0  0  0
   -0.5151    0.8328    8.9424 O   0  0  0  0  0  0  0  0  0  0  0  0
    1.4529    2.0168    7.7287 C   0  0  1  0  0  0  0  0  0  0  0  0
    1.0872    1.6699    6.5832 C   0  0  2  0  0  0  0  0  0  0  0  0
    0.0904    3.0666    6.2525 C   0  0  0  0  0  0  0  0  0  0  0  0
   -1.1461    2.6320    5.6203 C   0  0  1  0  0  0  0  0  0  0  0  0
    2.5043    2.7428    6.5233 C   0  0  1  0  0  0  0  0  0  0  0  0
    2.8748    4.0714    7.2227 C   0  0  0  0  0  0  0  0  0  0  0  0
    2.6197    2.0606    4.7159 C   0  0  2  0  0  0  0  0  0  0  0  0
    3.0528    0.8661    3.9514 O   0  0  0  0  0  0  0  0  0  0  0  0
    3.1342   -1.6931    3.4904 H   0  0  0  0  0  0  0  0  0  0  0  0
    4.0536   -0.7787    2.2867 H   0  0  0  0  0  0  0  0  0  0  0  0
    2.5663   -1.6173    1.8176 H   0  0  0  0  0  0  0  0  0  0  0  0
    1.5989    1.9660    1.8389 H   0  0  0  0  0  0  0  0  0  0  0  0
    1.6362    0.4969    0.8816 H   0  0  0  0  0  0  0  0  0  0  0  0
    3.1481    1.2993    1.3525 H   0  0  0  0  0  0  0  0  0  0  0  0
    0.6141    1.0542    4.1640 H   0  0  0  0  0  0  0  0  0  0  0  0
   -0.5142    1.7312    2.2191 H   0  0  0  0  0  0  0  0  0  0  0  0
   -1.8776    1.3787    3.2208 H   0  0  0  0  0  0  0  0  0  0  0  0
   -1.5140    3.4530    3.7163 H   0  0  0  0  0  0  0  0  0  0  0  0
    1.0215    3.7688    2.6793 H   0  0  0  0  0  0  0  0  0  0  0  0
   -0.0101    5.3415    2.3650 H   0  0  0  0  0  0  0  0  0  0  0  0
    3.7868    3.6165    3.4948 H   0  0  0  0  0  0  0  0  0  0  0  0
    4.0207    4.6509    4.8679 H   0  0  0  0  0  0  0  0  0  0  0  0
    4.9800    1.0095    5.1676 H   0  0  0  0  0  0  0  0  0  0  0  0
    4.7285    2.0834    7.7206 H   0  0  0  0  0  0  0  0  0  0  0  0
    3.7209   -0.7863    6.1243 H   0  0  0  0  0  0  0  0  0  0  0  0
    3.5075    0.0145    7.6218 H   0  0  0  0  0  0  0  0  0  0  0  0
    1.8489   -0.1425    5.2915 H   0  0  0  0  0  0  0  0  0  0  0  0
    0.8042   -1.7284    5.6027 H   0  0  0  0  0  0  0  0  0  0  0  0
    0.2448   -1.2405    7.1635 H   0  0  0  0  0  0  0  0  0  0  0  0
   -2.1929   -1.5159    6.0954 H   0  0  0  0  0  0  0  0  0  0  0  0
   -1.4805   -1.8368    4.5261 H   0  0  0  0  0  0  0  0  0  0  0  0
   -2.6553   -0.5377    4.7139 H   0  0  0  0  0  0  0  0  0  0  0  0
    2.0967    1.3622    8.3071 H   0  0  0  0  0  0  0  0  0  0  0  0
    0.7968    2.0195    5.6718 H   0  0  0  0  0  0  0  0  0  0  0  0
   -0.2426    3.5827    7.1632 H   0  0  0  0  0  0  0  0  0  0  0  0
    0.5088    4.0158    5.9513 H   0  0  0  0  0  0  0  0  0  0  0  0
   -1.9628    3.2973    5.8974 H   0  0  0  0  0  0  0  0  0  0  0  0
    2.4765    4.1266    8.2383 H   0  0  0  0  0  0  0  0  0  0  0  0
    2.5010    4.9411    6.6817 H   0  0  0  0  0  0  0  0  0  0  0  0
    3.9598    4.1586    7.2987 H   0  0  0  0  0  0  0  0  0  0  0  0
    2.0148    2.3787    3.9018 H   0  0  0  0  0  0  0  0  0  0  0  0
  1  2  1  0
  1 32  1  0
  1 33  1  0
  1 34  1  0
  2 31  1  0
  2  3  1  0
  2  4  1  0
  3 35  1  0
  3 36  1  0
  3 37  1  0
  4  5  1  0
  5 18  1  0
  5  6  1  0
  5 38  1  1
  6  7  1  0
  6 39  1  0
  6 40  1  0
  7 27  1  0
  7  8  1  0
  7 41  1  6
  8  9  1  0
  8 10  1  0
  8 42  1  6
  9 43  1  0
 10 11  1  0
 12 11  1  6
 11 44  1  0
 11 45  1  0
 12 28  1  0
 12 30  1  0
 12 13  1  0
 13 14  1  0
 13 15  1  0
 13 46  1  6
 14 47  1  0
 15 16  1  0
 15 48  1  0
 15 49  1  0
 16 25  1  0
 16 17  1  0
 16 50  1  6
 17 18  1  0
 17 51  1  0
 17 52  1  0
 18 19  1  6
 18 20  1  0
 19 53  1  0
 19 54  1  0
 19 55  1  0
 20 27  1  0
 20 21  1  1
 20 22  1  0
 22 23  2  0
 22 24  1  0
 24 25  1  0
 24 28  1  0
 24 56  1  1
 25 26  1  0
 25 57  1  6
 26 27  1  0
 26 58  1  0
 26 59  1  0
 27 60  1  1
 28 29  1  6
 28 30  1  0
 29 61  1  0
 29 62  1  0
 29 63  1  0
 30 31  1  0
 30 64  1  6
M  END
>  <i_m_ct_stereo_status>  (240) 
1

>  <s_m_source_file>  (240) 
/var/tmp/pbs.5076255.sched01/tmpoq50wh_d/842pmd5wfz.sdf

>  <i_m_source_file_index>  (240) 
6

>  <i_lp_mmshare_version>  (240) 
48012

>  <i_f3d_flags>  (240) 
0

>  <s_epik_input>  (240) 
Tz1DMVtDQEBdMihGKVtDQEBIXShbQ0gyXTMpW0NAQEhdKFtDQEBIXShbT0hdKU9bQ0gyXTQpW0NIMl1bQ0BIXShPQyhbQ0gzXSkoW0NIM10pT1tDQEhdNTYpW0NAQF0yKFtDSDNdKVtDSDJdW0NASF0oW0NIMl1bQ0BASF03W09IXSlbQ0BASF0zW0NIXTFbQ0BdNihDNDU3KVtDSDNd

>  <s_epik_cmdline>  (240) 
J2VwaWtfcHl0aG9uJywgJy1waHQnLCAnMi4wJywgJy1waCcsICc3LjAnLCAnLXRuJywgJzgnLCAnLW1hJywgJzIwMCcsICctaW1hZScsICc8aW5maWxlLm1hZT4nLCAnLW9tYWUnLCAnPG91dGZpbGUubWFlPic=

>  <r_lp_tautomer_probability>  (240) 
1

>  <r_epik_Ionization_Penalty>  (240) 
4.32003e-07

>  <r_epik_Ionization_Penalty_Charging>  (240) 
0

>  <r_epik_Ionization_Penalty_Neutral>  (240) 
4.32003e-07

>  <r_epik_State_Penalty>  (240) 
-0

>  <r_epik_Charging_Adjusted_Penalty>  (240) 
0

>  <i_epik_Tot_Q>  (240) 
0

>  <i_epik_Tot_abs_Q>  (240) 
0

>  <s_epik_Chemistry_Notes>  (240) 
This compound contains an acetal/aminal-like group ( X-CH(R)-Y where X, Y are N, S, or O) that may be acid/base labile, releasing an aldehyde.

>  <s_lp_Force_Field>  (240) 
OPLS3e

>  <r_lp_Energy>  (240) 
901.42

>  <b_lp_Chiralities_Consistent>  (240) 
1

>  <s_lp_Variant>  (240) 
69:0-1

>  <s_i_glide_gridfile>  (240) 
pfpi4k_grid

>  <i_i_glide_lignum>  (240) 
6

>  <i_i_glide_rotatable_bonds>  (240) 
2

>  <r_i_docking_score>  (240) 
-2.82115

>  <r_i_glide_ligand_efficiency>  (240) 
-0.0910048

>  <r_i_glide_ligand_efficiency_sa>  (240) 
-0.285881

>  <r_i_glide_ligand_efficiency_ln>  (240) 
-0.636255

>  <r_i_glide_gscore>  (240) 
-2.82115

>  <r_i_glide_lipo>  (240) 
-0.00866285

>  <r_i_glide_hbond>  (240) 
0

>  <r_i_glide_metal>  (240) 
-0

>  <r_i_glide_rewards>  (240) 
-0.432862

>  <r_i_glide_evdw>  (240) 
-23.1586

>  <r_i_glide_ecoul>  (240) 
-6.70978

>  <r_i_glide_erotb>  (240) 
0

>  <r_i_glide_esite>  (240) 
-0.215226

>  <r_i_glide_emodel>  (240) 
-34.9421

>  <r_i_glide_energy>  (240) 
-29.8684

>  <r_i_glide_einternal>  (240) 
1.59659

>  <r_i_glide_intrahb_reward>  (240) 
-0

>  <i_i_glide_confnum>  (240) 
1

>  <i_i_glide_posenum>  (240) 
37

>  <r_i_glide_eff_state_penalty>  (240) 
0

>  <ligand_id>  (240) 
69

>  <original_smiles>  (240) 
CC1(C)OC2CC3C(O)OCC45C(O)CC6CC2(C)C2(F)C(=O)C(C6CC32)C4(C)C5O1

>  <smiles>  (240) 
[H]OC1([H])OC([H])([H])C23C([H])(O[H])C([H])([H])C4([H])C([H])([H])C5(C([H])([H])[H])C6([H])OC(C([H])([H])[H])(C([H])([H])[H])OC2([H])C3(C([H])([H])[H])C2([H])C(=O)C5(F)C([H])(C([H])([H])C24[H])C1([H])C6([H])[H]

$$$$
69:1:0
     RDKit          3D

 64 70  0  0  1  0  0  0  0  0999 V2000
    0.2172   -2.1014    4.6882 C   0  0  0  0  0  0  0  0  0  0  0  0
   -0.2830   -0.7476    5.2657 C   0  0  0  0  0  0  0  0  0  0  0  0
   -1.8226   -0.9150    5.2555 C   0  0  0  0  0  0  0  0  0  0  0  0
    0.3620   -0.8010    6.7278 O   0  0  0  0  0  0  0  0  0  0  0  0
    1.0123    0.2070    7.8285 C   0  0  1  0  0  0  0  0  0  0  0  0
    2.5121    0.2494    7.2874 C   0  0  0  0  0  0  0  0  0  0  0  0
    2.2369    0.5984    5.8236 C   0  0  2  0  0  0  0  0  0  0  0  0
    3.2274    1.0005    4.6082 C   0  0  1  0  0  0  0  0  0  0  0  0
    4.0531   -0.1173    4.3310 O   0  0  0  0  0  0  0  0  0  0  0  0
    2.4362    1.3256    3.4220 O   0  0  0  0  0  0  0  0  0  0  0  0
    1.8378    2.6477    3.0882 C   0  0  0  0  0  0  0  0  0  0  0  0
    0.2851    3.0552    3.3366 C   0  0  1  0  0  0  0  0  0  0  0  0
    0.1532    4.7476    3.7024 C   0  0  1  0  0  0  0  0  0  0  0  0
   -0.8576    5.3626    2.9274 O   0  0  0  0  0  0  0  0  0  0  0  0
    0.1200    5.4780    5.3389 C   0  0  0  0  0  0  0  0  0  0  0  0
    0.6956    4.6919    6.7893 C   0  0  1  0  0  0  0  0  0  0  0  0
    0.3534    3.5689    8.1136 C   0  0  0  0  0  0  0  0  0  0  0  0
    0.2261    1.7745    8.1866 C   0  0  2  0  0  0  0  0  0  0  0  0
   -0.6331    1.5318    9.4663 C   0  0  0  0  0  0  0  0  0  0  0  0
   -0.3499    1.5462    6.9083 C   0  0  1  0  0  0  0  0  0  0  0  0
   -1.2627    0.6081    7.2312 F   0  0  0  0  0  0  0  0  0  0  0  0
   -1.3714    2.4762    6.4615 C   0  0  0  0  0  0  0  0  0  0  0  0
   -2.5208    2.6253    6.8973 O   0  0  0  0  0  0  0  0  0  0  0  0
   -0.7442    3.2332    5.4652 C   0  0  1  0  0  0  0  0  0  0  0  0
    0.8593    3.6981    5.8847 C   0  0  2  0  0  0  0  0  0  0  0  0
    1.9538    2.8156    6.3387 C   0  0  0  0  0  0  0  0  0  0  0  0
    1.1520    1.6454    6.0164 C   0  0  1  0  0  0  0  0  0  0  0  0
   -0.9810    2.6552    4.1128 C   0  0  1  0  0  0  0  0  0  0  0  0
   -2.3949    2.9817    3.6153 C   0  0  0  0  0  0  0  0  0  0  0  0
   -0.4610    1.5062    3.4534 C   0  0  2  0  0  0  0  0  0  0  0  0
    0.0823    0.2195    4.1538 O   0  0  0  0  0  0  0  0  0  0  0  0
    1.3042   -2.1376    4.6301 H   0  0  0  0  0  0  0  0  0  0  0  0
   -0.1619   -2.2590    3.6789 H   0  0  0  0  0  0  0  0  0  0  0  0
   -0.1017   -2.9229    5.3306 H   0  0  0  0  0  0  0  0  0  0  0  0
   -2.3319    0.0479    5.2512 H   0  0  0  0  0  0  0  0  0  0  0  0
   -2.1427   -1.5193    6.0967 H   0  0  0  0  0  0  0  0  0  0  0  0
   -2.1425   -1.4293    4.3549 H   0  0  0  0  0  0  0  0  0  0  0  0
    1.0486   -0.3300    8.7700 H   0  0  0  0  0  0  0  0  0  0  0  0
    3.1320    0.9484    7.8414 H   0  0  0  0  0  0  0  0  0  0  0  0
    2.9781   -0.7351    7.3587 H   0  0  0  0  0  0  0  0  0  0  0  0
    2.0000   -0.3474    5.3830 H   0  0  0  0  0  0  0  0  0  0  0  0
    3.9560    1.7957    4.7878 H   0  0  0  0  0  0  0  0  0  0  0  0
    4.6048    0.1176    3.6045 H   0  0  0  0  0  0  0  0  0  0  0  0
    2.5165    3.4256    3.4355 H   0  0  0  0  0  0  0  0  0  0  0  0
    1.9477    2.6986    2.0104 H   0  0  0  0  0  0  0  0  0  0  0  0
    1.0445    5.1835    3.2478 H   0  0  0  0  0  0  0  0  0  0  0  0
   -0.6147    5.1612    2.0147 H   0  0  0  0  0  0  0  0  0  0  0  0
    0.7174    6.3879    5.2471 H   0  0  0  0  0  0  0  0  0  0  0  0
   -0.8672    5.8977    5.5532 H   0  0  0  0  0  0  0  0  0  0  0  0
    1.6339    5.1984    7.0436 H   0  0  0  0  0  0  0  0  0  0  0  0
    1.1129    3.8046    8.8644 H   0  0  0  0  0  0  0  0  0  0  0  0
   -0.5418    3.9775    8.6019 H   0  0  0  0  0  0  0  0  0  0  0  0
   -1.5429    2.1339    9.4828 H   0  0  0  0  0  0  0  0  0  0  0  0
   -0.0715    1.7550   10.3734 H   0  0  0  0  0  0  0  0  0  0  0  0
   -0.9489    0.4895    9.5626 H   0  0  0  0  0  0  0  0  0  0  0  0
   -1.4838    4.0241    5.5290 H   0  0  0  0  0  0  0  0  0  0  0  0
    1.6059    4.0619    5.1764 H   0  0  0  0  0  0  0  0  0  0  0  0
    2.8946    3.0126    5.8357 H   0  0  0  0  0  0  0  0  0  0  0  0
    2.3640    2.8802    7.3443 H   0  0  0  0  0  0  0  0  0  0  0  0
    1.0660    1.7742    5.0515 H   0  0  0  0  0  0  0  0  0  0  0  0
   -3.1215    2.2849    4.0253 H   0  0  0  0  0  0  0  0  0  0  0  0
   -2.4339    2.9112    2.5293 H   0  0  0  0  0  0  0  0  0  0  0  0
   -2.7119    3.9896    3.8764 H   0  0  0  0  0  0  0  0  0  0  0  0
   -0.9758    1.1656    2.5583 H   0  0  0  0  0  0  0  0  0  0  0  0
  1  2  1  0
  1 32  1  0
  1 33  1  0
  1 34  1  0
  2 31  1  0
  2  3  1  0
  2  4  1  0
  3 35  1  0
  3 36  1  0
  3 37  1  0
  4  5  1  0
  5 18  1  0
  5  6  1  0
  5 38  1  1
  6  7  1  0
  6 39  1  0
  6 40  1  0
  7 27  1  0
  7  8  1  0
  7 41  1  6
  8  9  1  0
  8 10  1  0
  8 42  1  1
  9 43  1  0
 10 11  1  0
 12 11  1  1
 11 44  1  0
 11 45  1  0
 12 28  1  0
 12 30  1  0
 12 13  1  0
 13 14  1  0
 13 15  1  0
 13 46  1  6
 14 47  1  0
 15 16  1  0
 15 48  1  0
 15 49  1  0
 16 25  1  0
 16 17  1  0
 16 50  1  1
 17 18  1  0
 17 51  1  0
 17 52  1  0
 18 19  1  1
 18 20  1  0
 19 53  1  0
 19 54  1  0
 19 55  1  0
 20 27  1  0
 20 21  1  1
 20 22  1  0
 22 23  2  0
 22 24  1  0
 24 25  1  0
 24 28  1  0
 24 56  1  6
 25 26  1  0
 25 57  1  6
 26 27  1  0
 26 58  1  0
 26 59  1  0
 27 60  1  6
 28 29  1  6
 28 30  1  0
 29 61  1  0
 29 62  1  0
 29 63  1  0
 30 31  1  0
 30 64  1  6
M  END
>  <i_m_ct_stereo_status>  (241) 
1

>  <s_m_source_file>  (241) 
/var/tmp/pbs.5076255.sched01/tmpoq50wh_d/842pmd5wfz.sdf

>  <i_m_source_file_index>  (241) 
7

>  <i_lp_mmshare_version>  (241) 
48012

>  <i_f3d_flags>  (241) 
0

>  <s_epik_input>  (241) 
Tz1DMVtDQEBdMihGKVtDQEBIXShbQ0gyXTMpW0NAQEhdKFtDQEBIXShbT0hdKU9bQ0gyXTQpW0NIMl1bQ0BIXShPQyhbQ0gzXSkoW0NIM10pT1tDQEhdNTYpW0NAQF0yKFtDSDNdKVtDSDJdW0NASF0oW0NIMl1bQ0BASF03W09IXSlbQ0BASF0zW0NIXTFbQ0BdNihDNDU3KVtDSDNd

>  <s_epik_cmdline>  (241) 
J2VwaWtfcHl0aG9uJywgJy1waHQnLCAnMi4wJywgJy1waCcsICc3LjAnLCAnLXRuJywgJzgnLCAnLW1hJywgJzIwMCcsICctaW1hZScsICc8aW5maWxlLm1hZT4nLCAnLW9tYWUnLCAnPG91dGZpbGUubWFlPic=

>  <r_lp_tautomer_probability>  (241) 
1

>  <r_epik_Ionization_Penalty>  (241) 
4.32003e-07

>  <r_epik_Ionization_Penalty_Charging>  (241) 
0

>  <r_epik_Ionization_Penalty_Neutral>  (241) 
4.32003e-07

>  <r_epik_State_Penalty>  (241) 
-0

>  <r_epik_Charging_Adjusted_Penalty>  (241) 
0

>  <i_epik_Tot_Q>  (241) 
0

>  <i_epik_Tot_abs_Q>  (241) 
0

>  <s_epik_Chemistry_Notes>  (241) 
This compound contains an acetal/aminal-like group ( X-CH(R)-Y where X, Y are N, S, or O) that may be acid/base labile, releasing an aldehyde.

>  <s_lp_Force_Field>  (241) 
OPLS3e

>  <r_lp_Energy>  (241) 
792.597

>  <b_lp_Chiralities_Consistent>  (241) 
1

>  <s_lp_Variant>  (241) 
69:0-2

>  <s_i_glide_gridfile>  (241) 
pfpi4k_grid

>  <i_i_glide_lignum>  (241) 
7

>  <i_i_glide_rotatable_bonds>  (241) 
2

>  <r_i_docking_score>  (241) 
-3.40957

>  <r_i_glide_ligand_efficiency>  (241) 
-0.109986

>  <r_i_glide_ligand_efficiency_sa>  (241) 
-0.345508

>  <r_i_glide_ligand_efficiency_ln>  (241) 
-0.768963

>  <r_i_glide_gscore>  (241) 
-3.40957

>  <r_i_glide_lipo>  (241) 
-0.025493

>  <r_i_glide_hbond>  (241) 
-0.293885

>  <r_i_glide_metal>  (241) 
-0

>  <r_i_glide_rewards>  (241) 
-0.454716

>  <r_i_glide_evdw>  (241) 
-23.1126

>  <r_i_glide_ecoul>  (241) 
-9.05588

>  <r_i_glide_erotb>  (241) 
0

>  <r_i_glide_esite>  (241) 
-0.121464

>  <r_i_glide_emodel>  (241) 
-39.5989

>  <r_i_glide_energy>  (241) 
-32.1685

>  <r_i_glide_einternal>  (241) 
0.703912

>  <r_i_glide_intrahb_reward>  (241) 
-0

>  <i_i_glide_confnum>  (241) 
2

>  <i_i_glide_posenum>  (241) 
22

>  <r_i_glide_eff_state_penalty>  (241) 
0

>  <ligand_id>  (241) 
69

>  <original_smiles>  (241) 
CC1(C)OC2CC3C(O)OCC45C(O)CC6CC2(C)C2(F)C(=O)C(C6CC32)C4(C)C5O1

>  <smiles>  (241) 
[H]OC1([H])OC([H])([H])C23C([H])(O[H])C([H])([H])C4([H])C([H])([H])C5(C([H])([H])[H])C6([H])OC(C([H])([H])[H])(C([H])([H])[H])OC2([H])C3(C([H])([H])[H])C2([H])C(=O)C5(F)C([H])(C([H])([H])C24[H])C1([H])C6([H])[H]

$$$$
69:1:1
     RDKit          3D

 64 70  0  0  1  0  0  0  0  0999 V2000
   -0.0753   -5.4888    5.3302 C   0  0  0  0  0  0  0  0  0  0  0  0
    1.4588   -5.5619    5.0927 C   0  0  0  0  0  0  0  0  0  0  0  0
    2.0071   -4.4862    6.0834 C   0  0  0  0  0  0  0  0  0  0  0  0
    1.7486   -7.0662    5.5438 O   0  0  0  0  0  0  0  0  0  0  0  0
    2.7277   -8.2963    5.1526 C   0  0  1  0  0  0  0  0  0  0  0  0
    1.8591   -8.9490    3.9756 C   0  0  0  0  0  0  0  0  0  0  0  0
    1.6278   -7.6908    3.1303 C   0  0  2  0  0  0  0  0  0  0  0  0
    1.0022   -7.4881    1.6565 C   0  0  1  0  0  0  0  0  0  0  0  0
   -0.3910   -7.8593    1.7032 O   0  0  0  0  0  0  0  0  0  0  0  0
    1.0894   -6.0885    1.2503 O   0  0  0  0  0  0  0  0  0  0  0  0
    2.2778   -5.4379    0.6055 C   0  0  0  0  0  0  0  0  0  0  0  0
    3.3844   -4.5355    1.3742 C   0  0  1  0  0  0  0  0  0  0  0  0
    4.9260   -4.7167    0.6033 C   0  0  1  0  0  0  0  0  0  0  0  0
    5.5377   -3.4550    0.3306 O   0  0  0  0  0  0  0  0  0  0  0  0
    6.2220   -5.8609    1.0781 C   0  0  0  0  0  0  0  0  0  0  0  0
    5.9725   -7.3150    2.0105 C   0  0  1  0  0  0  0  0  0  0  0  0
    5.7930   -8.0466    3.6162 C   0  0  0  0  0  0  0  0  0  0  0  0
    4.4611   -8.0223    4.8359 C   0  0  2  0  0  0  0  0  0  0  0  0
    5.1974   -8.3501    6.1800 C   0  0  0  0  0  0  0  0  0  0  0  0
    3.9928   -6.6976    4.6104 C   0  0  1  0  0  0  0  0  0  0  0  0
    3.7941   -6.3017    5.8755 F   0  0  0  0  0  0  0  0  0  0  0  0
    4.9875   -5.6697    4.3856 C   0  0  0  0  0  0  0  0  0  0  0  0
    5.8254   -5.1986    5.1815 O   0  0  0  0  0  0  0  0  0  0  0  0
    4.8883   -5.3757    3.0058 C   0  0  1  0  0  0  0  0  0  0  0  0
    4.7167   -6.7780    2.0401 C   0  0  2  0  0  0  0  0  0  0  0  0
    3.7325   -7.8700    2.1968 C   0  0  0  0  0  0  0  0  0  0  0  0
    3.0209   -7.0901    3.2076 C   0  0  1  0  0  0  0  0  0  0  0  0
    3.9615   -4.2286    2.7649 C   0  0  1  0  0  0  0  0  0  0  0  0
    4.6412   -2.8967    3.1120 C   0  0  0  0  0  0  0  0  0  0  0  0
    2.5464   -4.1115    2.8222 C   0  0  2  0  0  0  0  0  0  0  0  0
    1.5813   -5.0006    3.6863 O   0  0  0  0  0  0  0  0  0  0  0  0
   -0.6118   -6.1966    4.6980 H   0  0  0  0  0  0  0  0  0  0  0  0
   -0.4532   -4.4951    5.1018 H   0  0  0  0  0  0  0  0  0  0  0  0
   -0.3029   -5.7385    6.3635 H   0  0  0  0  0  0  0  0  0  0  0  0
    2.9899   -4.1306    5.7722 H   0  0  0  0  0  0  0  0  0  0  0  0
    2.0705   -4.9049    7.0847 H   0  0  0  0  0  0  0  0  0  0  0  0
    1.3587   -3.6147    6.1107 H   0  0  0  0  0  0  0  0  0  0  0  0
    2.6695   -9.0134    5.9902 H   0  0  0  0  0  0  0  0  0  0  0  0
    2.3693   -9.7722    3.4949 H   0  0  0  0  0  0  0  0  0  0  0  0
    0.9104   -9.3279    4.3568 H   0  0  0  0  0  0  0  0  0  0  0  0
    0.8067   -7.2178    3.6030 H   0  0  0  0  0  0  0  0  0  0  0  0
    1.3733   -8.1322    0.8788 H   0  0  0  0  0  0  0  0  0  0  0  0
   -0.4963   -8.5649    1.0936 H   0  0  0  0  0  0  0  0  0  0  0  0
    2.7359   -6.1634   -0.0572 H   0  0  0  0  0  0  0  0  0  0  0  0
    1.8230   -4.7405   -0.0911 H   0  0  0  0  0  0  0  0  0  0  0  0
    4.6708   -5.0262   -0.4153 H   0  0  0  0  0  0  0  0  0  0  0  0
    4.9117   -2.8947   -0.0691 H   0  0  0  0  0  0  0  0  0  0  0  0
    6.6442   -6.2055    0.1195 H   0  0  0  0  0  0  0  0  0  0  0  0
    7.0871   -5.3171    1.4863 H   0  0  0  0  0  0  0  0  0  0  0  0
    6.0593   -8.1451    1.3010 H   0  0  0  0  0  0  0  0  0  0  0  0
    5.9569   -9.1215    3.4388 H   0  0  0  0  0  0  0  0  0  0  0  0
    6.7196   -7.7909    4.1416 H   0  0  0  0  0  0  0  0  0  0  0  0
    6.0837   -7.7377    6.3331 H   0  0  0  0  0  0  0  0  0  0  0  0
    5.5033   -9.3967    6.2102 H   0  0  0  0  0  0  0  0  0  0  0  0
    4.5548   -8.1993    7.0534 H   0  0  0  0  0  0  0  0  0  0  0  0
    5.8614   -4.9122    2.9894 H   0  0  0  0  0  0  0  0  0  0  0  0
    4.3830   -6.7802    1.0016 H   0  0  0  0  0  0  0  0  0  0  0  0
    3.2567   -8.1531    1.2621 H   0  0  0  0  0  0  0  0  0  0  0  0
    4.0250   -8.8801    2.4715 H   0  0  0  0  0  0  0  0  0  0  0  0
    2.7508   -6.3201    2.6490 H   0  0  0  0  0  0  0  0  0  0  0  0
    4.5897   -2.6953    4.1816 H   0  0  0  0  0  0  0  0  0  0  0  0
    4.1417   -2.0738    2.5924 H   0  0  0  0  0  0  0  0  0  0  0  0
    5.6906   -2.8616    2.8128 H   0  0  0  0  0  0  0  0  0  0  0  0
    2.1226   -3.1111    2.8480 H   0  0  0  0  0  0  0  0  0  0  0  0
  1  2  1  0
  1 32  1  0
  1 33  1  0
  1 34  1  0
  2 31  1  0
  2  3  1  0
  2  4  1  0
  3 35  1  0
  3 36  1  0
  3 37  1  0
  4  5  1  0
  5 18  1  0
  5  6  1  0
  5 38  1  1
  6  7  1  0
  6 39  1  0
  6 40  1  0
  7 27  1  0
  7  8  1  0
  7 41  1  1
  8  9  1  0
  8 10  1  0
  8 42  1  6
  9 43  1  0
 10 11  1  0
 12 11  1  1
 11 44  1  0
 11 45  1  0
 12 28  1  0
 12 30  1  0
 12 13  1  0
 13 14  1  0
 13 15  1  0
 13 46  1  6
 14 47  1  0
 15 16  1  0
 15 48  1  0
 15 49  1  0
 16 25  1  0
 16 17  1  0
 16 50  1  6
 17 18  1  0
 17 51  1  0
 17 52  1  0
 18 19  1  1
 18 20  1  0
 19 53  1  0
 19 54  1  0
 19 55  1  0
 20 27  1  0
 20 21  1  1
 20 22  1  0
 22 23  2  0
 22 24  1  0
 24 25  1  0
 24 28  1  0
 24 56  1  6
 25 26  1  0
 25 57  1  6
 26 27  1  0
 26 58  1  0
 26 59  1  0
 27 60  1  6
 28 29  1  6
 28 30  1  0
 29 61  1  0
 29 62  1  0
 29 63  1  0
 30 31  1  0
 30 64  1  6
M  END
>  <i_m_ct_stereo_status>  (242) 
1

>  <s_m_source_file>  (242) 
/var/tmp/pbs.5076255.sched01/tmpoq50wh_d/842pmd5wfz.sdf

>  <i_m_source_file_index>  (242) 
7

>  <i_lp_mmshare_version>  (242) 
48012

>  <i_f3d_flags>  (242) 
0

>  <s_epik_input>  (242) 
Tz1DMVtDQEBdMihGKVtDQEBIXShbQ0gyXTMpW0NAQEhdKFtDQEBIXShbT0hdKU9bQ0gyXTQpW0NIMl1bQ0BIXShPQyhbQ0gzXSkoW0NIM10pT1tDQEhdNTYpW0NAQF0yKFtDSDNdKVtDSDJdW0NASF0oW0NIMl1bQ0BASF03W09IXSlbQ0BASF0zW0NIXTFbQ0BdNihDNDU3KVtDSDNd

>  <s_epik_cmdline>  (242) 
J2VwaWtfcHl0aG9uJywgJy1waHQnLCAnMi4wJywgJy1waCcsICc3LjAnLCAnLXRuJywgJzgnLCAnLW1hJywgJzIwMCcsICctaW1hZScsICc8aW5maWxlLm1hZT4nLCAnLW9tYWUnLCAnPG91dGZpbGUubWFlPic=

>  <r_lp_tautomer_probability>  (242) 
1

>  <r_epik_Ionization_Penalty>  (242) 
4.32003e-07

>  <r_epik_Ionization_Penalty_Charging>  (242) 
0

>  <r_epik_Ionization_Penalty_Neutral>  (242) 
4.32003e-07

>  <r_epik_State_Penalty>  (242) 
-0

>  <r_epik_Charging_Adjusted_Penalty>  (242) 
0

>  <i_epik_Tot_Q>  (242) 
0

>  <i_epik_Tot_abs_Q>  (242) 
0

>  <s_epik_Chemistry_Notes>  (242) 
This compound contains an acetal/aminal-like group ( X-CH(R)-Y where X, Y are N, S, or O) that may be acid/base labile, releasing an aldehyde.

>  <s_lp_Force_Field>  (242) 
OPLS3e

>  <r_lp_Energy>  (242) 
792.597

>  <b_lp_Chiralities_Consistent>  (242) 
1

>  <s_lp_Variant>  (242) 
69:0-2

>  <s_i_glide_gridfile>  (242) 
pfpi4k_grid

>  <i_i_glide_lignum>  (242) 
7

>  <i_i_glide_rotatable_bonds>  (242) 
2

>  <r_i_docking_score>  (242) 
-3.12872

>  <r_i_glide_ligand_efficiency>  (242) 
-0.100926

>  <r_i_glide_ligand_efficiency_sa>  (242) 
-0.317048

>  <r_i_glide_ligand_efficiency_ln>  (242) 
-0.705622

>  <r_i_glide_gscore>  (242) 
-3.12872

>  <r_i_glide_lipo>  (242) 
-0.256925

>  <r_i_glide_hbond>  (242) 
-0.16

>  <r_i_glide_metal>  (242) 
-0

>  <r_i_glide_rewards>  (242) 
-0.432862

>  <r_i_glide_evdw>  (242) 
-22.4385

>  <r_i_glide_ecoul>  (242) 
-7.3655

>  <r_i_glide_erotb>  (242) 
0

>  <r_i_glide_esite>  (242) 
-0.0521815

>  <r_i_glide_emodel>  (242) 
-35.3633

>  <r_i_glide_energy>  (242) 
-29.804

>  <r_i_glide_einternal>  (242) 
2.24558

>  <r_i_glide_intrahb_reward>  (242) 
-0

>  <i_i_glide_confnum>  (242) 
1

>  <i_i_glide_posenum>  (242) 
4

>  <r_i_glide_eff_state_penalty>  (242) 
0

>  <ligand_id>  (242) 
69

>  <original_smiles>  (242) 
CC1(C)OC2CC3C(O)OCC45C(O)CC6CC2(C)C2(F)C(=O)C(C6CC32)C4(C)C5O1

>  <smiles>  (242) 
[H]OC1([H])OC([H])([H])C23C([H])(O[H])C([H])([H])C4([H])C([H])([H])C5(C([H])([H])[H])C6([H])OC(C([H])([H])[H])(C([H])([H])[H])OC2([H])C3(C([H])([H])[H])C2([H])C(=O)C5(F)C([H])(C([H])([H])C24[H])C1([H])C6([H])[H]

$$$$
69:1:2
     RDKit          3D

 64 70  0  0  1  0  0  0  0  0999 V2000
   -0.1132   -5.3197    6.0967 C   0  0  0  0  0  0  0  0  0  0  0  0
    1.2438   -5.9712    5.7275 C   0  0  0  0  0  0  0  0  0  0  0  0
    2.2697   -5.1673    6.5765 C   0  0  0  0  0  0  0  0  0  0  0  0
    0.9944   -7.4628    6.2544 O   0  0  0  0  0  0  0  0  0  0  0  0
    1.3923   -8.9967    5.8627 C   0  0  1  0  0  0  0  0  0  0  0  0
    0.2229   -9.2838    4.8186 C   0  0  0  0  0  0  0  0  0  0  0  0
    0.3740   -8.0751    3.8936 C   0  0  2  0  0  0  0  0  0  0  0  0
   -0.3167   -7.6722    2.4940 C   0  0  1  0  0  0  0  0  0  0  0  0
   -1.6953   -7.4824    2.7363 O   0  0  0  0  0  0  0  0  0  0  0  0
    0.2620   -6.4262    1.9912 O   0  0  0  0  0  0  0  0  0  0  0  0
    1.5157   -6.2919    1.1903 C   0  0  0  0  0  0  0  0  0  0  0  0
    2.9723   -5.8571    1.7702 C   0  0  1  0  0  0  0  0  0  0  0  0
    4.2486   -6.6393    0.8729 C   0  0  1  0  0  0  0  0  0  0  0  0
    5.2419   -5.7207    0.4620 O   0  0  0  0  0  0  0  0  0  0  0  0
    5.0562   -8.1876    1.2927 C   0  0  0  0  0  0  0  0  0  0  0  0
    4.3792   -9.4070    2.3518 C   0  0  1  0  0  0  0  0  0  0  0  0
    4.1277   -9.9756    4.0130 C   0  0  0  0  0  0  0  0  0  0  0  0
    3.0615   -9.4076    5.3563 C   0  0  2  0  0  0  0  0  0  0  0  0
    3.7608   -9.9487    6.6429 C   0  0  0  0  0  0  0  0  0  0  0  0
    3.0915   -8.0103    5.0774 C   0  0  1  0  0  0  0  0  0  0  0  0
    3.2082   -7.5210    6.3269 F   0  0  0  0  0  0  0  0  0  0  0  0
    4.3745   -7.4383    4.6959 C   0  0  0  0  0  0  0  0  0  0  0  0
    5.4067   -7.3001    5.3680 O   0  0  0  0  0  0  0  0  0  0  0  0
    4.2214   -7.1701    3.3213 C   0  0  1  0  0  0  0  0  0  0  0  0
    3.4311   -8.4360    2.4576 C   0  0  2  0  0  0  0  0  0  0  0  0
    2.1297   -9.0611    2.7845 C   0  0  0  0  0  0  0  0  0  0  0  0
    1.8873   -8.0361    3.7956 C   0  0  1  0  0  0  0  0  0  0  0  0
    3.7773   -5.7630    3.0788 C   0  0  1  0  0  0  0  0  0  0  0  0
    4.9461   -4.7769    3.2611 C   0  0  0  0  0  0  0  0  0  0  0  0
    2.5265   -5.1130    3.2707 C   0  0  2  0  0  0  0  0  0  0  0  0
    1.4069   -5.5460    4.2760 O   0  0  0  0  0  0  0  0  0  0  0  0
   -0.9445   -5.7900    5.5756 H   0  0  0  0  0  0  0  0  0  0  0  0
   -0.1219   -4.2606    5.8345 H   0  0  0  0  0  0  0  0  0  0  0  0
   -0.2957   -5.4283    7.1655 H   0  0  0  0  0  0  0  0  0  0  0  0
    3.2700   -5.2183    6.1492 H   0  0  0  0  0  0  0  0  0  0  0  0
    2.2879   -5.5470    7.5965 H   0  0  0  0  0  0  0  0  0  0  0  0
    2.0043   -4.1104    6.6087 H   0  0  0  0  0  0  0  0  0  0  0  0
    1.1691   -9.6034    6.7377 H   0  0  0  0  0  0  0  0  0  0  0  0
    0.3168  -10.2605    4.3483 H   0  0  0  0  0  0  0  0  0  0  0  0
   -0.7434   -9.2590    5.3224 H   0  0  0  0  0  0  0  0  0  0  0  0
   -0.1359   -7.3027    4.4230 H   0  0  0  0  0  0  0  0  0  0  0  0
   -0.3034   -8.4263    1.7081 H   0  0  0  0  0  0  0  0  0  0  0  0
   -2.0627   -8.3244    2.9554 H   0  0  0  0  0  0  0  0  0  0  0  0
    1.5778   -7.1521    0.5327 H   0  0  0  0  0  0  0  0  0  0  0  0
    1.2841   -5.4914    0.4943 H   0  0  0  0  0  0  0  0  0  0  0  0
    3.7949   -6.8539   -0.0922 H   0  0  0  0  0  0  0  0  0  0  0  0
    4.8446   -5.0800   -0.1060 H   0  0  0  0  0  0  0  0  0  0  0  0
    5.1796   -8.6936    0.3337 H   0  0  0  0  0  0  0  0  0  0  0  0
    6.0951   -8.0036    1.5787 H   0  0  0  0  0  0  0  0  0  0  0  0
    4.0689  -10.2274    1.6964 H   0  0  0  0  0  0  0  0  0  0  0  0
    3.8507  -11.0289    3.8962 H   0  0  0  0  0  0  0  0  0  0  0  0
    5.1343  -10.0731    4.4264 H   0  0  0  0  0  0  0  0  0  0  0  0
    4.8259   -9.7189    6.6647 H   0  0  0  0  0  0  0  0  0  0  0  0
    3.6491  -11.0309    6.7153 H   0  0  0  0  0  0  0  0  0  0  0  0
    3.3294   -9.5402    7.5589 H   0  0  0  0  0  0  0  0  0  0  0  0
    5.2947   -7.1148    3.1644 H   0  0  0  0  0  0  0  0  0  0  0  0
    2.9958   -8.3246    1.4610 H   0  0  0  0  0  0  0  0  0  0  0  0
    1.4729   -9.1636    1.9253 H   0  0  0  0  0  0  0  0  0  0  0  0
    2.0533  -10.0969    3.1037 H   0  0  0  0  0  0  0  0  0  0  0  0
    1.8657   -7.2358    3.2296 H   0  0  0  0  0  0  0  0  0  0  0  0
    5.0987   -4.5439    4.3151 H   0  0  0  0  0  0  0  0  0  0  0  0
    4.7362   -3.8442    2.7374 H   0  0  0  0  0  0  0  0  0  0  0  0
    5.8885   -5.1556    2.8618 H   0  0  0  0  0  0  0  0  0  0  0  0
    2.5175   -4.0264    3.2616 H   0  0  0  0  0  0  0  0  0  0  0  0
  1  2  1  0
  1 32  1  0
  1 33  1  0
  1 34  1  0
  2 31  1  0
  2  3  1  0
  2  4  1  0
  3 35  1  0
  3 36  1  0
  3 37  1  0
  4  5  1  0
  5 18  1  0
  5  6  1  0
  5 38  1  1
  6  7  1  0
  6 39  1  0
  6 40  1  0
  7 27  1  0
  7  8  1  0
  7 41  1  1
  8  9  1  0
  8 10  1  0
  8 42  1  6
  9 43  1  0
 10 11  1  0
 12 11  1  1
 11 44  1  0
 11 45  1  0
 12 28  1  0
 12 30  1  0
 12 13  1  0
 13 14  1  0
 13 15  1  0
 13 46  1  6
 14 47  1  0
 15 16  1  0
 15 48  1  0
 15 49  1  0
 16 25  1  0
 16 17  1  0
 16 50  1  6
 17 18  1  0
 17 51  1  0
 17 52  1  0
 18 19  1  1
 18 20  1  0
 19 53  1  0
 19 54  1  0
 19 55  1  0
 20 27  1  0
 20 21  1  1
 20 22  1  0
 22 23  2  0
 22 24  1  0
 24 25  1  0
 24 28  1  0
 24 56  1  6
 25 26  1  0
 25 57  1  6
 26 27  1  0
 26 58  1  0
 26 59  1  0
 27 60  1  6
 28 29  1  6
 28 30  1  0
 29 61  1  0
 29 62  1  0
 29 63  1  0
 30 31  1  0
 30 64  1  6
M  END
>  <i_m_ct_stereo_status>  (243) 
1

>  <s_m_source_file>  (243) 
/var/tmp/pbs.5076255.sched01/tmpoq50wh_d/842pmd5wfz.sdf

>  <i_m_source_file_index>  (243) 
7

>  <i_lp_mmshare_version>  (243) 
48012

>  <i_f3d_flags>  (243) 
0

>  <s_epik_input>  (243) 
Tz1DMVtDQEBdMihGKVtDQEBIXShbQ0gyXTMpW0NAQEhdKFtDQEBIXShbT0hdKU9bQ0gyXTQpW0NIMl1bQ0BIXShPQyhbQ0gzXSkoW0NIM10pT1tDQEhdNTYpW0NAQF0yKFtDSDNdKVtDSDJdW0NASF0oW0NIMl1bQ0BASF03W09IXSlbQ0BASF0zW0NIXTFbQ0BdNihDNDU3KVtDSDNd

>  <s_epik_cmdline>  (243) 
J2VwaWtfcHl0aG9uJywgJy1waHQnLCAnMi4wJywgJy1waCcsICc3LjAnLCAnLXRuJywgJzgnLCAnLW1hJywgJzIwMCcsICctaW1hZScsICc8aW5maWxlLm1hZT4nLCAnLW9tYWUnLCAnPG91dGZpbGUubWFlPic=

>  <r_lp_tautomer_probability>  (243) 
1

>  <r_epik_Ionization_Penalty>  (243) 
4.32003e-07

>  <r_epik_Ionization_Penalty_Charging>  (243) 
0

>  <r_epik_Ionization_Penalty_Neutral>  (243) 
4.32003e-07

>  <r_epik_State_Penalty>  (243) 
-0

>  <r_epik_Charging_Adjusted_Penalty>  (243) 
0

>  <i_epik_Tot_Q>  (243) 
0

>  <i_epik_Tot_abs_Q>  (243) 
0

>  <s_epik_Chemistry_Notes>  (243) 
This compound contains an acetal/aminal-like group ( X-CH(R)-Y where X, Y are N, S, or O) that may be acid/base labile, releasing an aldehyde.

>  <s_lp_Force_Field>  (243) 
OPLS3e

>  <r_lp_Energy>  (243) 
792.597

>  <b_lp_Chiralities_Consistent>  (243) 
1

>  <s_lp_Variant>  (243) 
69:0-2

>  <s_i_glide_gridfile>  (243) 
pfpi4k_grid

>  <i_i_glide_lignum>  (243) 
7

>  <i_i_glide_rotatable_bonds>  (243) 
2

>  <r_i_docking_score>  (243) 
-2.97204

>  <r_i_glide_ligand_efficiency>  (243) 
-0.0958722

>  <r_i_glide_ligand_efficiency_sa>  (243) 
-0.301171

>  <r_i_glide_ligand_efficiency_ln>  (243) 
-0.670286

>  <r_i_glide_gscore>  (243) 
-2.97204

>  <r_i_glide_lipo>  (243) 
-0.201675

>  <r_i_glide_hbond>  (243) 
-0.185087

>  <r_i_glide_metal>  (243) 
-0

>  <r_i_glide_rewards>  (243) 
-0.432862

>  <r_i_glide_evdw>  (243) 
-26.0592

>  <r_i_glide_ecoul>  (243) 
-5.22784

>  <r_i_glide_erotb>  (243) 
0

>  <r_i_glide_esite>  (243) 
-0.0652778

>  <r_i_glide_emodel>  (243) 
-36.8915

>  <r_i_glide_energy>  (243) 
-31.287

>  <r_i_glide_einternal>  (243) 
2.31888

>  <r_i_glide_intrahb_reward>  (243) 
-0

>  <i_i_glide_confnum>  (243) 
1

>  <i_i_glide_posenum>  (243) 
1

>  <r_i_glide_eff_state_penalty>  (243) 
0

>  <ligand_id>  (243) 
69

>  <original_smiles>  (243) 
CC1(C)OC2CC3C(O)OCC45C(O)CC6CC2(C)C2(F)C(=O)C(C6CC32)C4(C)C5O1

>  <smiles>  (243) 
[H]OC1([H])OC([H])([H])C23C([H])(O[H])C([H])([H])C4([H])C([H])([H])C5(C([H])([H])[H])C6([H])OC(C([H])([H])[H])(C([H])([H])[H])OC2([H])C3(C([H])([H])[H])C2([H])C(=O)C5(F)C([H])(C([H])([H])C24[H])C1([H])C6([H])[H]

$$$$
69:2:0
     RDKit          3D

 64 70  0  0  1  0  0  0  0  0999 V2000
    2.7817    3.4714    7.8002 C   0  0  0  0  0  0  0  0  0  0  0  0
    2.9237    2.4049    6.7098 C   0  0  0  0  0  0  0  0  0  0  0  0
    4.2872    2.5922    6.0228 C   0  0  0  0  0  0  0  0  0  0  0  0
    2.8938    1.1486    7.4282 O   0  0  0  0  0  0  0  0  0  0  0  0
    2.5040   -0.0816    6.7920 C   0  0  1  0  0  0  0  0  0  0  0  0
    3.5335   -0.8237    5.9310 C   0  0  0  0  0  0  0  0  0  0  0  0
    2.9649   -1.0477    4.4968 C   0  0  2  0  0  0  0  0  0  0  0  0
    3.4859    0.0395    3.2251 C   0  0  1  0  0  0  0  0  0  0  0  0
    4.1516   -0.7609    2.2720 O   0  0  0  0  0  0  0  0  0  0  0  0
    2.6128    1.0410    2.4446 O   0  0  0  0  0  0  0  0  0  0  0  0
    2.1560    2.5325    2.6318 C   0  0  0  0  0  0  0  0  0  0  0  0
    0.8877    2.6724    3.6037 C   0  0  1  0  0  0  0  0  0  0  0  0
    0.0832    3.7022    4.4228 C   0  0  1  0  0  0  0  0  0  0  0  0
   -0.9145    4.3228    3.6285 O   0  0  0  0  0  0  0  0  0  0  0  0
   -0.6181    2.9425    5.7349 C   0  0  0  0  0  0  0  0  0  0  0  0
   -0.3765    1.3300    6.1181 C   0  0  2  0  0  0  0  0  0  0  0  0
    0.1710    0.6035    7.4004 C   0  0  0  0  0  0  0  0  0  0  0  0
    1.0651   -0.7040    7.1093 C   0  0  2  0  0  0  0  0  0  0  0  0
    1.2135   -1.4990    8.4221 C   0  0  0  0  0  0  0  0  0  0  0  0
    0.4259   -1.7016    5.9212 C   0  0  1  0  0  0  0  0  0  0  0  0
    0.2551   -2.9423    6.3988 F   0  0  0  0  0  0  0  0  0  0  0  0
   -1.1010   -1.0651    5.3097 C   0  0  0  0  0  0  0  0  0  0  0  0
   -2.1735   -1.5294    5.6797 O   0  0  0  0  0  0  0  0  0  0  0  0
   -1.1059    0.3014    4.1664 C   0  0  1  0  0  0  0  0  0  0  0  0
   -0.1393    0.2876    4.8895 C   0  0  2  0  0  0  0  0  0  0  0  0
    0.7837   -0.7935    3.8309 C   0  0  0  0  0  0  0  0  0  0  0  0
    1.5015   -1.7607    4.6386 C   0  0  1  0  0  0  0  0  0  0  0  0
    0.0422    1.4650    3.5110 C   0  0  1  0  0  0  0  0  0  0  0  0
   -0.3719    1.4421    2.0362 C   0  0  0  0  0  0  0  0  0  0  0  0
    1.5733    2.0408    4.4983 C   0  0  2  0  0  0  0  0  0  0  0  0
    1.8541    2.7072    5.7959 O   0  0  0  0  0  0  0  0  0  0  0  0
    1.8225    3.3693    8.3064 H   0  0  0  0  0  0  0  0  0  0  0  0
    2.8378    4.4711    7.3666 H   0  0  0  0  0  0  0  0  0  0  0  0
    3.5726    3.3629    8.5418 H   0  0  0  0  0  0  0  0  0  0  0  0
    4.5044    1.7871    5.3374 H   0  0  0  0  0  0  0  0  0  0  0  0
    5.0847    2.6157    6.7654 H   0  0  0  0  0  0  0  0  0  0  0  0
    4.2902    3.5271    5.4620 H   0  0  0  0  0  0  0  0  0  0  0  0
    2.2615    0.4626    5.9939 H   0  0  0  0  0  0  0  0  0  0  0  0
    4.5100   -0.3355    5.9070 H   0  0  0  0  0  0  0  0  0  0  0  0
    3.6975   -1.7967    6.3935 H   0  0  0  0  0  0  0  0  0  0  0  0
    3.5539   -1.9270    4.2278 H   0  0  0  0  0  0  0  0  0  0  0  0
    4.2968    0.6574    3.6072 H   0  0  0  0  0  0  0  0  0  0  0  0
    4.5576   -0.1910    1.6457 H   0  0  0  0  0  0  0  0  0  0  0  0
    2.9930    3.1550    2.9631 H   0  0  0  0  0  0  0  0  0  0  0  0
    1.8665    2.9103    1.6572 H   0  0  0  0  0  0  0  0  0  0  0  0
    0.7546    4.5025    4.7431 H   0  0  0  0  0  0  0  0  0  0  0  0
   -0.5657    4.4433    2.7477 H   0  0  0  0  0  0  0  0  0  0  0  0
   -0.3497    3.5220    6.6170 H   0  0  0  0  0  0  0  0  0  0  0  0
   -1.6914    3.1086    5.6396 H   0  0  0  0  0  0  0  0  0  0  0  0
   -1.4280    1.2227    6.4004 H   0  0  0  0  0  0  0  0  0  0  0  0
    0.6623    1.3130    8.0598 H   0  0  0  0  0  0  0  0  0  0  0  0
   -0.6801    0.2828    8.0049 H   0  0  0  0  0  0  0  0  0  0  0  0
    0.2664   -1.9160    8.7745 H   0  0  0  0  0  0  0  0  0  0  0  0
    1.6301   -0.8834    9.2209 H   0  0  0  0  0  0  0  0  0  0  0  0
    1.9013   -2.3333    8.2793 H   0  0  0  0  0  0  0  0  0  0  0  0
   -1.9835    0.8872    4.4327 H   0  0  0  0  0  0  0  0  0  0  0  0
    0.8688    0.1694    4.8846 H   0  0  0  0  0  0  0  0  0  0  0  0
    0.1173   -1.4392    3.2410 H   0  0  0  0  0  0  0  0  0  0  0  0
    1.2213   -0.4967    2.9104 H   0  0  0  0  0  0  0  0  0  0  0  0
    1.5019   -2.7268    4.1470 H   0  0  0  0  0  0  0  0  0  0  0  0
   -1.2942    0.8837    1.8546 H   0  0  0  0  0  0  0  0  0  0  0  0
    0.3998    1.0426    1.3772 H   0  0  0  0  0  0  0  0  0  0  0  0
   -0.5932    2.4622    1.7433 H   0  0  0  0  0  0  0  0  0  0  0  0
    2.5416    1.6223    4.4784 H   0  0  0  0  0  0  0  0  0  0  0  0
  1  2  1  0
  1 32  1  0
  1 33  1  0
  1 34  1  0
  2 31  1  0
  2  3  1  0
  2  4  1  0
  3 35  1  0
  3 36  1  0
  3 37  1  0
  4  5  1  0
  5 18  1  0
  5  6  1  0
  5 38  1  6
  6  7  1  0
  6 39  1  0
  6 40  1  0
  7 27  1  0
  7  8  1  0
  7 41  1  6
  8  9  1  0
  8 10  1  0
  8 42  1  1
  9 43  1  0
 10 11  1  0
 12 11  1  6
 11 44  1  0
 11 45  1  0
 12 28  1  0
 12 30  1  0
 12 13  1  0
 13 14  1  0
 13 15  1  0
 13 46  1  1
 14 47  1  0
 15 16  1  0
 15 48  1  0
 15 49  1  0
 16 25  1  0
 16 17  1  0
 16 50  1  1
 17 18  1  0
 17 51  1  0
 17 52  1  0
 18 19  1  1
 18 20  1  0
 19 53  1  0
 19 54  1  0
 19 55  1  0
 20 27  1  0
 20 21  1  1
 20 22  1  0
 22 23  2  0
 22 24  1  0
 24 25  1  0
 24 28  1  0
 24 56  1  1
 25 26  1  0
 25 57  1  1
 26 27  1  0
 26 58  1  0
 26 59  1  0
 27 60  1  6
 28 29  1  6
 28 30  1  0
 29 61  1  0
 29 62  1  0
 29 63  1  0
 30 31  1  0
 30 64  1  6
M  END
>  <i_m_ct_stereo_status>  (244) 
1

>  <s_m_source_file>  (244) 
/var/tmp/pbs.5076255.sched01/tmpoq50wh_d/842pmd5wfz.sdf

>  <i_m_source_file_index>  (244) 
8

>  <i_lp_mmshare_version>  (244) 
48012

>  <i_f3d_flags>  (244) 
0

>  <s_epik_input>  (244) 
Tz1DMVtDQEBdMihGKVtDQEBIXShbQ0gyXTMpW0NAQEhdKFtDQEBIXShbT0hdKU9bQ0gyXTQpW0NIMl1bQ0BIXShPQyhbQ0gzXSkoW0NIM10pT1tDQEhdNTYpW0NAQF0yKFtDSDNdKVtDSDJdW0NASF0oW0NIMl1bQ0BASF03W09IXSlbQ0BASF0zW0NIXTFbQ0BdNihDNDU3KVtDSDNd

>  <s_epik_cmdline>  (244) 
J2VwaWtfcHl0aG9uJywgJy1waHQnLCAnMi4wJywgJy1waCcsICc3LjAnLCAnLXRuJywgJzgnLCAnLW1hJywgJzIwMCcsICctaW1hZScsICc8aW5maWxlLm1hZT4nLCAnLW9tYWUnLCAnPG91dGZpbGUubWFlPic=

>  <r_lp_tautomer_probability>  (244) 
1

>  <r_epik_Ionization_Penalty>  (244) 
4.32003e-07

>  <r_epik_Ionization_Penalty_Charging>  (244) 
0

>  <r_epik_Ionization_Penalty_Neutral>  (244) 
4.32003e-07

>  <r_epik_State_Penalty>  (244) 
-0

>  <r_epik_Charging_Adjusted_Penalty>  (244) 
0

>  <i_epik_Tot_Q>  (244) 
0

>  <i_epik_Tot_abs_Q>  (244) 
0

>  <s_epik_Chemistry_Notes>  (244) 
This compound contains an acetal/aminal-like group ( X-CH(R)-Y where X, Y are N, S, or O) that may be acid/base labile, releasing an aldehyde.

>  <s_lp_Force_Field>  (244) 
OPLS3e

>  <r_lp_Energy>  (244) 
880.253

>  <b_lp_Chiralities_Consistent>  (244) 
1

>  <s_lp_Variant>  (244) 
69:0-3

>  <s_i_glide_gridfile>  (244) 
pfpi4k_grid

>  <i_i_glide_lignum>  (244) 
8

>  <i_i_glide_rotatable_bonds>  (244) 
2

>  <r_i_docking_score>  (244) 
-2.85521

>  <r_i_glide_ligand_efficiency>  (244) 
-0.0921035

>  <r_i_glide_ligand_efficiency_sa>  (244) 
-0.289332

>  <r_i_glide_ligand_efficiency_ln>  (244) 
-0.643937

>  <r_i_glide_gscore>  (244) 
-2.85521

>  <r_i_glide_lipo>  (244) 
-0.00125848

>  <r_i_glide_hbond>  (244) 
-0.148455

>  <r_i_glide_metal>  (244) 
-0

>  <r_i_glide_rewards>  (244) 
-0.436099

>  <r_i_glide_evdw>  (244) 
-24.9686

>  <r_i_glide_ecoul>  (244) 
-6.45048

>  <r_i_glide_erotb>  (244) 
0

>  <r_i_glide_esite>  (244) 
-0.0533939

>  <r_i_glide_emodel>  (244) 
-36.4265

>  <r_i_glide_energy>  (244) 
-31.4191

>  <r_i_glide_einternal>  (244) 
1.37681

>  <r_i_glide_intrahb_reward>  (244) 
-0

>  <i_i_glide_confnum>  (244) 
1

>  <i_i_glide_posenum>  (244) 
3

>  <r_i_glide_eff_state_penalty>  (244) 
0

>  <ligand_id>  (244) 
69

>  <original_smiles>  (244) 
CC1(C)OC2CC3C(O)OCC45C(O)CC6CC2(C)C2(F)C(=O)C(C6CC32)C4(C)C5O1

>  <smiles>  (244) 
[H]OC1([H])OC([H])([H])C23C([H])(O[H])C([H])([H])C4([H])C([H])([H])C5(C([H])([H])[H])C6([H])OC(C([H])([H])[H])(C([H])([H])[H])OC2([H])C3(C([H])([H])[H])C2([H])C(=O)C5(F)C([H])(C([H])([H])C24[H])C1([H])C6([H])[H]

$$$$
69:2:1
     RDKit          3D

 64 70  0  0  1  0  0  0  0  0999 V2000
    4.2550    2.8917    7.2896 C   0  0  0  0  0  0  0  0  0  0  0  0
    3.3632    1.7806    6.7306 C   0  0  0  0  0  0  0  0  0  0  0  0
    4.2274    0.5249    6.5234 C   0  0  0  0  0  0  0  0  0  0  0  0
    2.3829    1.5466    7.7665 O   0  0  0  0  0  0  0  0  0  0  0  0
    1.0961    0.9773    7.4751 C   0  0  1  0  0  0  0  0  0  0  0  0
    0.9874   -0.5410    7.3169 C   0  0  0  0  0  0  0  0  0  0  0  0
    0.3446   -0.8763    5.9345 C   0  0  2  0  0  0  0  0  0  0  0  0
    1.4091   -1.3673    4.6281 C   0  0  1  0  0  0  0  0  0  0  0  0
    1.0487   -2.6912    4.3044 O   0  0  0  0  0  0  0  0  0  0  0  0
    1.6809   -0.5999    3.3152 O   0  0  0  0  0  0  0  0  0  0  0  0
    2.6632    0.5300    2.8325 C   0  0  0  0  0  0  0  0  0  0  0  0
    2.1489    2.0045    3.2131 C   0  0  1  0  0  0  0  0  0  0  0  0
    2.5894    3.4777    3.3397 C   0  0  1  0  0  0  0  0  0  0  0  0
    2.4686    4.1936    2.1304 O   0  0  0  0  0  0  0  0  0  0  0  0
    1.6996    4.2484    4.5141 C   0  0  0  0  0  0  0  0  0  0  0  0
    0.5592    3.4795    5.4562 C   0  0  2  0  0  0  0  0  0  0  0  0
    0.3873    3.3326    7.0089 C   0  0  0  0  0  0  0  0  0  0  0  0
   -0.2041    1.9104    7.4768 C   0  0  2  0  0  0  0  0  0  0  0  0
   -0.6552    2.0377    8.9469 C   0  0  0  0  0  0  0  0  0  0  0  0
   -1.4951    1.3900    6.5288 C   0  0  1  0  0  0  0  0  0  0  0  0
   -2.5760    1.1376    7.2847 F   0  0  0  0  0  0  0  0  0  0  0  0
   -1.8911    2.5579    5.2599 C   0  0  0  0  0  0  0  0  0  0  0  0
   -2.8496    3.3063    5.3674 O   0  0  0  0  0  0  0  0  0  0  0  0
   -0.8621    2.6594    3.8130 C   0  0  1  0  0  0  0  0  0  0  0  0
   -0.2672    2.2568    4.7708 C   0  0  2  0  0  0  0  0  0  0  0  0
   -0.7492    0.5671    4.5129 C   0  0  0  0  0  0  0  0  0  0  0  0
   -1.0518   -0.0423    5.7837 C   0  0  1  0  0  0  0  0  0  0  0  0
    0.6825    2.0141    3.2453 C   0  0  1  0  0  0  0  0  0  0  0  0
    0.2931    1.6008    1.8264 C   0  0  0  0  0  0  0  0  0  0  0  0
    2.1103    1.6029    4.4480 C   0  0  2  0  0  0  0  0  0  0  0  0
    2.9261    2.3085    5.4687 O   0  0  0  0  0  0  0  0  0  0  0  0
    3.6730    3.8000    7.4443 H   0  0  0  0  0  0  0  0  0  0  0  0
    5.0657    3.1141    6.5943 H   0  0  0  0  0  0  0  0  0  0  0  0
    4.6775    2.5878    8.2470 H   0  0  0  0  0  0  0  0  0  0  0  0
    3.6291   -0.3345    6.2543 H   0  0  0  0  0  0  0  0  0  0  0  0
    4.7629    0.2850    7.4425 H   0  0  0  0  0  0  0  0  0  0  0  0
    4.9447    0.7029    5.7239 H   0  0  0  0  0  0  0  0  0  0  0  0
    1.3253    1.0411    6.5073 H   0  0  0  0  0  0  0  0  0  0  0  0
    1.9372   -1.0604    7.4524 H   0  0  0  0  0  0  0  0  0  0  0  0
    0.3309   -0.9063    8.1052 H   0  0  0  0  0  0  0  0  0  0  0  0
   -0.0611   -1.8552    6.1908 H   0  0  0  0  0  0  0  0  0  0  0  0
    2.4072   -1.5058    5.0363 H   0  0  0  0  0  0  0  0  0  0  0  0
    0.2395   -2.6669    3.8026 H   0  0  0  0  0  0  0  0  0  0  0  0
    3.6767    0.3562    3.2101 H   0  0  0  0  0  0  0  0  0  0  0  0
    2.7264    0.4575    1.7504 H   0  0  0  0  0  0  0  0  0  0  0  0
    3.6508    3.5000    3.5958 H   0  0  0  0  0  0  0  0  0  0  0  0
    1.5713    4.1426    1.7866 H   0  0  0  0  0  0  0  0  0  0  0  0
    2.4144    4.7202    5.1885 H   0  0  0  0  0  0  0  0  0  0  0  0
    1.2216    5.0906    4.0119 H   0  0  0  0  0  0  0  0  0  0  0  0
   -0.0932    4.3587    5.3830 H   0  0  0  0  0  0  0  0  0  0  0  0
    1.3097    3.5997    7.5196 H   0  0  0  0  0  0  0  0  0  0  0  0
   -0.3096    4.1015    7.3568 H   0  0  0  0  0  0  0  0  0  0  0  0
   -1.4979    2.7277    9.0730 H   0  0  0  0  0  0  0  0  0  0  0  0
    0.1605    2.3827    9.5867 H   0  0  0  0  0  0  0  0  0  0  0  0
   -0.9637    1.0638    9.3340 H   0  0  0  0  0  0  0  0  0  0  0  0
   -0.8326    3.7242    3.5485 H   0  0  0  0  0  0  0  0  0  0  0  0
    0.2041    1.4304    5.1574 H   0  0  0  0  0  0  0  0  0  0  0  0
   -1.7046    0.5019    3.9713 H   0  0  0  0  0  0  0  0  0  0  0  0
   -0.3298   -0.0516    3.7584 H   0  0  0  0  0  0  0  0  0  0  0  0
   -1.8858   -0.7304    5.6686 H   0  0  0  0  0  0  0  0  0  0  0  0
   -0.6976    1.9650    1.5481 H   0  0  0  0  0  0  0  0  0  0  0  0
    0.3308    0.5226    1.6423 H   0  0  0  0  0  0  0  0  0  0  0  0
    0.9878    2.0942    1.1570 H   0  0  0  0  0  0  0  0  0  0  0  0
    2.3243    0.6634    4.8927 H   0  0  0  0  0  0  0  0  0  0  0  0
  1  2  1  0
  1 32  1  0
  1 33  1  0
  1 34  1  0
  2 31  1  0
  2  3  1  0
  2  4  1  0
  3 35  1  0
  3 36  1  0
  3 37  1  0
  4  5  1  0
  5 18  1  0
  5  6  1  0
  5 38  1  6
  6  7  1  0
  6 39  1  0
  6 40  1  0
  7 27  1  0
  7  8  1  0
  7 41  1  1
  8  9  1  0
  8 10  1  0
  8 42  1  1
  9 43  1  0
 10 11  1  0
 12 11  1  6
 11 44  1  0
 11 45  1  0
 12 28  1  0
 12 30  1  0
 12 13  1  0
 13 14  1  0
 13 15  1  0
 13 46  1  1
 14 47  1  0
 15 16  1  0
 15 48  1  0
 15 49  1  0
 16 25  1  0
 16 17  1  0
 16 50  1  6
 17 18  1  0
 17 51  1  0
 17 52  1  0
 18 19  1  1
 18 20  1  0
 19 53  1  0
 19 54  1  0
 19 55  1  0
 20 27  1  0
 20 21  1  1
 20 22  1  0
 22 23  2  0
 22 24  1  0
 24 25  1  0
 24 28  1  0
 24 56  1  1
 25 26  1  0
 25 57  1  1
 26 27  1  0
 26 58  1  0
 26 59  1  0
 27 60  1  6
 28 29  1  6
 28 30  1  0
 29 61  1  0
 29 62  1  0
 29 63  1  0
 30 31  1  0
 30 64  1  6
M  END
>  <i_m_ct_stereo_status>  (245) 
1

>  <s_m_source_file>  (245) 
/var/tmp/pbs.5076255.sched01/tmpoq50wh_d/842pmd5wfz.sdf

>  <i_m_source_file_index>  (245) 
8

>  <i_lp_mmshare_version>  (245) 
48012

>  <i_f3d_flags>  (245) 
0

>  <s_epik_input>  (245) 
Tz1DMVtDQEBdMihGKVtDQEBIXShbQ0gyXTMpW0NAQEhdKFtDQEBIXShbT0hdKU9bQ0gyXTQpW0NIMl1bQ0BIXShPQyhbQ0gzXSkoW0NIM10pT1tDQEhdNTYpW0NAQF0yKFtDSDNdKVtDSDJdW0NASF0oW0NIMl1bQ0BASF03W09IXSlbQ0BASF0zW0NIXTFbQ0BdNihDNDU3KVtDSDNd

>  <s_epik_cmdline>  (245) 
J2VwaWtfcHl0aG9uJywgJy1waHQnLCAnMi4wJywgJy1waCcsICc3LjAnLCAnLXRuJywgJzgnLCAnLW1hJywgJzIwMCcsICctaW1hZScsICc8aW5maWxlLm1hZT4nLCAnLW9tYWUnLCAnPG91dGZpbGUubWFlPic=

>  <r_lp_tautomer_probability>  (245) 
1

>  <r_epik_Ionization_Penalty>  (245) 
4.32003e-07

>  <r_epik_Ionization_Penalty_Charging>  (245) 
0

>  <r_epik_Ionization_Penalty_Neutral>  (245) 
4.32003e-07

>  <r_epik_State_Penalty>  (245) 
-0

>  <r_epik_Charging_Adjusted_Penalty>  (245) 
0

>  <i_epik_Tot_Q>  (245) 
0

>  <i_epik_Tot_abs_Q>  (245) 
0

>  <s_epik_Chemistry_Notes>  (245) 
This compound contains an acetal/aminal-like group ( X-CH(R)-Y where X, Y are N, S, or O) that may be acid/base labile, releasing an aldehyde.

>  <s_lp_Force_Field>  (245) 
OPLS3e

>  <r_lp_Energy>  (245) 
880.253

>  <b_lp_Chiralities_Consistent>  (245) 
1

>  <s_lp_Variant>  (245) 
69:0-3

>  <s_i_glide_gridfile>  (245) 
pfpi4k_grid

>  <i_i_glide_lignum>  (245) 
8

>  <i_i_glide_rotatable_bonds>  (245) 
2

>  <r_i_docking_score>  (245) 
-2.79794

>  <r_i_glide_ligand_efficiency>  (245) 
-0.090256

>  <r_i_glide_ligand_efficiency_sa>  (245) 
-0.283529

>  <r_i_glide_ligand_efficiency_ln>  (245) 
-0.631021

>  <r_i_glide_gscore>  (245) 
-2.79794

>  <r_i_glide_lipo>  (245) 
-0.00694938

>  <r_i_glide_hbond>  (245) 
-0.16

>  <r_i_glide_metal>  (245) 
-0

>  <r_i_glide_rewards>  (245) 
-0.476086

>  <r_i_glide_evdw>  (245) 
-21.6606

>  <r_i_glide_ecoul>  (245) 
-6.47914

>  <r_i_glide_erotb>  (245) 
0

>  <r_i_glide_esite>  (245) 
-0.1

>  <r_i_glide_emodel>  (245) 
-33.7209

>  <r_i_glide_energy>  (245) 
-28.1397

>  <r_i_glide_einternal>  (245) 
0.0465287

>  <r_i_glide_intrahb_reward>  (245) 
-0

>  <i_i_glide_confnum>  (245) 
2

>  <i_i_glide_posenum>  (245) 
15

>  <r_i_glide_eff_state_penalty>  (245) 
0

>  <ligand_id>  (245) 
69

>  <original_smiles>  (245) 
CC1(C)OC2CC3C(O)OCC45C(O)CC6CC2(C)C2(F)C(=O)C(C6CC32)C4(C)C5O1

>  <smiles>  (245) 
[H]OC1([H])OC([H])([H])C23C([H])(O[H])C([H])([H])C4([H])C([H])([H])C5(C([H])([H])[H])C6([H])OC(C([H])([H])[H])(C([H])([H])[H])OC2([H])C3(C([H])([H])[H])C2([H])C(=O)C5(F)C([H])(C([H])([H])C24[H])C1([H])C6([H])[H]

$$$$
69:2:2
     RDKit          3D

 64 70  0  0  1  0  0  0  0  0999 V2000
    2.4990   -0.9238    2.4785 C   0  0  0  0  0  0  0  0  0  0  0  0
    1.7732    0.3504    2.9208 C   0  0  0  0  0  0  0  0  0  0  0  0
    1.8241    1.3634    1.7786 C   0  0  0  0  0  0  0  0  0  0  0  0
    0.4101   -0.0705    3.1490 O   0  0  0  0  0  0  0  0  0  0  0  0
   -0.4715    0.6639    4.0173 C   0  0  1  0  0  0  0  0  0  0  0  0
   -1.1605    1.9296    3.4868 C   0  0  0  0  0  0  0  0  0  0  0  0
   -0.8446    3.1458    4.4116 C   0  0  2  0  0  0  0  0  0  0  0  0
    0.4024    4.2695    3.8943 C   0  0  1  0  0  0  0  0  0  0  0  0
   -0.2374    5.5122    3.7028 O   0  0  0  0  0  0  0  0  0  0  0  0
    1.7573    4.5375    4.5872 O   0  0  0  0  0  0  0  0  0  0  0  0
    3.1999    3.9169    4.5307 C   0  0  0  0  0  0  0  0  0  0  0  0
    3.3543    2.5960    5.4419 C   0  0  1  0  0  0  0  0  0  0  0  0
    4.2634    1.3691    5.6907 C   0  0  1  0  0  0  0  0  0  0  0  0
    5.2764    1.6840    6.6254 O   0  0  0  0  0  0  0  0  0  0  0  0
    3.3526    0.0906    6.2637 C   0  0  0  0  0  0  0  0  0  0  0  0
    1.6864    0.1435    6.4261 C   0  0  2  0  0  0  0  0  0  0  0  0
    0.5272   -0.7421    5.8370 C   0  0  0  0  0  0  0  0  0  0  0  0
   -0.8127    0.0657    5.4582 C   0  0  2  0  0  0  0  0  0  0  0  0
   -1.9552   -0.9473    5.2354 C   0  0  0  0  0  0  0  0  0  0  0  0
   -1.2712    1.1886    6.6229 C   0  0  1  0  0  0  0  0  0  0  0  0
   -2.5226    0.9517    7.0201 F   0  0  0  0  0  0  0  0  0  0  0  0
   -0.1696    1.1754    8.0002 C   0  0  0  0  0  0  0  0  0  0  0  0
   -0.5073    0.6285    9.0503 O   0  0  0  0  0  0  0  0  0  0  0  0
    1.4315    1.9525    7.8712 C   0  0  1  0  0  0  0  0  0  0  0  0
    1.0170    1.5760    6.8039 C   0  0  2  0  0  0  0  0  0  0  0  0
    0.0851    3.0585    6.5112 C   0  0  0  0  0  0  0  0  0  0  0  0
   -1.2082    2.7208    5.9456 C   0  0  1  0  0  0  0  0  0  0  0  0
    2.4571    2.6795    6.6119 C   0  0  1  0  0  0  0  0  0  0  0  0
    2.9643    3.9479    7.3401 C   0  0  0  0  0  0  0  0  0  0  0  0
    2.3629    2.0940    4.7858 C   0  0  2  0  0  0  0  0  0  0  0  0
    2.5511    0.8224    4.0336 O   0  0  0  0  0  0  0  0  0  0  0  0
    2.4814   -1.6627    3.2794 H   0  0  0  0  0  0  0  0  0  0  0  0
    3.5386   -0.7030    2.2318 H   0  0  0  0  0  0  0  0  0  0  0  0
    2.0114   -1.3490    1.6007 H   0  0  0  0  0  0  0  0  0  0  0  0
    1.2122    2.2332    1.9671 H   0  0  0  0  0  0  0  0  0  0  0  0
    1.4562    0.9003    0.8661 H   0  0  0  0  0  0  0  0  0  0  0  0
    2.8533    1.6929    1.6453 H   0  0  0  0  0  0  0  0  0  0  0  0
    0.3108    1.2243    4.2733 H   0  0  0  0  0  0  0  0  0  0  0  0
   -0.9233    2.1436    2.4433 H   0  0  0  0  0  0  0  0  0  0  0  0
   -2.2345    1.7467    3.5116 H   0  0  0  0  0  0  0  0  0  0  0  0
   -1.7262    3.7502    4.1873 H   0  0  0  0  0  0  0  0  0  0  0  0
    0.6870    4.0099    2.8821 H   0  0  0  0  0  0  0  0  0  0  0  0
    0.2054    5.9493    2.9871 H   0  0  0  0  0  0  0  0  0  0  0  0
    3.4930    3.7294    3.4936 H   0  0  0  0  0  0  0  0  0  0  0  0
    3.8917    4.6690    4.9030 H   0  0  0  0  0  0  0  0  0  0  0  0
    4.7758    1.0998    4.7633 H   0  0  0  0  0  0  0  0  0  0  0  0
    5.7825    2.4073    6.2877 H   0  0  0  0  0  0  0  0  0  0  0  0
    3.5902   -0.7745    5.6421 H   0  0  0  0  0  0  0  0  0  0  0  0
    3.7803   -0.1791    7.2314 H   0  0  0  0  0  0  0  0  0  0  0  0
    1.7452   -0.4153    7.3654 H   0  0  0  0  0  0  0  0  0  0  0  0
    0.8973   -1.3604    5.0217 H   0  0  0  0  0  0  0  0  0  0  0  0
    0.2507   -1.4916    6.5842 H   0  0  0  0  0  0  0  0  0  0  0  0
   -2.2206   -1.5027    6.1332 H   0  0  0  0  0  0  0  0  0  0  0  0
   -1.6788   -1.6804    4.4781 H   0  0  0  0  0  0  0  0  0  0  0  0
   -2.8535   -0.4383    4.8794 H   0  0  0  0  0  0  0  0  0  0  0  0
    2.0992    1.3122    8.4480 H   0  0  0  0  0  0  0  0  0  0  0  0
    0.6718    1.9029    5.9034 H   0  0  0  0  0  0  0  0  0  0  0  0
   -0.2023    3.5443    7.4552 H   0  0  0  0  0  0  0  0  0  0  0  0
    0.5193    3.9922    6.2330 H   0  0  0  0  0  0  0  0  0  0  0  0
   -1.9849    3.3680    6.3488 H   0  0  0  0  0  0  0  0  0  0  0  0
    2.6880    3.9514    8.3977 H   0  0  0  0  0  0  0  0  0  0  0  0
    2.5693    4.8650    6.9022 H   0  0  0  0  0  0  0  0  0  0  0  0
    4.0553    3.9974    7.3111 H   0  0  0  0  0  0  0  0  0  0  0  0
    1.7335    2.4924    4.0394 H   0  0  0  0  0  0  0  0  0  0  0  0
  1  2  1  0
  1 32  1  0
  1 33  1  0
  1 34  1  0
  2 31  1  0
  2  3  1  0
  2  4  1  0
  3 35  1  0
  3 36  1  0
  3 37  1  0
  4  5  1  0
  5 18  1  0
  5  6  1  0
  5 38  1  1
  6  7  1  0
  6 39  1  0
  6 40  1  0
  7 27  1  0
  7  8  1  0
  7 41  1  6
  8  9  1  0
  8 10  1  0
  8 42  1  6
  9 43  1  0
 10 11  1  0
 12 11  1  6
 11 44  1  0
 11 45  1  0
 12 28  1  0
 12 30  1  0
 12 13  1  0
 13 14  1  0
 13 15  1  0
 13 46  1  6
 14 47  1  0
 15 16  1  0
 15 48  1  0
 15 49  1  0
 16 25  1  0
 16 17  1  0
 16 50  1  1
 17 18  1  0
 17 51  1  0
 17 52  1  0
 18 19  1  6
 18 20  1  0
 19 53  1  0
 19 54  1  0
 19 55  1  0
 20 27  1  0
 20 21  1  1
 20 22  1  0
 22 23  2  0
 22 24  1  0
 24 25  1  0
 24 28  1  0
 24 56  1  1
 25 26  1  0
 25 57  1  1
 26 27  1  0
 26 58  1  0
 26 59  1  0
 27 60  1  1
 28 29  1  6
 28 30  1  0
 29 61  1  0
 29 62  1  0
 29 63  1  0
 30 31  1  0
 30 64  1  6
M  END
>  <i_m_ct_stereo_status>  (246) 
1

>  <s_m_source_file>  (246) 
/var/tmp/pbs.5076255.sched01/tmpoq50wh_d/842pmd5wfz.sdf

>  <i_m_source_file_index>  (246) 
8

>  <i_lp_mmshare_version>  (246) 
48012

>  <i_f3d_flags>  (246) 
0

>  <s_epik_input>  (246) 
Tz1DMVtDQEBdMihGKVtDQEBIXShbQ0gyXTMpW0NAQEhdKFtDQEBIXShbT0hdKU9bQ0gyXTQpW0NIMl1bQ0BIXShPQyhbQ0gzXSkoW0NIM10pT1tDQEhdNTYpW0NAQF0yKFtDSDNdKVtDSDJdW0NASF0oW0NIMl1bQ0BASF03W09IXSlbQ0BASF0zW0NIXTFbQ0BdNihDNDU3KVtDSDNd

>  <s_epik_cmdline>  (246) 
J2VwaWtfcHl0aG9uJywgJy1waHQnLCAnMi4wJywgJy1waCcsICc3LjAnLCAnLXRuJywgJzgnLCAnLW1hJywgJzIwMCcsICctaW1hZScsICc8aW5maWxlLm1hZT4nLCAnLW9tYWUnLCAnPG91dGZpbGUubWFlPic=

>  <r_lp_tautomer_probability>  (246) 
1

>  <r_epik_Ionization_Penalty>  (246) 
4.32003e-07

>  <r_epik_Ionization_Penalty_Charging>  (246) 
0

>  <r_epik_Ionization_Penalty_Neutral>  (246) 
4.32003e-07

>  <r_epik_State_Penalty>  (246) 
-0

>  <r_epik_Charging_Adjusted_Penalty>  (246) 
0

>  <i_epik_Tot_Q>  (246) 
0

>  <i_epik_Tot_abs_Q>  (246) 
0

>  <s_epik_Chemistry_Notes>  (246) 
This compound contains an acetal/aminal-like group ( X-CH(R)-Y where X, Y are N, S, or O) that may be acid/base labile, releasing an aldehyde.

>  <s_lp_Force_Field>  (246) 
OPLS3e

>  <r_lp_Energy>  (246) 
880.253

>  <b_lp_Chiralities_Consistent>  (246) 
1

>  <s_lp_Variant>  (246) 
69:0-3

>  <s_i_glide_gridfile>  (246) 
pfpi4k_grid

>  <i_i_glide_lignum>  (246) 
8

>  <i_i_glide_rotatable_bonds>  (246) 
2

>  <r_i_docking_score>  (246) 
-2.67968

>  <r_i_glide_ligand_efficiency>  (246) 
-0.0864413

>  <r_i_glide_ligand_efficiency_sa>  (246) 
-0.271545

>  <r_i_glide_ligand_efficiency_ln>  (246) 
-0.60435

>  <r_i_glide_gscore>  (246) 
-2.67968

>  <r_i_glide_lipo>  (246) 
-0.016355

>  <r_i_glide_hbond>  (246) 
0

>  <r_i_glide_metal>  (246) 
-0

>  <r_i_glide_rewards>  (246) 
-0.432862

>  <r_i_glide_evdw>  (246) 
-23.9965

>  <r_i_glide_ecoul>  (246) 
-5.39557

>  <r_i_glide_erotb>  (246) 
0

>  <r_i_glide_esite>  (246) 
-0.221304

>  <r_i_glide_emodel>  (246) 
-34.2774

>  <r_i_glide_energy>  (246) 
-29.392

>  <r_i_glide_einternal>  (246) 
0.99523

>  <r_i_glide_intrahb_reward>  (246) 
-0

>  <i_i_glide_confnum>  (246) 
1

>  <i_i_glide_posenum>  (246) 
2

>  <r_i_glide_eff_state_penalty>  (246) 
0

>  <ligand_id>  (246) 
69

>  <original_smiles>  (246) 
CC1(C)OC2CC3C(O)OCC45C(O)CC6CC2(C)C2(F)C(=O)C(C6CC32)C4(C)C5O1

>  <smiles>  (246) 
[H]OC1([H])OC([H])([H])C23C([H])(O[H])C([H])([H])C4([H])C([H])([H])C5(C([H])([H])[H])C6([H])OC(C([H])([H])[H])(C([H])([H])[H])OC2([H])C3(C([H])([H])[H])C2([H])C(=O)C5(F)C([H])(C([H])([H])C24[H])C1([H])C6([H])[H]

$$$$
69:3:0
     RDKit          3D

 64 70  0  0  1  0  0  0  0  0999 V2000
    1.3760   -2.5982    5.3003 C   0  0  0  0  0  0  0  0  0  0  0  0
    1.4210   -1.1018    5.7140 C   0  0  0  0  0  0  0  0  0  0  0  0
    0.8175   -1.1202    7.1526 C   0  0  0  0  0  0  0  0  0  0  0  0
    2.9932   -0.8385    5.6813 O   0  0  0  0  0  0  0  0  0  0  0  0
    4.0273    0.3460    5.2994 C   0  0  1  0  0  0  0  0  0  0  0  0
    4.1616    0.1064    3.7332 C   0  0  0  0  0  0  0  0  0  0  0  0
    2.6744    0.0952    3.3716 C   0  0  2  0  0  0  0  0  0  0  0  0
    1.9184    0.0752    1.9468 C   0  0  1  0  0  0  0  0  0  0  0  0
    2.2322   -1.1592    1.2801 O   0  0  0  0  0  0  0  0  0  0  0  0
    0.4833    0.1162    2.1784 O   0  0  0  0  0  0  0  0  0  0  0  0
   -0.3239    1.3636    2.3230 C   0  0  0  0  0  0  0  0  0  0  0  0
   -0.8355    1.9724    3.7352 C   0  0  1  0  0  0  0  0  0  0  0  0
   -0.8934    3.6850    3.6126 C   0  0  1  0  0  0  0  0  0  0  0  0
   -2.1257    4.1902    4.0776 O   0  0  0  0  0  0  0  0  0  0  0  0
    0.3841    4.8365    4.0926 C   0  0  0  0  0  0  0  0  0  0  0  0
    2.0944    4.4948    4.3922 C   0  0  1  0  0  0  0  0  0  0  0  0
    3.4094    3.6994    5.3170 C   0  0  0  0  0  0  0  0  0  0  0  0
    3.7382    2.0119    5.8346 C   0  0  2  0  0  0  0  0  0  0  0  0
    4.5794    2.1833    7.1452 C   0  0  0  0  0  0  0  0  0  0  0  0
    2.3961    1.5473    5.9362 C   0  0  1  0  0  0  0  0  0  0  0  0
    2.4846    0.8163    7.0591 F   0  0  0  0  0  0  0  0  0  0  0  0
    1.4176    2.4458    6.5344 C   0  0  0  0  0  0  0  0  0  0  0  0
    1.3480    2.8612    7.6981 O   0  0  0  0  0  0  0  0  0  0  0  0
    0.6014    2.8642    5.4564 C   0  0  1  0  0  0  0  0  0  0  0  0
    1.5408    3.2550    4.1076 C   0  0  2  0  0  0  0  0  0  0  0  0
    2.5356    2.4018    3.3934 C   0  0  0  0  0  0  0  0  0  0  0  0
    2.1976    1.2593    4.2291 C   0  0  1  0  0  0  0  0  0  0  0  0
   -0.5774    1.9555    5.2621 C   0  0  1  0  0  0  0  0  0  0  0  0
   -1.6579    2.2813    6.3002 C   0  0  0  0  0  0  0  0  0  0  0  0
   -0.7131    0.6160    4.7827 C   0  0  2  0  0  0  0  0  0  0  0  0
    0.3904   -0.4932    4.7888 O   0  0  0  0  0  0  0  0  0  0  0  0
    1.7830   -2.7476    4.2999 H   0  0  0  0  0  0  0  0  0  0  0  0
    0.3561   -2.9750    5.2931 H   0  0  0  0  0  0  0  0  0  0  0  0
    1.9817   -3.1897    5.9848 H   0  0  0  0  0  0  0  0  0  0  0  0
    0.4121   -0.1440    7.4204 H   0  0  0  0  0  0  0  0  0  0  0  0
    1.5837   -1.4051    7.8729 H   0  0  0  0  0  0  0  0  0  0  0  0
   -0.0005   -1.8315    7.2180 H   0  0  0  0  0  0  0  0  0  0  0  0
    5.0030    0.0499    5.7215 H   0  0  0  0  0  0  0  0  0  0  0  0
    4.7648    0.8753    3.2778 H   0  0  0  0  0  0  0  0  0  0  0  0
    4.6124   -0.8604    3.5140 H   0  0  0  0  0  0  0  0  0  0  0  0
    2.3744   -0.8943    3.6028 H   0  0  0  0  0  0  0  0  0  0  0  0
    2.2044    0.8066    1.2064 H   0  0  0  0  0  0  0  0  0  0  0  0
    1.7390   -1.1247    0.4488 H   0  0  0  0  0  0  0  0  0  0  0  0
    0.1243    2.1286    1.6946 H   0  0  0  0  0  0  0  0  0  0  0  0
   -1.2385    1.1208    1.7880 H   0  0  0  0  0  0  0  0  0  0  0  0
   -1.0175    3.8575    2.5430 H   0  0  0  0  0  0  0  0  0  0  0  0
   -2.8120    3.6860    3.6857 H   0  0  0  0  0  0  0  0  0  0  0  0
    0.3966    5.5752    3.2726 H   0  0  0  0  0  0  0  0  0  0  0  0
   -0.0089    5.4501    4.9169 H   0  0  0  0  0  0  0  0  0  0  0  0
    1.9222    5.0802    5.2947 H   0  0  0  0  0  0  0  0  0  0  0  0
    4.3253    4.0053    4.7979 H   0  0  0  0  0  0  0  0  0  0  0  0
    3.5118    4.3012    6.2275 H   0  0  0  0  0  0  0  0  0  0  0  0
    4.1198    2.8686    7.8575 H   0  0  0  0  0  0  0  0  0  0  0  0
    5.5818    2.5546    6.9229 H   0  0  0  0  0  0  0  0  0  0  0  0
    4.7227    1.2358    7.6752 H   0  0  0  0  0  0  0  0  0  0  0  0
    0.1881    3.7189    5.9765 H   0  0  0  0  0  0  0  0  0  0  0  0
    1.1645    3.2861    3.0792 H   0  0  0  0  0  0  0  0  0  0  0  0
    2.4306    2.3521    2.3087 H   0  0  0  0  0  0  0  0  0  0  0  0
    3.5818    2.6672    3.3379 H   0  0  0  0  0  0  0  0  0  0  0  0
    1.2643    1.1565    3.9350 H   0  0  0  0  0  0  0  0  0  0  0  0
   -1.4462    1.8046    7.2571 H   0  0  0  0  0  0  0  0  0  0  0  0
   -2.6193    1.9155    5.9505 H   0  0  0  0  0  0  0  0  0  0  0  0
   -1.7783    3.3518    6.4676 H   0  0  0  0  0  0  0  0  0  0  0  0
   -1.6462    0.0987    4.9868 H   0  0  0  0  0  0  0  0  0  0  0  0
  1  2  1  0
  1 32  1  0
  1 33  1  0
  1 34  1  0
  2 31  1  0
  2  3  1  0
  2  4  1  0
  3 35  1  0
  3 36  1  0
  3 37  1  0
  4  5  1  0
  5 18  1  0
  5  6  1  0
  5 38  1  1
  6  7  1  0
  6 39  1  0
  6 40  1  0
  7 27  1  0
  7  8  1  0
  7 41  1  1
  8  9  1  0
  8 10  1  0
  8 42  1  6
  9 43  1  0
 10 11  1  0
 12 11  1  6
 11 44  1  0
 11 45  1  0
 12 28  1  0
 12 30  1  0
 12 13  1  0
 13 14  1  0
 13 15  1  0
 13 46  1  6
 14 47  1  0
 15 16  1  0
 15 48  1  0
 15 49  1  0
 16 25  1  0
 16 17  1  0
 16 50  1  6
 17 18  1  0
 17 51  1  0
 17 52  1  0
 18 19  1  1
 18 20  1  0
 19 53  1  0
 19 54  1  0
 19 55  1  0
 20 27  1  0
 20 21  1  1
 20 22  1  0
 22 23  2  0
 22 24  1  0
 24 25  1  0
 24 28  1  0
 24 56  1  1
 25 26  1  0
 25 57  1  6
 26 27  1  0
 26 58  1  0
 26 59  1  0
 27 60  1  1
 28 29  1  1
 28 30  1  0
 29 61  1  0
 29 62  1  0
 29 63  1  0
 30 31  1  0
 30 64  1  1
M  END
>  <i_m_ct_stereo_status>  (247) 
1

>  <s_m_source_file>  (247) 
/var/tmp/pbs.5076255.sched01/tmpoq50wh_d/842pmd5wfz.sdf

>  <i_m_source_file_index>  (247) 
9

>  <i_lp_mmshare_version>  (247) 
48012

>  <i_f3d_flags>  (247) 
0

>  <s_epik_input>  (247) 
Tz1DMVtDQEBdMihGKVtDQEBIXShbQ0gyXTMpW0NAQEhdKFtDQEBIXShbT0hdKU9bQ0gyXTQpW0NIMl1bQ0BIXShPQyhbQ0gzXSkoW0NIM10pT1tDQEhdNTYpW0NAQF0yKFtDSDNdKVtDSDJdW0NASF0oW0NIMl1bQ0BASF03W09IXSlbQ0BASF0zW0NIXTFbQ0BdNihDNDU3KVtDSDNd

>  <s_epik_cmdline>  (247) 
J2VwaWtfcHl0aG9uJywgJy1waHQnLCAnMi4wJywgJy1waCcsICc3LjAnLCAnLXRuJywgJzgnLCAnLW1hJywgJzIwMCcsICctaW1hZScsICc8aW5maWxlLm1hZT4nLCAnLW9tYWUnLCAnPG91dGZpbGUubWFlPic=

>  <r_lp_tautomer_probability>  (247) 
1

>  <r_epik_Ionization_Penalty>  (247) 
4.32003e-07

>  <r_epik_Ionization_Penalty_Charging>  (247) 
0

>  <r_epik_Ionization_Penalty_Neutral>  (247) 
4.32003e-07

>  <r_epik_State_Penalty>  (247) 
-0

>  <r_epik_Charging_Adjusted_Penalty>  (247) 
0

>  <i_epik_Tot_Q>  (247) 
0

>  <i_epik_Tot_abs_Q>  (247) 
0

>  <s_epik_Chemistry_Notes>  (247) 
This compound contains an acetal/aminal-like group ( X-CH(R)-Y where X, Y are N, S, or O) that may be acid/base labile, releasing an aldehyde.

>  <s_lp_Force_Field>  (247) 
OPLS3e

>  <r_lp_Energy>  (247) 
816.026

>  <b_lp_Chiralities_Consistent>  (247) 
1

>  <s_lp_Variant>  (247) 
69:0-4

>  <s_i_glide_gridfile>  (247) 
pfpi4k_grid

>  <i_i_glide_lignum>  (247) 
9

>  <i_i_glide_rotatable_bonds>  (247) 
2

>  <r_i_docking_score>  (247) 
-2.71793

>  <r_i_glide_ligand_efficiency>  (247) 
-0.0876752

>  <r_i_glide_ligand_efficiency_sa>  (247) 
-0.275421

>  <r_i_glide_ligand_efficiency_ln>  (247) 
-0.612977

>  <r_i_glide_gscore>  (247) 
-2.71793

>  <r_i_glide_lipo>  (247) 
-0.0116955

>  <r_i_glide_hbond>  (247) 
-0.088186

>  <r_i_glide_metal>  (247) 
-0

>  <r_i_glide_rewards>  (247) 
-0.432862

>  <r_i_glide_evdw>  (247) 
-22.0028

>  <r_i_glide_ecoul>  (247) 
-6.86913

>  <r_i_glide_erotb>  (247) 
0

>  <r_i_glide_esite>  (247) 
-0.0546784

>  <r_i_glide_emodel>  (247) 
-34.3694

>  <r_i_glide_energy>  (247) 
-28.8719

>  <r_i_glide_einternal>  (247) 
0.697698

>  <r_i_glide_intrahb_reward>  (247) 
-0

>  <i_i_glide_confnum>  (247) 
1

>  <i_i_glide_posenum>  (247) 
25

>  <r_i_glide_eff_state_penalty>  (247) 
0

>  <ligand_id>  (247) 
69

>  <original_smiles>  (247) 
CC1(C)OC2CC3C(O)OCC45C(O)CC6CC2(C)C2(F)C(=O)C(C6CC32)C4(C)C5O1

>  <smiles>  (247) 
[H]OC1([H])OC([H])([H])C23C([H])(O[H])C([H])([H])C4([H])C([H])([H])C5(C([H])([H])[H])C6([H])OC(C([H])([H])[H])(C([H])([H])[H])OC2([H])C3(C([H])([H])[H])C2([H])C(=O)C5(F)C([H])(C([H])([H])C24[H])C1([H])C6([H])[H]

$$$$
69:3:1
     RDKit          3D

 64 70  0  0  1  0  0  0  0  0999 V2000
    1.4696   -2.0406    6.2392 C   0  0  0  0  0  0  0  0  0  0  0  0
    1.3756   -0.5017    6.3834 C   0  0  0  0  0  0  0  0  0  0  0  0
    0.7280   -0.3074    7.7823 C   0  0  0  0  0  0  0  0  0  0  0  0
    2.9268   -0.1194    6.3348 O   0  0  0  0  0  0  0  0  0  0  0  0
    3.8885    1.0647    5.7671 C   0  0  1  0  0  0  0  0  0  0  0  0
    4.0768    0.5597    4.2744 C   0  0  0  0  0  0  0  0  0  0  0  0
    2.6168    0.3669    3.8765 C   0  0  2  0  0  0  0  0  0  0  0  0
    1.9155   -0.0127    2.4801 C   0  0  1  0  0  0  0  0  0  0  0  0
    2.3636   -1.2911    2.0937 O   0  0  0  0  0  0  0  0  0  0  0  0
    0.4685   -0.0227    2.6631 O   0  0  0  0  0  0  0  0  0  0  0  0
   -0.4328    1.1564    2.5585 C   0  0  0  0  0  0  0  0  0  0  0  0
   -1.0551    1.9690    3.8200 C   0  0  1  0  0  0  0  0  0  0  0  0
   -1.2344    3.6323    3.3833 C   0  0  1  0  0  0  0  0  0  0  0  0
   -2.4950    4.1307    3.7093 O   0  0  0  0  0  0  0  0  0  0  0  0
   -0.0674    4.9590    3.6788 C   0  0  0  0  0  0  0  0  0  0  0  0
    1.6541    4.8108    4.0775 C   0  0  1  0  0  0  0  0  0  0  0  0
    2.9989    4.3083    5.1528 C   0  0  0  0  0  0  0  0  0  0  0  0
    3.4366    2.7778    5.9860 C   0  0  2  0  0  0  0  0  0  0  0  0
    4.2127    3.2412    7.2587 C   0  0  0  0  0  0  0  0  0  0  0  0
    2.1308    2.2221    6.1336 C   0  0  1  0  0  0  0  0  0  0  0  0
    2.2260    1.7120    7.3748 F   0  0  0  0  0  0  0  0  0  0  0  0
    1.0591    3.1295    6.5445 C   0  0  0  0  0  0  0  0  0  0  0  0
    0.9168    3.7369    7.6104 O   0  0  0  0  0  0  0  0  0  0  0  0
    0.2589    3.2644    5.3945 C   0  0  1  0  0  0  0  0  0  0  0  0
    1.2166    3.5012    4.0064 C   0  0  2  0  0  0  0  0  0  0  0  0
    2.3011    2.6148    3.4727 C   0  0  0  0  0  0  0  0  0  0  0  0
    2.0086    1.6187    4.4945 C   0  0  1  0  0  0  0  0  0  0  0  0
   -0.8473    2.2479    5.3311 C   0  0  1  0  0  0  0  0  0  0  0  0
   -1.9972    2.6612    6.2697 C   0  0  0  0  0  0  0  0  0  0  0  0
   -0.8531    0.8369    5.1063 C   0  0  2  0  0  0  0  0  0  0  0  0
    0.3347   -0.1507    5.3342 O   0  0  0  0  0  0  0  0  0  0  0  0
    1.9195   -2.3345    5.2930 H   0  0  0  0  0  0  0  0  0  0  0  0
    0.4810   -2.4995    6.2821 H   0  0  0  0  0  0  0  0  0  0  0  0
    2.0929   -2.4511    7.0344 H   0  0  0  0  0  0  0  0  0  0  0  0
    0.2309    0.6579    7.8600 H   0  0  0  0  0  0  0  0  0  0  0  0
    1.4857   -0.3948    8.5602 H   0  0  0  0  0  0  0  0  0  0  0  0
   -0.0337   -1.0654    7.9619 H   0  0  0  0  0  0  0  0  0  0  0  0
    4.8501    0.9310    6.2522 H   0  0  0  0  0  0  0  0  0  0  0  0
    4.6322    1.2794    3.6779 H   0  0  0  0  0  0  0  0  0  0  0  0
    4.6200   -0.3856    4.2377 H   0  0  0  0  0  0  0  0  0  0  0  0
    2.3836   -0.5841    4.2992 H   0  0  0  0  0  0  0  0  0  0  0  0
    2.1640    0.6013    1.6168 H   0  0  0  0  0  0  0  0  0  0  0  0
    2.1744   -1.8840    2.8077 H   0  0  0  0  0  0  0  0  0  0  0  0
   -0.0256    1.8335    1.8103 H   0  0  0  0  0  0  0  0  0  0  0  0
   -1.3098    0.7540    2.0547 H   0  0  0  0  0  0  0  0  0  0  0  0
   -1.3649    3.5898    2.3043 H   0  0  0  0  0  0  0  0  0  0  0  0
   -3.1452    3.5315    3.3587 H   0  0  0  0  0  0  0  0  0  0  0  0
   -0.0859    5.5479    2.7616 H   0  0  0  0  0  0  0  0  0  0  0  0
   -0.5369    5.6549    4.3782 H   0  0  0  0  0  0  0  0  0  0  0  0
    1.4034    5.5346    4.8515 H   0  0  0  0  0  0  0  0  0  0  0  0
    3.9025    4.5890    4.6065 H   0  0  0  0  0  0  0  0  0  0  0  0
    3.0166    5.0651    5.9416 H   0  0  0  0  0  0  0  0  0  0  0  0
    3.6710    4.0011    7.8233 H   0  0  0  0  0  0  0  0  0  0  0  0
    5.1845    3.6558    6.9927 H   0  0  0  0  0  0  0  0  0  0  0  0
    4.4100    2.4219    7.9517 H   0  0  0  0  0  0  0  0  0  0  0  0
   -0.2446    4.1686    5.7323 H   0  0  0  0  0  0  0  0  0  0  0  0
    0.8716    3.3013    2.9861 H   0  0  0  0  0  0  0  0  0  0  0  0
    2.2350    2.3541    2.4162 H   0  0  0  0  0  0  0  0  0  0  0  0
    3.3311    2.9489    3.3930 H   0  0  0  0  0  0  0  0  0  0  0  0
    1.1036    1.3811    4.2161 H   0  0  0  0  0  0  0  0  0  0  0  0
   -1.7763    2.3869    7.3020 H   0  0  0  0  0  0  0  0  0  0  0  0
   -2.9201    2.1597    5.9856 H   0  0  0  0  0  0  0  0  0  0  0  0
   -2.2024    3.7305    6.2410 H   0  0  0  0  0  0  0  0  0  0  0  0
   -1.7503    0.2883    5.3838 H   0  0  0  0  0  0  0  0  0  0  0  0
  1  2  1  0
  1 32  1  0
  1 33  1  0
  1 34  1  0
  2 31  1  0
  2  3  1  0
  2  4  1  0
  3 35  1  0
  3 36  1  0
  3 37  1  0
  4  5  1  0
  5 18  1  0
  5  6  1  0
  5 38  1  1
  6  7  1  0
  6 39  1  0
  6 40  1  0
  7 27  1  0
  7  8  1  0
  7 41  1  1
  8  9  1  0
  8 10  1  0
  8 42  1  6
  9 43  1  0
 10 11  1  0
 12 11  1  6
 11 44  1  0
 11 45  1  0
 12 28  1  0
 12 30  1  0
 12 13  1  0
 13 14  1  0
 13 15  1  0
 13 46  1  6
 14 47  1  0
 15 16  1  0
 15 48  1  0
 15 49  1  0
 16 25  1  0
 16 17  1  0
 16 50  1  6
 17 18  1  0
 17 51  1  0
 17 52  1  0
 18 19  1  1
 18 20  1  0
 19 53  1  0
 19 54  1  0
 19 55  1  0
 20 27  1  0
 20 21  1  1
 20 22  1  0
 22 23  2  0
 22 24  1  0
 24 25  1  0
 24 28  1  0
 24 56  1  1
 25 26  1  0
 25 57  1  6
 26 27  1  0
 26 58  1  0
 26 59  1  0
 27 60  1  6
 28 29  1  1
 28 30  1  0
 29 61  1  0
 29 62  1  0
 29 63  1  0
 30 31  1  0
 30 64  1  1
M  END
>  <i_m_ct_stereo_status>  (248) 
1

>  <s_m_source_file>  (248) 
/var/tmp/pbs.5076255.sched01/tmpoq50wh_d/842pmd5wfz.sdf

>  <i_m_source_file_index>  (248) 
9

>  <i_lp_mmshare_version>  (248) 
48012

>  <i_f3d_flags>  (248) 
0

>  <s_epik_input>  (248) 
Tz1DMVtDQEBdMihGKVtDQEBIXShbQ0gyXTMpW0NAQEhdKFtDQEBIXShbT0hdKU9bQ0gyXTQpW0NIMl1bQ0BIXShPQyhbQ0gzXSkoW0NIM10pT1tDQEhdNTYpW0NAQF0yKFtDSDNdKVtDSDJdW0NASF0oW0NIMl1bQ0BASF03W09IXSlbQ0BASF0zW0NIXTFbQ0BdNihDNDU3KVtDSDNd

>  <s_epik_cmdline>  (248) 
J2VwaWtfcHl0aG9uJywgJy1waHQnLCAnMi4wJywgJy1waCcsICc3LjAnLCAnLXRuJywgJzgnLCAnLW1hJywgJzIwMCcsICctaW1hZScsICc8aW5maWxlLm1hZT4nLCAnLW9tYWUnLCAnPG91dGZpbGUubWFlPic=

>  <r_lp_tautomer_probability>  (248) 
1

>  <r_epik_Ionization_Penalty>  (248) 
4.32003e-07

>  <r_epik_Ionization_Penalty_Charging>  (248) 
0

>  <r_epik_Ionization_Penalty_Neutral>  (248) 
4.32003e-07

>  <r_epik_State_Penalty>  (248) 
-0

>  <r_epik_Charging_Adjusted_Penalty>  (248) 
0

>  <i_epik_Tot_Q>  (248) 
0

>  <i_epik_Tot_abs_Q>  (248) 
0

>  <s_epik_Chemistry_Notes>  (248) 
This compound contains an acetal/aminal-like group ( X-CH(R)-Y where X, Y are N, S, or O) that may be acid/base labile, releasing an aldehyde.

>  <s_lp_Force_Field>  (248) 
OPLS3e

>  <r_lp_Energy>  (248) 
816.026

>  <b_lp_Chiralities_Consistent>  (248) 
1

>  <s_lp_Variant>  (248) 
69:0-4

>  <s_i_glide_gridfile>  (248) 
pfpi4k_grid

>  <i_i_glide_lignum>  (248) 
9

>  <i_i_glide_rotatable_bonds>  (248) 
2

>  <r_i_docking_score>  (248) 
-2.1176

>  <r_i_glide_ligand_efficiency>  (248) 
-0.0683097

>  <r_i_glide_ligand_efficiency_sa>  (248) 
-0.214587

>  <r_i_glide_ligand_efficiency_ln>  (248) 
-0.477584

>  <r_i_glide_gscore>  (248) 
-2.1176

>  <r_i_glide_lipo>  (248) 
-0.0869454

>  <r_i_glide_hbond>  (248) 
-0.086309

>  <r_i_glide_metal>  (248) 
-0

>  <r_i_glide_rewards>  (248) 
-0.432862

>  <r_i_glide_evdw>  (248) 
-23.0298

>  <r_i_glide_ecoul>  (248) 
-2.23746

>  <r_i_glide_erotb>  (248) 
0

>  <r_i_glide_esite>  (248) 
-0.024375

>  <r_i_glide_emodel>  (248) 
-29.621

>  <r_i_glide_energy>  (248) 
-25.2673

>  <r_i_glide_einternal>  (248) 
0.337114

>  <r_i_glide_intrahb_reward>  (248) 
-0

>  <i_i_glide_confnum>  (248) 
2

>  <i_i_glide_posenum>  (248) 
35

>  <r_i_glide_eff_state_penalty>  (248) 
0

>  <ligand_id>  (248) 
69

>  <original_smiles>  (248) 
CC1(C)OC2CC3C(O)OCC45C(O)CC6CC2(C)C2(F)C(=O)C(C6CC32)C4(C)C5O1

>  <smiles>  (248) 
[H]OC1([H])OC([H])([H])C23C([H])(O[H])C([H])([H])C4([H])C([H])([H])C5(C([H])([H])[H])C6([H])OC(C([H])([H])[H])(C([H])([H])[H])OC2([H])C3(C([H])([H])[H])C2([H])C(=O)C5(F)C([H])(C([H])([H])C24[H])C1([H])C6([H])[H]

$$$$
69:3:2
     RDKit          3D

 64 70  0  0  1  0  0  0  0  0999 V2000
    2.1289    0.0796    7.7867 C   0  0  0  0  0  0  0  0  0  0  0  0
    1.5260    1.4465    7.3771 C   0  0  0  0  0  0  0  0  0  0  0  0
    0.6958    1.8621    8.6229 C   0  0  0  0  0  0  0  0  0  0  0  0
    2.8590    2.2994    7.1738 O   0  0  0  0  0  0  0  0  0  0  0  0
    3.4407    3.4812    6.2235 C   0  0  1  0  0  0  0  0  0  0  0  0
    3.9159    2.5996    4.9942 C   0  0  0  0  0  0  0  0  0  0  0  0
    2.6687    1.7932    4.7225 C   0  0  2  0  0  0  0  0  0  0  0  0
    2.3041    0.7715    3.5322 C   0  0  1  0  0  0  0  0  0  0  0  0
    3.1803   -0.3160    3.6128 O   0  0  0  0  0  0  0  0  0  0  0  0
    0.9280    0.3157    3.7031 O   0  0  0  0  0  0  0  0  0  0  0  0
   -0.2910    1.0036    3.2242 C   0  0  0  0  0  0  0  0  0  0  0  0
   -1.2677    1.9162    4.1372 C   0  0  1  0  0  0  0  0  0  0  0  0
   -1.9397    3.1423    3.1482 C   0  0  1  0  0  0  0  0  0  0  0  0
   -3.3359    3.2317    3.2778 O   0  0  0  0  0  0  0  0  0  0  0  0
   -1.3335    4.7982    2.9657 C   0  0  0  0  0  0  0  0  0  0  0  0
    0.2872    5.4250    3.3683 C   0  0  1  0  0  0  0  0  0  0  0  0
    1.6050    5.8102    4.5190 C   0  0  0  0  0  0  0  0  0  0  0  0
    2.4227    4.8953    5.8288 C   0  0  2  0  0  0  0  0  0  0  0  0
    2.8663    6.0009    6.8357 C   0  0  0  0  0  0  0  0  0  0  0  0
    1.3739    4.0108    6.1880 C   0  0  1  0  0  0  0  0  0  0  0  0
    1.4978    4.0156    7.5247 F   0  0  0  0  0  0  0  0  0  0  0  0
    0.0240    4.5776    6.2591 C   0  0  0  0  0  0  0  0  0  0  0  0
   -0.4154    5.4243    7.0284 O   0  0  0  0  0  0  0  0  0  0  0  0
   -0.6345    4.0215    5.1495 C   0  0  1  0  0  0  0  0  0  0  0  0
    0.3346    4.1084    3.7632 C   0  0  2  0  0  0  0  0  0  0  0  0
    1.7021    3.5324    3.5575 C   0  0  0  0  0  0  0  0  0  0  0  0
    1.6270    2.8961    4.8638 C   0  0  1  0  0  0  0  0  0  0  0  0
   -1.3223    2.7364    5.4564 C   0  0  1  0  0  0  0  0  0  0  0  0
   -2.6121    3.0249    6.2202 C   0  0  0  0  0  0  0  0  0  0  0  0
   -0.8543    1.4180    5.7349 C   0  0  2  0  0  0  0  0  0  0  0  0
    0.5521    1.0398    6.2813 O   0  0  0  0  0  0  0  0  0  0  0  0
    2.7526   -0.3398    7.0013 H   0  0  0  0  0  0  0  0  0  0  0  0
    1.3427   -0.6476    8.0009 H   0  0  0  0  0  0  0  0  0  0  0  0
    2.7552    0.2086    8.6695 H   0  0  0  0  0  0  0  0  0  0  0  0
   -0.0897    2.5699    8.3648 H   0  0  0  0  0  0  0  0  0  0  0  0
    1.3519    2.2994    9.3722 H   0  0  0  0  0  0  0  0  0  0  0  0
    0.2018    0.9951    9.0651 H   0  0  0  0  0  0  0  0  0  0  0  0
    4.3328    3.8681    6.6794 H   0  0  0  0  0  0  0  0  0  0  0  0
    4.2274    3.2237    4.1651 H   0  0  0  0  0  0  0  0  0  0  0  0
    4.7458    1.9465    5.2738 H   0  0  0  0  0  0  0  0  0  0  0  0
    2.7229    1.0032    5.4430 H   0  0  0  0  0  0  0  0  0  0  0  0
    2.4493    1.1263    2.5018 H   0  0  0  0  0  0  0  0  0  0  0  0
    2.9951   -0.8862    2.8737 H   0  0  0  0  0  0  0  0  0  0  0  0
   -0.0539    1.4988    2.2812 H   0  0  0  0  0  0  0  0  0  0  0  0
   -0.9287    0.1823    2.9132 H   0  0  0  0  0  0  0  0  0  0  0  0
   -1.8545    2.7373    2.1404 H   0  0  0  0  0  0  0  0  0  0  0  0
   -3.7133    2.3795    3.0873 H   0  0  0  0  0  0  0  0  0  0  0  0
   -1.4960    5.1024    1.9443 H   0  0  0  0  0  0  0  0  0  0  0  0
   -2.1351    5.3969    3.3182 H   0  0  0  0  0  0  0  0  0  0  0  0
   -0.2654    6.2427    3.8296 H   0  0  0  0  0  0  0  0  0  0  0  0
    2.4231    6.1858    3.8979 H   0  0  0  0  0  0  0  0  0  0  0  0
    1.2921    6.7473    4.9923 H   0  0  0  0  0  0  0  0  0  0  0  0
    2.0453    6.6728    7.0992 H   0  0  0  0  0  0  0  0  0  0  0  0
    3.6741    6.6070    6.4238 H   0  0  0  0  0  0  0  0  0  0  0  0
    3.2427    5.5841    7.7737 H   0  0  0  0  0  0  0  0  0  0  0  0
   -1.4339    4.7595    5.1619 H   0  0  0  0  0  0  0  0  0  0  0  0
    0.1919    3.4748    2.8843 H   0  0  0  0  0  0  0  0  0  0  0  0
    1.8425    2.9404    2.6494 H   0  0  0  0  0  0  0  0  0  0  0  0
    2.5588    4.1597    3.3375 H   0  0  0  0  0  0  0  0  0  0  0  0
    0.9054    2.2780    4.6830 H   0  0  0  0  0  0  0  0  0  0  0  0
   -2.4177    3.2400    7.2706 H   0  0  0  0  0  0  0  0  0  0  0  0
   -3.2796    2.1643    6.1873 H   0  0  0  0  0  0  0  0  0  0  0  0
   -3.1710    3.8513    5.7856 H   0  0  0  0  0  0  0  0  0  0  0  0
   -1.5492    0.7255    6.1998 H   0  0  0  0  0  0  0  0  0  0  0  0
  1  2  1  0
  1 32  1  0
  1 33  1  0
  1 34  1  0
  2 31  1  0
  2  3  1  0
  2  4  1  0
  3 35  1  0
  3 36  1  0
  3 37  1  0
  4  5  1  0
  5 18  1  0
  5  6  1  0
  5 38  1  1
  6  7  1  0
  6 39  1  0
  6 40  1  0
  7 27  1  0
  7  8  1  0
  7 41  1  1
  8  9  1  0
  8 10  1  0
  8 42  1  6
  9 43  1  0
 10 11  1  0
 12 11  1  6
 11 44  1  0
 11 45  1  0
 12 28  1  0
 12 30  1  0
 12 13  1  0
 13 14  1  0
 13 15  1  0
 13 46  1  6
 14 47  1  0
 15 16  1  0
 15 48  1  0
 15 49  1  0
 16 25  1  0
 16 17  1  0
 16 50  1  6
 17 18  1  0
 17 51  1  0
 17 52  1  0
 18 19  1  1
 18 20  1  0
 19 53  1  0
 19 54  1  0
 19 55  1  0
 20 27  1  0
 20 21  1  1
 20 22  1  0
 22 23  2  0
 22 24  1  0
 24 25  1  0
 24 28  1  0
 24 56  1  6
 25 26  1  0
 25 57  1  6
 26 27  1  0
 26 58  1  0
 26 59  1  0
 27 60  1  6
 28 29  1  1
 28 30  1  0
 29 61  1  0
 29 62  1  0
 29 63  1  0
 30 31  1  0
 30 64  1  1
M  END
>  <i_m_ct_stereo_status>  (249) 
1

>  <s_m_source_file>  (249) 
/var/tmp/pbs.5076255.sched01/tmpoq50wh_d/842pmd5wfz.sdf

>  <i_m_source_file_index>  (249) 
9

>  <i_lp_mmshare_version>  (249) 
48012

>  <i_f3d_flags>  (249) 
0

>  <s_epik_input>  (249) 
Tz1DMVtDQEBdMihGKVtDQEBIXShbQ0gyXTMpW0NAQEhdKFtDQEBIXShbT0hdKU9bQ0gyXTQpW0NIMl1bQ0BIXShPQyhbQ0gzXSkoW0NIM10pT1tDQEhdNTYpW0NAQF0yKFtDSDNdKVtDSDJdW0NASF0oW0NIMl1bQ0BASF03W09IXSlbQ0BASF0zW0NIXTFbQ0BdNihDNDU3KVtDSDNd

>  <s_epik_cmdline>  (249) 
J2VwaWtfcHl0aG9uJywgJy1waHQnLCAnMi4wJywgJy1waCcsICc3LjAnLCAnLXRuJywgJzgnLCAnLW1hJywgJzIwMCcsICctaW1hZScsICc8aW5maWxlLm1hZT4nLCAnLW9tYWUnLCAnPG91dGZpbGUubWFlPic=

>  <r_lp_tautomer_probability>  (249) 
1

>  <r_epik_Ionization_Penalty>  (249) 
4.32003e-07

>  <r_epik_Ionization_Penalty_Charging>  (249) 
0

>  <r_epik_Ionization_Penalty_Neutral>  (249) 
4.32003e-07

>  <r_epik_State_Penalty>  (249) 
-0

>  <r_epik_Charging_Adjusted_Penalty>  (249) 
0

>  <i_epik_Tot_Q>  (249) 
0

>  <i_epik_Tot_abs_Q>  (249) 
0

>  <s_epik_Chemistry_Notes>  (249) 
This compound contains an acetal/aminal-like group ( X-CH(R)-Y where X, Y are N, S, or O) that may be acid/base labile, releasing an aldehyde.

>  <s_lp_Force_Field>  (249) 
OPLS3e

>  <r_lp_Energy>  (249) 
816.026

>  <b_lp_Chiralities_Consistent>  (249) 
1

>  <s_lp_Variant>  (249) 
69:0-4

>  <s_i_glide_gridfile>  (249) 
pfpi4k_grid

>  <i_i_glide_lignum>  (249) 
9

>  <i_i_glide_rotatable_bonds>  (249) 
2

>  <r_i_docking_score>  (249) 
-1.98032

>  <r_i_glide_ligand_efficiency>  (249) 
-0.0638813

>  <r_i_glide_ligand_efficiency_sa>  (249) 
-0.200675

>  <r_i_glide_ligand_efficiency_ln>  (249) 
-0.446623

>  <r_i_glide_gscore>  (249) 
-1.98032

>  <r_i_glide_lipo>  (249) 
-0.130974

>  <r_i_glide_hbond>  (249) 
-0.210097

>  <r_i_glide_metal>  (249) 
-0

>  <r_i_glide_rewards>  (249) 
-0.432862

>  <r_i_glide_evdw>  (249) 
-16.4178

>  <r_i_glide_ecoul>  (249) 
-2.52121

>  <r_i_glide_erotb>  (249) 
0

>  <r_i_glide_esite>  (249) 
-0.00731305

>  <r_i_glide_emodel>  (249) 
-22.4062

>  <r_i_glide_energy>  (249) 
-18.9391

>  <r_i_glide_einternal>  (249) 
0.705957

>  <r_i_glide_intrahb_reward>  (249) 
-0

>  <i_i_glide_confnum>  (249) 
1

>  <i_i_glide_posenum>  (249) 
33

>  <r_i_glide_eff_state_penalty>  (249) 
0

>  <ligand_id>  (249) 
69

>  <original_smiles>  (249) 
CC1(C)OC2CC3C(O)OCC45C(O)CC6CC2(C)C2(F)C(=O)C(C6CC32)C4(C)C5O1

>  <smiles>  (249) 
[H]OC1([H])OC([H])([H])C23C([H])(O[H])C([H])([H])C4([H])C([H])([H])C5(C([H])([H])[H])C6([H])OC(C([H])([H])[H])(C([H])([H])[H])OC2([H])C3(C([H])([H])[H])C2([H])C(=O)C5(F)C([H])(C([H])([H])C24[H])C1([H])C6([H])[H]

$$$$
71:0:0
     RDKit          3D

 33 37  0  0  1  0  0  0  0  0999 V2000
    3.0614   -0.7478    0.8386 N   0  0  0  0  0  0  0  0  0  0  0  0
    3.7523   -1.9873    0.4204 C   0  0  1  0  0  0  0  0  0  0  0  0
    2.6323   -3.0560    0.2366 C   0  0  0  0  0  0  0  0  0  0  0  0
    3.1086   -4.4996    0.5094 C   0  0  0  0  0  0  0  0  0  0  0  0
    2.3149   -5.3941    0.7561 O   0  0  0  0  0  0  0  0  0  0  0  0
    4.6266   -4.7212    0.4500 C   0  0  2  0  0  0  0  0  0  0  0  0
    5.5943   -3.8715    1.3934 C   0  0  1  0  0  0  0  0  0  0  0  0
    7.0360   -3.4808    0.4774 C   0  0  0  0  0  0  0  0  0  0  0  0
    6.7424   -2.6806   -1.0428 C   0  0  2  0  0  0  0  0  0  0  0  0
    5.3957   -2.5714   -2.0436 C   0  0  1  0  0  0  0  0  0  0  0  0
    4.6013   -3.8548   -2.1783 C   0  0  0  0  0  0  0  0  0  0  0  0
    5.0858   -4.0916   -0.8131 C   0  0  1  0  0  0  0  0  0  0  0  0
    5.5117   -2.5793   -0.5664 C   0  0  2  0  0  0  0  0  0  0  0  0
    4.6041   -1.6475   -0.9962 C   0  0  1  0  0  0  0  0  0  0  0  0
    4.6052   -2.5932    1.7469 C   0  0  0  0  0  0  0  0  0  0  0  0
    2.5407   -0.9224    1.6826 H   0  0  0  0  0  0  0  0  0  0  0  0
    2.4040   -0.4977    0.1050 H   0  0  0  0  0  0  0  0  0  0  0  0
    1.8296   -2.8765    0.9554 H   0  0  0  0  0  0  0  0  0  0  0  0
    2.1784   -2.9947   -0.7526 H   0  0  0  0  0  0  0  0  0  0  0  0
    4.8750   -5.7863    0.4388 H   0  0  0  0  0  0  0  0  0  0  0  0
    5.8554   -4.4212    2.3011 H   0  0  0  0  0  0  0  0  0  0  0  0
    7.6831   -2.8623    1.1014 H   0  0  0  0  0  0  0  0  0  0  0  0
    7.6207   -4.3908    0.3081 H   0  0  0  0  0  0  0  0  0  0  0  0
    7.3406   -1.7932   -1.1659 H   0  0  0  0  0  0  0  0  0  0  0  0
    5.5931   -2.0533   -2.9844 H   0  0  0  0  0  0  0  0  0  0  0  0
    3.5311   -3.6897   -2.3080 H   0  0  0  0  0  0  0  0  0  0  0  0
    5.0161   -4.5563   -2.9073 H   0  0  0  0  0  0  0  0  0  0  0  0
    5.8721   -4.7992   -1.0744 H   0  0  0  0  0  0  0  0  0  0  0  0
    5.9032   -1.8368    0.1856 H   0  0  0  0  0  0  0  0  0  0  0  0
    5.0027   -0.6274   -1.0705 H   0  0  0  0  0  0  0  0  0  0  0  0
    5.2061   -1.8054    2.2135 H   0  0  0  0  0  0  0  0  0  0  0  0
    3.9035   -2.8989    2.5276 H   0  0  0  0  0  0  0  0  0  0  0  0
    3.7392   -0.0172    0.9926 H   0  0  0  0  0  0  0  0  0  0  0  0
  2  1  1  1
  1 16  1  0
  1 17  1  0
  1 33  1  0
  2 14  1  0
  2 15  1  0
  2  3  1  0
  3  4  1  0
  3 18  1  0
  3 19  1  0
  4  5  2  0
  4  6  1  0
  6 12  1  0
  6  7  1  0
  6 20  1  6
  7  8  1  0
  7 15  1  0
  7 21  1  1
  8  9  1  0
  8 22  1  0
  8 23  1  0
  9 13  1  0
  9 10  1  0
  9 24  1  6
 10 14  1  0
 10 11  1  0
 10 25  1  6
 11 12  1  0
 11 26  1  0
 11 27  1  0
 12 13  1  0
 12 28  1  6
 13 14  1  0
 13 29  1  1
 14 30  1  6
 15 31  1  0
 15 32  1  0
M  CHG  1   1   1
M  END
>  <i_m_ct_stereo_status>  (250) 
1

>  <s_m_source_file>  (250) 
/var/tmp/pbs.5076255.sched01/tmpoq50wh_d/842pmd5wfz.sdf

>  <i_m_source_file_index>  (250) 
11

>  <i_lp_mmshare_version>  (250) 
48012

>  <i_f3d_flags>  (250) 
0

>  <s_epik_input>  (250) 
W05IMl1bQ0BdMTJbQ0BASF0zW0NASF00W0NASF01W0NIXTNbQ0BIXShbQ0gyXTQpW0NASF0oQyg9TylbQ0gyXTEpW0NAQEhdKFtDSDJdNSlbQ0gyXTI=

>  <s_epik_cmdline>  (250) 
J2VwaWtfcHl0aG9uJywgJy1waHQnLCAnMi4wJywgJy1waCcsICc3LjAnLCAnLXRuJywgJzgnLCAnLW1hJywgJzIwMCcsICctaW1hZScsICc8aW5maWxlLm1hZT4nLCAnLW9tYWUnLCAnPG91dGZpbGUubWFlPic=

>  <r_lp_tautomer_probability>  (250) 
1

>  <r_epik_Ionization_Penalty>  (250) 
0.00121673

>  <r_epik_Ionization_Penalty_Charging>  (250) 
0.00121673

>  <r_epik_Ionization_Penalty_Neutral>  (250) 
2.55039e-12

>  <r_epik_State_Penalty>  (250) 
0.000803707

>  <r_epik_Charging_Adjusted_Penalty>  (250) 
0.00202043

>  <i_epik_Tot_Q>  (250) 
1

>  <i_epik_Tot_abs_Q>  (250) 
1

>  <s_lp_Force_Field>  (250) 
OPLS3e

>  <r_lp_Energy>  (250) 
391.75

>  <b_lp_Chiralities_Consistent>  (250) 
1

>  <s_lp_Variant>  (250) 
71:0-1

>  <s_i_glide_gridfile>  (250) 
pfpi4k_grid

>  <i_i_glide_lignum>  (250) 
11

>  <i_i_glide_rotatable_bonds>  (250) 
0

>  <r_i_docking_score>  (250) 
-4.26969

>  <r_i_glide_ligand_efficiency>  (250) 
-0.284646

>  <r_i_glide_ligand_efficiency_sa>  (250) 
-0.701997

>  <r_i_glide_ligand_efficiency_ln>  (250) 
-1.15146

>  <r_i_glide_gscore>  (250) 
-4.26969

>  <r_i_glide_lipo>  (250) 
-0.32679

>  <r_i_glide_hbond>  (250) 
-0.182961

>  <r_i_glide_metal>  (250) 
-0

>  <r_i_glide_rewards>  (250) 
-2.01622

>  <r_i_glide_evdw>  (250) 
-16.3315

>  <r_i_glide_ecoul>  (250) 
-5.64638

>  <r_i_glide_erotb>  (250) 
0

>  <r_i_glide_esite>  (250) 
-0.08019

>  <r_i_glide_emodel>  (250) 
-29.2518

>  <r_i_glide_energy>  (250) 
-21.9779

>  <r_i_glide_einternal>  (250) 
0

>  <r_i_glide_intrahb_reward>  (250) 
-0

>  <i_i_glide_confnum>  (250) 
1

>  <i_i_glide_posenum>  (250) 
7

>  <r_i_glide_eff_state_penalty>  (250) 
0

>  <ligand_id>  (250) 
71

>  <original_smiles>  (250) 
NC12CC(=O)C3C(CC4C5CC3C4C51)C2

>  <smiles>  (250) 
[H]C1([H])C(=O)C2([H])C3([H])C([H])([H])C4([H])C5([H])C([H])([H])C2([H])C4([H])C5([H])C1([N+]([H])([H])[H])C3([H])[H]

$$$$
71:0:1
     RDKit          3D

 33 37  0  0  1  0  0  0  0  0999 V2000
    6.5252   -5.0843    0.8829 N   0  0  0  0  0  0  0  0  0  0  0  0
    5.3556   -4.2385    0.6155 C   0  0  1  0  0  0  0  0  0  0  0  0
    4.1001   -5.0432    1.1012 C   0  0  0  0  0  0  0  0  0  0  0  0
    2.8204   -4.7072    0.3113 C   0  0  0  0  0  0  0  0  0  0  0  0
    1.8496   -5.4607    0.3107 O   0  0  0  0  0  0  0  0  0  0  0  0
    2.8394   -3.3693   -0.4651 C   0  0  2  0  0  0  0  0  0  0  0  0
    3.9823   -3.0999   -1.5558 C   0  0  1  0  0  0  0  0  0  0  0  0
    4.4630   -1.4152   -1.4403 C   0  0  0  0  0  0  0  0  0  0  0  0
    4.9636   -0.8998    0.1552 C   0  0  2  0  0  0  0  0  0  0  0  0
    4.6529   -1.5031    1.6998 C   0  0  1  0  0  0  0  0  0  0  0  0
    3.2342   -2.0309    1.9264 C   0  0  0  0  0  0  0  0  0  0  0  0
    3.2965   -2.3132    0.4837 C   0  0  1  0  0  0  0  0  0  0  0  0
    4.8795   -2.1936    0.4198 C   0  0  2  0  0  0  0  0  0  0  0  0
    5.5818   -2.7812    1.4354 C   0  0  1  0  0  0  0  0  0  0  0  0
    5.1166   -4.1863   -1.0594 C   0  0  0  0  0  0  0  0  0  0  0  0
    6.4027   -5.9762    0.4222 H   0  0  0  0  0  0  0  0  0  0  0  0
    6.6104   -5.2376    1.8776 H   0  0  0  0  0  0  0  0  0  0  0  0
    4.2656   -6.1166    0.9544 H   0  0  0  0  0  0  0  0  0  0  0  0
    3.9316   -4.9046    2.1707 H   0  0  0  0  0  0  0  0  0  0  0  0
    1.8404   -3.1153   -0.8402 H   0  0  0  0  0  0  0  0  0  0  0  0
    3.6289   -3.3440   -2.5712 H   0  0  0  0  0  0  0  0  0  0  0  0
    5.2607   -1.2362   -2.1650 H   0  0  0  0  0  0  0  0  0  0  0  0
    3.6337   -0.7861   -1.7917 H   0  0  0  0  0  0  0  0  0  0  0  0
    5.9485   -0.4346    0.1874 H   0  0  0  0  0  0  0  0  0  0  0  0
    5.0618   -0.8590    2.4900 H   0  0  0  0  0  0  0  0  0  0  0  0
    3.1974   -2.8920    2.6056 H   0  0  0  0  0  0  0  0  0  0  0  0
    2.5037   -1.2554    2.1631 H   0  0  0  0  0  0  0  0  0  0  0  0
    2.7054   -1.4573    0.1248 H   0  0  0  0  0  0  0  0  0  0  0  0
    5.7986   -2.3165   -0.2301 H   0  0  0  0  0  0  0  0  0  0  0  0
    6.6312   -2.4531    1.4962 H   0  0  0  0  0  0  0  0  0  0  0  0
    6.0622   -3.9553   -1.5751 H   0  0  0  0  0  0  0  0  0  0  0  0
    4.8397   -5.1885   -1.4188 H   0  0  0  0  0  0  0  0  0  0  0  0
    7.3595   -4.6360    0.5390 H   0  0  0  0  0  0  0  0  0  0  0  0
  2  1  1  6
  1 16  1  0
  1 17  1  0
  1 33  1  0
  2 14  1  0
  2 15  1  0
  2  3  1  0
  3  4  1  0
  3 18  1  0
  3 19  1  0
  4  5  2  0
  4  6  1  0
  6 12  1  0
  6  7  1  0
  6 20  1  6
  7  8  1  0
  7 15  1  0
  7 21  1  6
  8  9  1  0
  8 22  1  0
  8 23  1  0
  9 13  1  0
  9 10  1  0
  9 24  1  1
 10 14  1  0
 10 11  1  0
 10 25  1  1
 11 12  1  0
 11 26  1  0
 11 27  1  0
 12 13  1  0
 12 28  1  6
 13 14  1  0
 13 29  1  6
 14 30  1  6
 15 31  1  0
 15 32  1  0
M  CHG  1   1   1
M  END
>  <i_m_ct_stereo_status>  (251) 
1

>  <s_m_source_file>  (251) 
/var/tmp/pbs.5076255.sched01/tmpoq50wh_d/842pmd5wfz.sdf

>  <i_m_source_file_index>  (251) 
11

>  <i_lp_mmshare_version>  (251) 
48012

>  <i_f3d_flags>  (251) 
0

>  <s_epik_input>  (251) 
W05IMl1bQ0BdMTJbQ0BASF0zW0NASF00W0NASF01W0NIXTNbQ0BIXShbQ0gyXTQpW0NASF0oQyg9TylbQ0gyXTEpW0NAQEhdKFtDSDJdNSlbQ0gyXTI=

>  <s_epik_cmdline>  (251) 
J2VwaWtfcHl0aG9uJywgJy1waHQnLCAnMi4wJywgJy1waCcsICc3LjAnLCAnLXRuJywgJzgnLCAnLW1hJywgJzIwMCcsICctaW1hZScsICc8aW5maWxlLm1hZT4nLCAnLW9tYWUnLCAnPG91dGZpbGUubWFlPic=

>  <r_lp_tautomer_probability>  (251) 
1

>  <r_epik_Ionization_Penalty>  (251) 
0.00121673

>  <r_epik_Ionization_Penalty_Charging>  (251) 
0.00121673

>  <r_epik_Ionization_Penalty_Neutral>  (251) 
2.55039e-12

>  <r_epik_State_Penalty>  (251) 
0.000803707

>  <r_epik_Charging_Adjusted_Penalty>  (251) 
0.00202043

>  <i_epik_Tot_Q>  (251) 
1

>  <i_epik_Tot_abs_Q>  (251) 
1

>  <s_lp_Force_Field>  (251) 
OPLS3e

>  <r_lp_Energy>  (251) 
391.75

>  <b_lp_Chiralities_Consistent>  (251) 
1

>  <s_lp_Variant>  (251) 
71:0-1

>  <s_i_glide_gridfile>  (251) 
pfpi4k_grid

>  <i_i_glide_lignum>  (251) 
11

>  <i_i_glide_rotatable_bonds>  (251) 
0

>  <r_i_docking_score>  (251) 
-3.78409

>  <r_i_glide_ligand_efficiency>  (251) 
-0.252273

>  <r_i_glide_ligand_efficiency_sa>  (251) 
-0.622158

>  <r_i_glide_ligand_efficiency_ln>  (251) 
-1.02051

>  <r_i_glide_gscore>  (251) 
-3.78409

>  <r_i_glide_lipo>  (251) 
-0.262716

>  <r_i_glide_hbond>  (251) 
-0.082944

>  <r_i_glide_metal>  (251) 
-0

>  <r_i_glide_rewards>  (251) 
-2.01622

>  <r_i_glide_evdw>  (251) 
-16.8019

>  <r_i_glide_ecoul>  (251) 
-3.65901

>  <r_i_glide_erotb>  (251) 
0

>  <r_i_glide_esite>  (251) 
-0.0332671

>  <r_i_glide_emodel>  (251) 
-26.974

>  <r_i_glide_energy>  (251) 
-20.461

>  <r_i_glide_einternal>  (251) 
0

>  <r_i_glide_intrahb_reward>  (251) 
-0

>  <i_i_glide_confnum>  (251) 
1

>  <i_i_glide_posenum>  (251) 
4

>  <r_i_glide_eff_state_penalty>  (251) 
0

>  <ligand_id>  (251) 
71

>  <original_smiles>  (251) 
NC12CC(=O)C3C(CC4C5CC3C4C51)C2

>  <smiles>  (251) 
[H]C1([H])C(=O)C2([H])C3([H])C([H])([H])C4([H])C5([H])C([H])([H])C2([H])C4([H])C5([H])C1([N+]([H])([H])[H])C3([H])[H]

$$$$
71:0:2
     RDKit          3D

 33 37  0  0  1  0  0  0  0  0999 V2000
    3.8582   -1.1138    2.1586 N   0  0  0  0  0  0  0  0  0  0  0  0
    4.0219   -2.0980    1.0834 C   0  0  1  0  0  0  0  0  0  0  0  0
    2.9743   -3.2239    1.3405 C   0  0  0  0  0  0  0  0  0  0  0  0
    3.4177   -4.5870    0.7872 C   0  0  0  0  0  0  0  0  0  0  0  0
    2.8867   -5.6338    1.1826 O   0  0  0  0  0  0  0  0  0  0  0  0
    4.5241   -4.5905   -0.2757 C   0  0  2  0  0  0  0  0  0  0  0  0
    5.9343   -3.8857    0.0496 C   0  0  1  0  0  0  0  0  0  0  0  0
    6.4617   -3.0394   -1.3947 C   0  0  0  0  0  0  0  0  0  0  0  0
    5.3132   -1.8906   -2.0329 C   0  0  2  0  0  0  0  0  0  0  0  0
    3.6463   -1.7525   -1.8897 C   0  0  1  0  0  0  0  0  0  0  0  0
    2.8653   -3.0838   -1.8897 C   0  0  0  0  0  0  0  0  0  0  0  0
    4.1058   -3.6141   -1.3185 C   0  0  1  0  0  0  0  0  0  0  0  0
    4.6547   -2.1748   -0.9290 C   0  0  2  0  0  0  0  0  0  0  0  0
    3.7850   -1.2910   -0.3693 C   0  0  1  0  0  0  0  0  0  0  0  0
    5.4841   -2.9091    1.3132 C   0  0  0  0  0  0  0  0  0  0  0  0
    3.9736   -1.5819    3.0458 H   0  0  0  0  0  0  0  0  0  0  0  0
    2.9348   -0.7123    2.0978 H   0  0  0  0  0  0  0  0  0  0  0  0
    2.8351   -3.3682    2.4123 H   0  0  0  0  0  0  0  0  0  0  0  0
    1.9995   -2.9531    0.9407 H   0  0  0  0  0  0  0  0  0  0  0  0
    4.6364   -5.5657   -0.7404 H   0  0  0  0  0  0  0  0  0  0  0  0
    6.6693   -4.6181    0.3697 H   0  0  0  0  0  0  0  0  0  0  0  0
    7.4114   -2.5450   -1.1768 H   0  0  0  0  0  0  0  0  0  0  0  0
    6.7121   -3.7716   -2.1707 H   0  0  0  0  0  0  0  0  0  0  0  0
    5.6957   -0.8702   -2.1394 H   0  0  0  0  0  0  0  0  0  0  0  0
    3.2325   -0.9635   -2.5200 H   0  0  0  0  0  0  0  0  0  0  0  0
    1.9868   -3.0617   -1.2468 H   0  0  0  0  0  0  0  0  0  0  0  0
    2.6621   -3.4775   -2.8832 H   0  0  0  0  0  0  0  0  0  0  0  0
    4.5199   -4.0758   -2.2199 H   0  0  0  0  0  0  0  0  0  0  0  0
    5.4705   -1.6160   -0.4077 H   0  0  0  0  0  0  0  0  0  0  0  0
    4.1442   -0.2501   -0.3765 H   0  0  0  0  0  0  0  0  0  0  0  0
    6.2888   -2.1936    1.4983 H   0  0  0  0  0  0  0  0  0  0  0  0
    5.4285   -3.5107    2.2187 H   0  0  0  0  0  0  0  0  0  0  0  0
    4.5519   -0.3876    2.0559 H   0  0  0  0  0  0  0  0  0  0  0  0
  2  1  1  1
  1 16  1  0
  1 17  1  0
  1 33  1  0
  2 14  1  0
  2 15  1  0
  2  3  1  0
  3  4  1  0
  3 18  1  0
  3 19  1  0
  4  5  2  0
  4  6  1  0
  6 12  1  0
  6  7  1  0
  6 20  1  6
  7  8  1  0
  7 15  1  0
  7 21  1  1
  8  9  1  0
  8 22  1  0
  8 23  1  0
  9 13  1  0
  9 10  1  0
  9 24  1  1
 10 14  1  0
 10 11  1  0
 10 25  1  6
 11 12  1  0
 11 26  1  0
 11 27  1  0
 12 13  1  0
 12 28  1  6
 13 14  1  0
 13 29  1  1
 14 30  1  1
 15 31  1  0
 15 32  1  0
M  CHG  1   1   1
M  END
>  <i_m_ct_stereo_status>  (252) 
1

>  <s_m_source_file>  (252) 
/var/tmp/pbs.5076255.sched01/tmpoq50wh_d/842pmd5wfz.sdf

>  <i_m_source_file_index>  (252) 
11

>  <i_lp_mmshare_version>  (252) 
48012

>  <i_f3d_flags>  (252) 
0

>  <s_epik_input>  (252) 
W05IMl1bQ0BdMTJbQ0BASF0zW0NASF00W0NASF01W0NIXTNbQ0BIXShbQ0gyXTQpW0NASF0oQyg9TylbQ0gyXTEpW0NAQEhdKFtDSDJdNSlbQ0gyXTI=

>  <s_epik_cmdline>  (252) 
J2VwaWtfcHl0aG9uJywgJy1waHQnLCAnMi4wJywgJy1waCcsICc3LjAnLCAnLXRuJywgJzgnLCAnLW1hJywgJzIwMCcsICctaW1hZScsICc8aW5maWxlLm1hZT4nLCAnLW9tYWUnLCAnPG91dGZpbGUubWFlPic=

>  <r_lp_tautomer_probability>  (252) 
1

>  <r_epik_Ionization_Penalty>  (252) 
0.00121673

>  <r_epik_Ionization_Penalty_Charging>  (252) 
0.00121673

>  <r_epik_Ionization_Penalty_Neutral>  (252) 
2.55039e-12

>  <r_epik_State_Penalty>  (252) 
0.000803707

>  <r_epik_Charging_Adjusted_Penalty>  (252) 
0.00202043

>  <i_epik_Tot_Q>  (252) 
1

>  <i_epik_Tot_abs_Q>  (252) 
1

>  <s_lp_Force_Field>  (252) 
OPLS3e

>  <r_lp_Energy>  (252) 
391.75

>  <b_lp_Chiralities_Consistent>  (252) 
1

>  <s_lp_Variant>  (252) 
71:0-1

>  <s_i_glide_gridfile>  (252) 
pfpi4k_grid

>  <i_i_glide_lignum>  (252) 
11

>  <i_i_glide_rotatable_bonds>  (252) 
0

>  <r_i_docking_score>  (252) 
-3.61696

>  <r_i_glide_ligand_efficiency>  (252) 
-0.24113

>  <r_i_glide_ligand_efficiency_sa>  (252) 
-0.594679

>  <r_i_glide_ligand_efficiency_ln>  (252) 
-0.975433

>  <r_i_glide_gscore>  (252) 
-3.61696

>  <r_i_glide_lipo>  (252) 
-0.184002

>  <r_i_glide_hbond>  (252) 
0

>  <r_i_glide_metal>  (252) 
-0

>  <r_i_glide_rewards>  (252) 
-2.01622

>  <r_i_glide_evdw>  (252) 
-18.4185

>  <r_i_glide_ecoul>  (252) 
-3.27757

>  <r_i_glide_erotb>  (252) 
0

>  <r_i_glide_esite>  (252) 
-0.00417384

>  <r_i_glide_emodel>  (252) 
-27.9254

>  <r_i_glide_energy>  (252) 
-21.6961

>  <r_i_glide_einternal>  (252) 
0

>  <r_i_glide_intrahb_reward>  (252) 
-0

>  <i_i_glide_confnum>  (252) 
2

>  <i_i_glide_posenum>  (252) 
20

>  <r_i_glide_eff_state_penalty>  (252) 
0

>  <ligand_id>  (252) 
71

>  <original_smiles>  (252) 
NC12CC(=O)C3C(CC4C5CC3C4C51)C2

>  <smiles>  (252) 
[H]C1([H])C(=O)C2([H])C3([H])C([H])([H])C4([H])C5([H])C([H])([H])C2([H])C4([H])C5([H])C1([N+]([H])([H])[H])C3([H])[H]

$$$$
72:0:0
     RDKit          3D

 52 55  0  0  1  0  0  0  0  0999 V2000
    1.8447   -2.6390    3.0393 C   0  0  0  0  0  0  0  0  0  0  0  0
    2.8225   -3.8440    3.0171 C   0  0  1  0  0  0  0  0  0  0  0  0
    2.6482   -4.6208    1.6846 C   0  0  0  0  0  0  0  0  0  0  0  0
    3.2624   -3.9188    0.4608 C   0  0  0  0  0  0  0  0  0  0  0  0
    4.7759   -3.6738    0.6480 C   0  0  2  0  0  0  0  0  0  0  0  0
    5.0292   -2.8566    1.9488 C   0  0  1  0  0  0  0  0  0  0  0  0
    4.7697   -1.3540    1.7295 C   0  0  0  0  0  0  0  0  0  0  0  0
    5.6557   -0.8082    0.6055 C   0  0  0  0  0  0  0  0  0  0  0  0
    5.4298   -1.5469   -0.7301 C   0  0  2  0  0  0  0  0  0  0  0  0
    4.1515   -1.0571   -1.4352 C   0  0  0  0  0  0  0  0  0  0  0  0
    3.9454   -1.7650   -2.7644 C   0  0  0  0  0  0  0  0  0  0  0  0
    3.8253   -1.1622   -3.8304 O   0  0  0  0  0  0  0  0  0  0  0  0
    3.9470   -3.2772   -2.6932 C   0  0  0  0  0  0  0  0  0  0  0  0
    5.1934   -3.7934   -1.9442 C   0  0  0  0  0  0  0  0  0  0  0  0
    5.5669   -3.0992   -0.5915 C   0  0  2  0  0  0  0  0  0  0  0  0
    7.0717   -3.4290   -0.3766 C   0  0  0  0  0  0  0  0  0  0  0  0
    4.3065   -3.4308    3.1993 C   0  0  2  0  0  0  0  0  0  0  0  0
    5.0116   -4.6660    3.7996 C   0  0  0  0  0  0  0  0  0  0  0  0
    3.9139   -5.6057    4.3182 C   0  0  0  0  0  0  0  0  0  0  0  0
    2.5930   -4.8238    4.2097 C   0  0  1  0  0  0  0  0  0  0  0  0
    2.2766   -4.1576    5.5599 C   0  0  0  0  0  0  0  0  0  0  0  0
    1.1337   -3.7978    5.8361 O   0  0  0  0  0  0  0  0  0  0  0  0
    0.8173   -2.9723    3.2002 H   0  0  0  0  0  0  0  0  0  0  0  0
    1.8429   -2.0757    2.1084 H   0  0  0  0  0  0  0  0  0  0  0  0
    2.0876   -1.9346    3.8364 H   0  0  0  0  0  0  0  0  0  0  0  0
    3.1046   -5.6082    1.7539 H   0  0  0  0  0  0  0  0  0  0  0  0
    1.5902   -4.8089    1.5120 H   0  0  0  0  0  0  0  0  0  0  0  0
    3.0949   -4.5807   -0.3858 H   0  0  0  0  0  0  0  0  0  0  0  0
    2.7306   -2.9948    0.2446 H   0  0  0  0  0  0  0  0  0  0  0  0
    5.1826   -4.6718    0.8165 H   0  0  0  0  0  0  0  0  0  0  0  0
    6.0886   -2.9281    2.1883 H   0  0  0  0  0  0  0  0  0  0  0  0
    3.7279   -1.1620    1.4835 H   0  0  0  0  0  0  0  0  0  0  0  0
    4.9768   -0.8015    2.6466 H   0  0  0  0  0  0  0  0  0  0  0  0
    5.4636    0.2566    0.4826 H   0  0  0  0  0  0  0  0  0  0  0  0
    6.7007   -0.8872    0.9089 H   0  0  0  0  0  0  0  0  0  0  0  0
    6.2246   -1.2230   -1.3972 H   0  0  0  0  0  0  0  0  0  0  0  0
    3.2695   -1.2033   -0.8140 H   0  0  0  0  0  0  0  0  0  0  0  0
    4.2306    0.0114   -1.6316 H   0  0  0  0  0  0  0  0  0  0  0  0
    3.0246   -3.5926   -2.2123 H   0  0  0  0  0  0  0  0  0  0  0  0
    3.9179   -3.6920   -3.7008 H   0  0  0  0  0  0  0  0  0  0  0  0
    5.0807   -4.8672   -1.7884 H   0  0  0  0  0  0  0  0  0  0  0  0
    6.0297   -3.6878   -2.6420 H   0  0  0  0  0  0  0  0  0  0  0  0
    7.6813   -3.0803   -1.2139 H   0  0  0  0  0  0  0  0  0  0  0  0
    7.2322   -4.5058   -0.2917 H   0  0  0  0  0  0  0  0  0  0  0  0
    7.4910   -2.9738    0.5205 H   0  0  0  0  0  0  0  0  0  0  0  0
    4.3398   -2.6670    3.9788 H   0  0  0  0  0  0  0  0  0  0  0  0
    5.6238   -5.1903    3.0650 H   0  0  0  0  0  0  0  0  0  0  0  0
    5.6753   -4.3611    4.6091 H   0  0  0  0  0  0  0  0  0  0  0  0
    3.8682   -6.5022    3.6975 H   0  0  0  0  0  0  0  0  0  0  0  0
    4.1275   -5.9522    5.3303 H   0  0  0  0  0  0  0  0  0  0  0  0
    1.7682   -5.5055    3.9935 H   0  0  0  0  0  0  0  0  0  0  0  0
    3.1167   -4.0466    6.2433 H   0  0  0  0  0  0  0  0  0  0  0  0
  2  1  1  6
  1 23  1  0
  1 24  1  0
  1 25  1  0
  2 17  1  0
  2 20  1  0
  2  3  1  0
  3  4  1  0
  3 26  1  0
  3 27  1  0
  4  5  1  0
  4 28  1  0
  4 29  1  0
  5 15  1  0
  5  6  1  0
  5 30  1  1
  6  7  1  0
  6 17  1  0
  6 31  1  1
  7  8  1  0
  7 32  1  0
  7 33  1  0
  8  9  1  0
  8 34  1  0
  8 35  1  0
  9 15  1  0
  9 10  1  0
  9 36  1  6
 10 11  1  0
 10 37  1  0
 10 38  1  0
 11 12  2  0
 11 13  1  0
 13 14  1  0
 13 39  1  0
 13 40  1  0
 14 15  1  0
 14 41  1  0
 14 42  1  0
 15 16  1  1
 16 43  1  0
 16 44  1  0
 16 45  1  0
 17 18  1  0
 17 46  1  1
 18 19  1  0
 18 47  1  0
 18 48  1  0
 19 20  1  0
 19 49  1  0
 19 50  1  0
 20 21  1  0
 20 51  1  6
 21 22  2  0
 21 52  1  0
M  END
>  <i_m_ct_stereo_status>  (253) 
1

>  <s_m_source_file>  (253) 
/var/tmp/pbs.5076255.sched01/tmpoq50wh_d/842pmd5wfz.sdf

>  <i_m_source_file_index>  (253) 
12

>  <i_lp_mmshare_version>  (253) 
48012

>  <i_f3d_flags>  (253) 
0

>  <s_epik_input>  (253) 
Tz1bQ0hdW0NAQEhdMVtDSDJdW0NIMl1bQ0BIXShbQ0BdMTJbQ0gzXSlbQ0BIXTNbQ0BASF0oW0NIMl1bQ0gyXTIpW0NAXTQoW0NIM10pW0NASF0oW0NIMl1bQ0gyXTMpW0NIMl1DKD1PKVtDSDJdW0NIMl00

>  <s_epik_cmdline>  (253) 
J2VwaWtfcHl0aG9uJywgJy1waHQnLCAnMi4wJywgJy1waCcsICc3LjAnLCAnLXRuJywgJzgnLCAnLW1hJywgJzIwMCcsICctaW1hZScsICc8aW5maWxlLm1hZT4nLCAnLW9tYWUnLCAnPG91dGZpbGUubWFlPic=

>  <r_lp_tautomer_probability>  (253) 
1

>  <r_epik_Ionization_Penalty>  (253) 
1.06726e-10

>  <r_epik_Ionization_Penalty_Charging>  (253) 
0

>  <r_epik_Ionization_Penalty_Neutral>  (253) 
1.06726e-10

>  <r_epik_State_Penalty>  (253) 
-0

>  <r_epik_Charging_Adjusted_Penalty>  (253) 
0

>  <i_epik_Tot_Q>  (253) 
0

>  <i_epik_Tot_abs_Q>  (253) 
0

>  <s_lp_Force_Field>  (253) 
OPLS3e

>  <r_lp_Energy>  (253) 
44.4143

>  <b_lp_Chiralities_Consistent>  (253) 
1

>  <s_lp_Variant>  (253) 
72:0-1

>  <s_i_glide_gridfile>  (253) 
pfpi4k_grid

>  <i_i_glide_lignum>  (253) 
12

>  <i_i_glide_rotatable_bonds>  (253) 
1

>  <r_i_docking_score>  (253) 
-3.38509

>  <r_i_glide_ligand_efficiency>  (253) 
-0.153868

>  <r_i_glide_ligand_efficiency_sa>  (253) 
-0.431144

>  <r_i_glide_ligand_efficiency_ln>  (253) 
-0.82744

>  <r_i_glide_gscore>  (253) 
-3.38509

>  <r_i_glide_lipo>  (253) 
-0.483364

>  <r_i_glide_hbond>  (253) 
0

>  <r_i_glide_metal>  (253) 
-0

>  <r_i_glide_rewards>  (253) 
-1.34692

>  <r_i_glide_evdw>  (253) 
-25.8758

>  <r_i_glide_ecoul>  (253) 
-1.69999

>  <r_i_glide_erotb>  (253) 
0

>  <r_i_glide_esite>  (253) 
-0.00601579

>  <r_i_glide_emodel>  (253) 
-32.8875

>  <r_i_glide_energy>  (253) 
-27.5758

>  <r_i_glide_einternal>  (253) 
0.800449

>  <r_i_glide_intrahb_reward>  (253) 
-0

>  <i_i_glide_confnum>  (253) 
2

>  <i_i_glide_posenum>  (253) 
37

>  <r_i_glide_eff_state_penalty>  (253) 
0

>  <ligand_id>  (253) 
72

>  <original_smiles>  (253) 
CC12CCC3C(CCC4CC(=O)CCC43C)C1CCC2C=O

>  <smiles>  (253) 
[H]C(=O)C1([H])C([H])([H])C([H])([H])C2([H])C3([H])C([H])([H])C([H])([H])C4([H])C([H])([H])C(=O)C([H])([H])C([H])([H])C4(C([H])([H])[H])C3([H])C([H])([H])C([H])([H])C12C([H])([H])[H]

$$$$
72:0:1
     RDKit          3D

 52 55  0  0  1  0  0  0  0  0999 V2000
    2.3185   -3.7978   -0.5933 C   0  0  0  0  0  0  0  0  0  0  0  0
    3.7057   -3.1405   -0.3868 C   0  0  1  0  0  0  0  0  0  0  0  0
    3.8137   -2.6442    1.0846 C   0  0  0  0  0  0  0  0  0  0  0  0
    4.0469   -3.7668    2.1136 C   0  0  0  0  0  0  0  0  0  0  0  0
    5.3253   -4.5764    1.8042 C   0  0  2  0  0  0  0  0  0  0  0  0
    5.2550   -5.1455    0.3594 C   0  0  1  0  0  0  0  0  0  0  0  0
    4.3817   -6.4133    0.3024 C   0  0  0  0  0  0  0  0  0  0  0  0
    4.9188   -7.4996    1.2418 C   0  0  0  0  0  0  0  0  0  0  0  0
    4.9937   -7.0208    2.7064 C   0  0  2  0  0  0  0  0  0  0  0  0
    3.5976   -7.0667    3.3640 C   0  0  0  0  0  0  0  0  0  0  0  0
    3.6549   -6.6018    4.8108 C   0  0  0  0  0  0  0  0  0  0  0  0
    3.2106   -7.2754    5.7398 O   0  0  0  0  0  0  0  0  0  0  0  0
    4.3027   -5.2490    5.0379 C   0  0  0  0  0  0  0  0  0  0  0  0
    5.6787   -5.1633    4.3417 C   0  0  0  0  0  0  0  0  0  0  0  0
    5.7649   -5.6646    2.8593 C   0  0  2  0  0  0  0  0  0  0  0  0
    7.2753   -5.9534    2.6257 C   0  0  0  0  0  0  0  0  0  0  0  0
    4.8842   -4.0875   -0.7160 C   0  0  2  0  0  0  0  0  0  0  0  0
    6.0584   -3.1581   -1.0989 C   0  0  0  0  0  0  0  0  0  0  0  0
    5.4665   -1.7641   -1.3561 C   0  0  0  0  0  0  0  0  0  0  0  0
    3.9399   -1.9455   -1.3602 C   0  0  1  0  0  0  0  0  0  0  0  0
    3.3952   -2.1430   -2.7959 C   0  0  0  0  0  0  0  0  0  0  0  0
    4.0921   -2.5832   -3.7147 O   0  0  0  0  0  0  0  0  0  0  0  0
    1.5301   -3.0565   -0.6226 H   0  0  0  0  0  0  0  0  0  0  0  0
    2.0639   -4.4959    0.2035 H   0  0  0  0  0  0  0  0  0  0  0  0
    2.2509   -4.3255   -1.5333 H   0  0  0  0  0  0  0  0  0  0  0  0
    4.6327   -1.9350    1.1898 H   0  0  0  0  0  0  0  0  0  0  0  0
    2.9106   -2.0907    1.3518 H   0  0  0  0  0  0  0  0  0  0  0  0
    4.1437   -3.2764    3.0787 H   0  0  0  0  0  0  0  0  0  0  0  0
    3.1720   -4.4082    2.1748 H   0  0  0  0  0  0  0  0  0  0  0  0
    6.1159   -3.8264    1.8107 H   0  0  0  0  0  0  0  0  0  0  0  0
    6.2522   -5.4780    0.0819 H   0  0  0  0  0  0  0  0  0  0  0  0
    3.3464   -6.2003    0.5586 H   0  0  0  0  0  0  0  0  0  0  0  0
    4.3731   -6.8035   -0.7156 H   0  0  0  0  0  0  0  0  0  0  0  0
    4.2931   -8.3919    1.1712 H   0  0  0  0  0  0  0  0  0  0  0  0
    5.9099   -7.8039    0.9027 H   0  0  0  0  0  0  0  0  0  0  0  0
    5.5711   -7.7819    3.2354 H   0  0  0  0  0  0  0  0  0  0  0  0
    2.8885   -6.4375    2.8309 H   0  0  0  0  0  0  0  0  0  0  0  0
    3.2077   -8.0817    3.3369 H   0  0  0  0  0  0  0  0  0  0  0  0
    3.6170   -4.4866    4.6805 H   0  0  0  0  0  0  0  0  0  0  0  0
    4.4176   -5.0755    6.1078 H   0  0  0  0  0  0  0  0  0  0  0  0
    6.0358   -4.1344    4.4100 H   0  0  0  0  0  0  0  0  0  0  0  0
    6.3672   -5.7472    4.9548 H   0  0  0  0  0  0  0  0  0  0  0  0
    7.6515   -6.6834    3.3455 H   0  0  0  0  0  0  0  0  0  0  0  0
    7.8793   -5.0613    2.7342 H   0  0  0  0  0  0  0  0  0  0  0  0
    7.4858   -6.3578    1.6341 H   0  0  0  0  0  0  0  0  0  0  0  0
    4.6170   -4.6246   -1.6294 H   0  0  0  0  0  0  0  0  0  0  0  0
    6.8138   -3.1050   -0.3126 H   0  0  0  0  0  0  0  0  0  0  0  0
    6.5470   -3.5339   -1.9962 H   0  0  0  0  0  0  0  0  0  0  0  0
    5.7650   -1.0795   -0.5600 H   0  0  0  0  0  0  0  0  0  0  0  0
    5.8354   -1.3330   -2.2870 H   0  0  0  0  0  0  0  0  0  0  0  0
    3.4544   -1.0506   -0.9745 H   0  0  0  0  0  0  0  0  0  0  0  0
    2.3603   -1.8435   -2.9326 H   0  0  0  0  0  0  0  0  0  0  0  0
  2  1  1  1
  1 23  1  0
  1 24  1  0
  1 25  1  0
  2 17  1  0
  2 20  1  0
  2  3  1  0
  3  4  1  0
  3 26  1  0
  3 27  1  0
  4  5  1  0
  4 28  1  0
  4 29  1  0
  5 15  1  0
  5  6  1  0
  5 30  1  6
  6  7  1  0
  6 17  1  0
  6 31  1  6
  7  8  1  0
  7 32  1  0
  7 33  1  0
  8  9  1  0
  8 34  1  0
  8 35  1  0
  9 15  1  0
  9 10  1  0
  9 36  1  1
 10 11  1  0
 10 37  1  0
 10 38  1  0
 11 12  2  0
 11 13  1  0
 13 14  1  0
 13 39  1  0
 13 40  1  0
 14 15  1  0
 14 41  1  0
 14 42  1  0
 15 16  1  6
 16 43  1  0
 16 44  1  0
 16 45  1  0
 17 18  1  0
 17 46  1  6
 18 19  1  0
 18 47  1  0
 18 48  1  0
 19 20  1  0
 19 49  1  0
 19 50  1  0
 20 21  1  0
 20 51  1  1
 21 22  2  0
 21 52  1  0
M  END
>  <i_m_ct_stereo_status>  (254) 
1

>  <s_m_source_file>  (254) 
/var/tmp/pbs.5076255.sched01/tmpoq50wh_d/842pmd5wfz.sdf

>  <i_m_source_file_index>  (254) 
12

>  <i_lp_mmshare_version>  (254) 
48012

>  <i_f3d_flags>  (254) 
0

>  <s_epik_input>  (254) 
Tz1bQ0hdW0NAQEhdMVtDSDJdW0NIMl1bQ0BIXShbQ0BdMTJbQ0gzXSlbQ0BIXTNbQ0BASF0oW0NIMl1bQ0gyXTIpW0NAXTQoW0NIM10pW0NASF0oW0NIMl1bQ0gyXTMpW0NIMl1DKD1PKVtDSDJdW0NIMl00

>  <s_epik_cmdline>  (254) 
J2VwaWtfcHl0aG9uJywgJy1waHQnLCAnMi4wJywgJy1waCcsICc3LjAnLCAnLXRuJywgJzgnLCAnLW1hJywgJzIwMCcsICctaW1hZScsICc8aW5maWxlLm1hZT4nLCAnLW9tYWUnLCAnPG91dGZpbGUubWFlPic=

>  <r_lp_tautomer_probability>  (254) 
1

>  <r_epik_Ionization_Penalty>  (254) 
1.06726e-10

>  <r_epik_Ionization_Penalty_Charging>  (254) 
0

>  <r_epik_Ionization_Penalty_Neutral>  (254) 
1.06726e-10

>  <r_epik_State_Penalty>  (254) 
-0

>  <r_epik_Charging_Adjusted_Penalty>  (254) 
0

>  <i_epik_Tot_Q>  (254) 
0

>  <i_epik_Tot_abs_Q>  (254) 
0

>  <s_lp_Force_Field>  (254) 
OPLS3e

>  <r_lp_Energy>  (254) 
44.4143

>  <b_lp_Chiralities_Consistent>  (254) 
1

>  <s_lp_Variant>  (254) 
72:0-1

>  <s_i_glide_gridfile>  (254) 
pfpi4k_grid

>  <i_i_glide_lignum>  (254) 
12

>  <i_i_glide_rotatable_bonds>  (254) 
1

>  <r_i_docking_score>  (254) 
-3.32507

>  <r_i_glide_ligand_efficiency>  (254) 
-0.151139

>  <r_i_glide_ligand_efficiency_sa>  (254) 
-0.423499

>  <r_i_glide_ligand_efficiency_ln>  (254) 
-0.812768

>  <r_i_glide_gscore>  (254) 
-3.32507

>  <r_i_glide_lipo>  (254) 
-0.480655

>  <r_i_glide_hbond>  (254) 
-0.00332408

>  <r_i_glide_metal>  (254) 
-0

>  <r_i_glide_rewards>  (254) 
-1.34692

>  <r_i_glide_evdw>  (254) 
-23.0734

>  <r_i_glide_ecoul>  (254) 
-2.19878

>  <r_i_glide_erotb>  (254) 
0

>  <r_i_glide_esite>  (254) 
-0.0106783

>  <r_i_glide_emodel>  (254) 
-30.6007

>  <r_i_glide_energy>  (254) 
-25.2721

>  <r_i_glide_einternal>  (254) 
0.525297

>  <r_i_glide_intrahb_reward>  (254) 
-0

>  <i_i_glide_confnum>  (254) 
2

>  <i_i_glide_posenum>  (254) 
27

>  <r_i_glide_eff_state_penalty>  (254) 
0

>  <ligand_id>  (254) 
72

>  <original_smiles>  (254) 
CC12CCC3C(CCC4CC(=O)CCC43C)C1CCC2C=O

>  <smiles>  (254) 
[H]C(=O)C1([H])C([H])([H])C([H])([H])C2([H])C3([H])C([H])([H])C([H])([H])C4([H])C([H])([H])C(=O)C([H])([H])C([H])([H])C4(C([H])([H])[H])C3([H])C([H])([H])C([H])([H])C12C([H])([H])[H]

$$$$
72:0:2
     RDKit          3D

 52 55  0  0  1  0  0  0  0  0999 V2000
    2.2356   -3.1729    2.1243 C   0  0  0  0  0  0  0  0  0  0  0  0
    3.0453   -4.3757    1.5837 C   0  0  1  0  0  0  0  0  0  0  0  0
    2.5359   -4.7703    0.1720 C   0  0  0  0  0  0  0  0  0  0  0  0
    2.9334   -3.7773   -0.9167 C   0  0  0  0  0  0  0  0  0  0  0  0
    4.4624   -3.6844   -1.0235 C   0  0  2  0  0  0  0  0  0  0  0  0
    5.0700   -3.2524    0.3368 C   0  0  1  0  0  0  0  0  0  0  0  0
    4.8978   -1.7463    0.5634 C   0  0  0  0  0  0  0  0  0  0  0  0
    5.5655   -0.9853   -0.5525 C   0  0  0  0  0  0  0  0  0  0  0  0
    5.0244   -1.3337   -1.9423 C   0  0  2  0  0  0  0  0  0  0  0  0
    3.7294   -0.6551   -2.2943 C   0  0  0  0  0  0  0  0  0  0  0  0
    3.1893   -1.0113   -3.6589 C   0  0  0  0  0  0  0  0  0  0  0  0
    2.9392   -0.1675   -4.5073 O   0  0  0  0  0  0  0  0  0  0  0  0
    3.0186   -2.4856   -3.9089 C   0  0  0  0  0  0  0  0  0  0  0  0
    4.3288   -3.2003   -3.5451 C   0  0  0  0  0  0  0  0  0  0  0  0
    5.0274   -2.8485   -2.2031 C   0  0  2  0  0  0  0  0  0  0  0  0
    6.4793   -3.2158   -2.3576 C   0  0  0  0  0  0  0  0  0  0  0  0
    4.5678   -4.0968    1.5225 C   0  0  2  0  0  0  0  0  0  0  0  0
    5.2547   -5.4681    1.6112 C   0  0  0  0  0  0  0  0  0  0  0  0
    4.1970   -6.4624    2.1147 C   0  0  0  0  0  0  0  0  0  0  0  0
    2.9745   -5.6221    2.5058 C   0  0  1  0  0  0  0  0  0  0  0  0
    3.0095   -5.3263    4.0205 C   0  0  0  0  0  0  0  0  0  0  0  0
    2.0083   -4.9196    4.6110 O   0  0  0  0  0  0  0  0  0  0  0  0
    1.2585   -3.4890    2.4924 H   0  0  0  0  0  0  0  0  0  0  0  0
    2.0693   -2.3975    1.3778 H   0  0  0  0  0  0  0  0  0  0  0  0
    2.7352   -2.6967    2.9696 H   0  0  0  0  0  0  0  0  0  0  0  0
    2.9094   -5.7548   -0.1229 H   0  0  0  0  0  0  0  0  0  0  0  0
    1.4507   -4.8743    0.1657 H   0  0  0  0  0  0  0  0  0  0  0  0
    2.5047   -4.1656   -1.8416 H   0  0  0  0  0  0  0  0  0  0  0  0
    2.4691   -2.8003   -0.7666 H   0  0  0  0  0  0  0  0  0  0  0  0
    4.7928   -4.7047   -1.2426 H   0  0  0  0  0  0  0  0  0  0  0  0
    6.1405   -3.4300    0.3020 H   0  0  0  0  0  0  0  0  0  0  0  0
    3.8570   -1.4478    0.5812 H   0  0  0  0  0  0  0  0  0  0  0  0
    5.3603   -1.4497    1.5071 H   0  0  0  0  0  0  0  0  0  0  0  0
    5.4609    0.1052   -0.3276 H   0  0  0  0  0  0  0  0  0  0  0  0
    6.6308   -1.1847   -0.5083 H   0  0  0  0  0  0  0  0  0  0  0  0
    5.6831   -0.8601   -2.6529 H   0  0  0  0  0  0  0  0  0  0  0  0
    2.9724   -0.8379   -1.5306 H   0  0  0  0  0  0  0  0  0  0  0  0
    3.9848    0.4123   -2.4019 H   0  0  0  0  0  0  0  0  0  0  0  0
    2.1495   -2.8073   -3.3248 H   0  0  0  0  0  0  0  0  0  0  0  0
    2.7977   -2.6398   -4.9579 H   0  0  0  0  0  0  0  0  0  0  0  0
    4.1646   -4.2685   -3.6691 H   0  0  0  0  0  0  0  0  0  0  0  0
    4.9979   -2.9276   -4.3247 H   0  0  0  0  0  0  0  0  0  0  0  0
    6.9131   -2.6603   -3.1633 H   0  0  0  0  0  0  0  0  0  0  0  0
    6.5295   -4.2060   -2.7418 H   0  0  0  0  0  0  0  0  0  0  0  0
    7.1385   -3.0395   -1.5114 H   0  0  0  0  0  0  0  0  0  0  0  0
    4.8365   -3.5606    2.4340 H   0  0  0  0  0  0  0  0  0  0  0  0
    5.6425   -5.8072    0.6470 H   0  0  0  0  0  0  0  0  0  0  0  0
    6.1041   -5.4102    2.2990 H   0  0  0  0  0  0  0  0  0  0  0  0
    3.9378   -7.1582    1.3113 H   0  0  0  0  0  0  0  0  0  0  0  0
    4.5825   -7.0688    2.9302 H   0  0  0  0  0  0  0  0  0  0  0  0
    2.0583   -6.1836    2.3198 H   0  0  0  0  0  0  0  0  0  0  0  0
    3.9549   -5.5215    4.5193 H   0  0  0  0  0  0  0  0  0  0  0  0
  2  1  1  1
  1 23  1  0
  1 24  1  0
  1 25  1  0
  2 17  1  0
  2 20  1  0
  2  3  1  0
  3  4  1  0
  3 26  1  0
  3 27  1  0
  4  5  1  0
  4 28  1  0
  4 29  1  0
  5 15  1  0
  5  6  1  0
  5 30  1  6
  6  7  1  0
  6 17  1  0
  6 31  1  6
  7  8  1  0
  7 32  1  0
  7 33  1  0
  8  9  1  0
  8 34  1  0
  8 35  1  0
  9 15  1  0
  9 10  1  0
  9 36  1  6
 10 11  1  0
 10 37  1  0
 10 38  1  0
 11 12  2  0
 11 13  1  0
 13 14  1  0
 13 39  1  0
 13 40  1  0
 14 15  1  0
 14 41  1  0
 14 42  1  0
 15 16  1  6
 16 43  1  0
 16 44  1  0
 16 45  1  0
 17 18  1  0
 17 46  1  1
 18 19  1  0
 18 47  1  0
 18 48  1  0
 19 20  1  0
 19 49  1  0
 19 50  1  0
 20 21  1  0
 20 51  1  1
 21 22  2  0
 21 52  1  0
M  END
>  <i_m_ct_stereo_status>  (255) 
1

>  <s_m_source_file>  (255) 
/var/tmp/pbs.5076255.sched01/tmpoq50wh_d/842pmd5wfz.sdf

>  <i_m_source_file_index>  (255) 
12

>  <i_lp_mmshare_version>  (255) 
48012

>  <i_f3d_flags>  (255) 
0

>  <s_epik_input>  (255) 
Tz1bQ0hdW0NAQEhdMVtDSDJdW0NIMl1bQ0BIXShbQ0BdMTJbQ0gzXSlbQ0BIXTNbQ0BASF0oW0NIMl1bQ0gyXTIpW0NAXTQoW0NIM10pW0NASF0oW0NIMl1bQ0gyXTMpW0NIMl1DKD1PKVtDSDJdW0NIMl00

>  <s_epik_cmdline>  (255) 
J2VwaWtfcHl0aG9uJywgJy1waHQnLCAnMi4wJywgJy1waCcsICc3LjAnLCAnLXRuJywgJzgnLCAnLW1hJywgJzIwMCcsICctaW1hZScsICc8aW5maWxlLm1hZT4nLCAnLW9tYWUnLCAnPG91dGZpbGUubWFlPic=

>  <r_lp_tautomer_probability>  (255) 
1

>  <r_epik_Ionization_Penalty>  (255) 
1.06726e-10

>  <r_epik_Ionization_Penalty_Charging>  (255) 
0

>  <r_epik_Ionization_Penalty_Neutral>  (255) 
1.06726e-10

>  <r_epik_State_Penalty>  (255) 
-0

>  <r_epik_Charging_Adjusted_Penalty>  (255) 
0

>  <i_epik_Tot_Q>  (255) 
0

>  <i_epik_Tot_abs_Q>  (255) 
0

>  <s_lp_Force_Field>  (255) 
OPLS3e

>  <r_lp_Energy>  (255) 
44.4143

>  <b_lp_Chiralities_Consistent>  (255) 
1

>  <s_lp_Variant>  (255) 
72:0-1

>  <s_i_glide_gridfile>  (255) 
pfpi4k_grid

>  <i_i_glide_lignum>  (255) 
12

>  <i_i_glide_rotatable_bonds>  (255) 
1

>  <r_i_docking_score>  (255) 
-3.2734

>  <r_i_glide_ligand_efficiency>  (255) 
-0.148791

>  <r_i_glide_ligand_efficiency_sa>  (255) 
-0.416918

>  <r_i_glide_ligand_efficiency_ln>  (255) 
-0.800138

>  <r_i_glide_gscore>  (255) 
-3.2734

>  <r_i_glide_lipo>  (255) 
-0.678018

>  <r_i_glide_hbond>  (255) 
0

>  <r_i_glide_metal>  (255) 
-0

>  <r_i_glide_rewards>  (255) 
-1.66722

>  <r_i_glide_evdw>  (255) 
-17.4369

>  <r_i_glide_ecoul>  (255) 
-0.375459

>  <r_i_glide_erotb>  (255) 
0

>  <r_i_glide_esite>  (255) 
0

>  <r_i_glide_emodel>  (255) 
-22.382

>  <r_i_glide_energy>  (255) 
-17.8124

>  <r_i_glide_einternal>  (255) 
0.815313

>  <r_i_glide_intrahb_reward>  (255) 
-0

>  <i_i_glide_confnum>  (255) 
2

>  <i_i_glide_posenum>  (255) 
1

>  <r_i_glide_eff_state_penalty>  (255) 
0

>  <ligand_id>  (255) 
72

>  <original_smiles>  (255) 
CC12CCC3C(CCC4CC(=O)CCC43C)C1CCC2C=O

>  <smiles>  (255) 
[H]C(=O)C1([H])C([H])([H])C([H])([H])C2([H])C3([H])C([H])([H])C([H])([H])C4([H])C([H])([H])C(=O)C([H])([H])C([H])([H])C4(C([H])([H])[H])C3([H])C([H])([H])C([H])([H])C12C([H])([H])[H]

$$$$
73:0:0
     RDKit          3D

 41 43  0  0  1  0  0  0  0  0999 V2000
   -1.1985   -8.7166    2.7060 C   0  0  0  0  0  0  0  0  0  0  0  0
   -0.1926   -7.9285    3.5015 C   0  0  0  0  0  0  0  0  0  0  0  0
   -0.5709   -7.4203    4.6621 N   0  0  0  0  0  0  0  0  0  0  0  0
    0.5162   -6.7791    5.1314 N   0  0  0  0  0  0  0  0  0  0  0  0
    0.4299   -6.1113    6.4158 C   0  0  0  0  0  0  0  0  0  0  0  0
    1.5802   -6.8483    4.2529 C   0  0  0  0  0  0  0  0  0  0  0  0
    2.8892   -6.1795    4.5502 C   0  0  0  0  0  0  0  0  0  0  0  0
    1.1574   -7.5882    3.1753 C   0  0  0  0  0  0  0  0  0  0  0  0
    1.9163   -7.9283    1.9159 C   0  0  2  0  0  0  0  0  0  0  0  0
    2.9513   -9.0306    2.1729 C   0  0  0  0  0  0  0  0  0  0  0  0
    2.5550   -6.7363    1.3723 N   0  0  0  0  0  0  0  0  0  0  0  0
    1.9525   -5.8520    0.5617 C   0  0  0  0  0  0  0  0  0  0  0  0
    0.8312   -6.0383    0.0816 O   0  0  0  0  0  0  0  0  0  0  0  0
    2.7239   -4.5944    0.2773 C   0  0  0  0  0  0  0  0  0  0  0  0
    2.4763   -3.8554   -0.9003 C   0  0  0  0  0  0  0  0  0  0  0  0
    3.2002   -2.6733   -1.1120 C   0  0  0  0  0  0  0  0  0  0  0  0
    4.1156   -2.2247   -0.1429 C   0  0  0  0  0  0  0  0  0  0  0  0
    4.8115   -1.0828   -0.3522 N   0  0  0  0  0  0  0  0  0  0  0  0
    5.6522   -0.6805    0.6201 C   0  0  0  0  0  0  0  0  0  0  0  0
    5.8145   -1.4335    1.7958 C   0  0  0  0  0  0  0  0  0  0  0  0
    5.1374   -2.5843    1.9988 N   0  0  0  0  0  0  0  0  0  0  0  0
    4.2782   -3.0089    1.0433 C   0  0  0  0  0  0  0  0  0  0  0  0
    3.5934   -4.1625    1.2167 N   0  0  0  0  0  0  0  0  0  0  0  0
   -0.7762   -9.1203    1.7901 H   0  0  0  0  0  0  0  0  0  0  0  0
   -2.0469   -8.0907    2.4337 H   0  0  0  0  0  0  0  0  0  0  0  0
   -1.5827   -9.5554    3.2835 H   0  0  0  0  0  0  0  0  0  0  0  0
    1.4193   -5.9925    6.8554 H   0  0  0  0  0  0  0  0  0  0  0  0
   -0.1812   -6.7028    7.0963 H   0  0  0  0  0  0  0  0  0  0  0  0
   -0.0256   -5.1321    6.2811 H   0  0  0  0  0  0  0  0  0  0  0  0
    3.5932   -6.2561    3.7242 H   0  0  0  0  0  0  0  0  0  0  0  0
    3.3632   -6.6284    5.4224 H   0  0  0  0  0  0  0  0  0  0  0  0
    2.7370   -5.1201    4.7536 H   0  0  0  0  0  0  0  0  0  0  0  0
    1.2329   -8.3197    1.1641 H   0  0  0  0  0  0  0  0  0  0  0  0
    2.4689   -9.9391    2.5411 H   0  0  0  0  0  0  0  0  0  0  0  0
    3.6861   -8.7281    2.9207 H   0  0  0  0  0  0  0  0  0  0  0  0
    3.4861   -9.3053    1.2606 H   0  0  0  0  0  0  0  0  0  0  0  0
    3.4601   -6.4668    1.7258 H   0  0  0  0  0  0  0  0  0  0  0  0
    1.7756   -4.2083   -1.6493 H   0  0  0  0  0  0  0  0  0  0  0  0
    3.0462   -2.1073   -2.0165 H   0  0  0  0  0  0  0  0  0  0  0  0
    6.2036    0.2379    0.4662 H   0  0  0  0  0  0  0  0  0  0  0  0
    6.5031   -1.1195    2.5649 H   0  0  0  0  0  0  0  0  0  0  0  0
  1  2  1  0
  1 24  1  0
  1 25  1  0
  1 26  1  0
  2  8  1  0
  2  3  2  0
  3  4  1  0
  4  5  1  0
  4  6  1  0
  5 27  1  0
  5 28  1  0
  5 29  1  0
  6  7  1  0
  6  8  2  0
  7 30  1  0
  7 31  1  0
  7 32  1  0
  8  9  1  0
  9 10  1  0
  9 11  1  0
  9 33  1  6
 10 34  1  0
 10 35  1  0
 10 36  1  0
 11 12  1  0
 11 37  1  0
 12 13  2  0
 12 14  1  0
 14 23  1  0
 14 15  2  0
 15 16  1  0
 15 38  1  0
 16 17  2  0
 16 39  1  0
 17 22  1  0
 17 18  1  0
 18 19  2  0
 19 20  1  0
 19 40  1  0
 20 21  2  0
 20 41  1  0
 21 22  1  0
 22 23  2  0
M  END
>  <i_m_ct_stereo_status>  (256) 
1

>  <s_m_source_file>  (256) 
/var/tmp/pbs.5076255.sched01/tmpoq50wh_d/842pmd5wfz.sdf

>  <i_m_source_file_index>  (256) 
13

>  <i_lp_mmshare_version>  (256) 
48012

>  <i_f3d_flags>  (256) 
0

>  <s_epik_input>  (256) 
W0NIM11jMW5uKFtDSDNdKWMoW0NIM10pYzFbQ0BIXShbQ0gzXSlbTkhdQyg9TyljKFtjSF1bY0hdMiluYyhjMjMpbltjSF1bY0hdbjM=

>  <s_epik_cmdline>  (256) 
J2VwaWtfcHl0aG9uJywgJy1waHQnLCAnMi4wJywgJy1waCcsICc3LjAnLCAnLXRuJywgJzgnLCAnLW1hJywgJzIwMCcsICctaW1hZScsICc8aW5maWxlLm1hZT4nLCAnLW9tYWUnLCAnPG91dGZpbGUubWFlPic=

>  <r_lp_tautomer_probability>  (256) 
1

>  <r_epik_Ionization_Penalty>  (256) 
0.00808899

>  <r_epik_Ionization_Penalty_Charging>  (256) 
0

>  <r_epik_Ionization_Penalty_Neutral>  (256) 
0.00808899

>  <r_epik_State_Penalty>  (256) 
0.00606811

>  <r_epik_Charging_Adjusted_Penalty>  (256) 
0.00606811

>  <i_epik_Tot_Q>  (256) 
0

>  <i_epik_Tot_abs_Q>  (256) 
0

>  <s_lp_Force_Field>  (256) 
OPLS3e

>  <r_lp_Energy>  (256) 
30.1067

>  <b_lp_Chiralities_Consistent>  (256) 
1

>  <s_lp_Variant>  (256) 
73:0-1

>  <s_i_glide_gridfile>  (256) 
pfpi4k_grid

>  <i_i_glide_lignum>  (256) 
13

>  <i_i_glide_rotatable_bonds>  (256) 
4

>  <r_i_docking_score>  (256) 
-3.62005

>  <r_i_glide_ligand_efficiency>  (256) 
-0.157393

>  <r_i_glide_ligand_efficiency_sa>  (256) 
-0.447606

>  <r_i_glide_ligand_efficiency_ln>  (256) 
-0.875361

>  <r_i_glide_gscore>  (256) 
-3.62005

>  <r_i_glide_lipo>  (256) 
-0.283482

>  <r_i_glide_hbond>  (256) 
-0.434438

>  <r_i_glide_metal>  (256) 
-0

>  <r_i_glide_rewards>  (256) 
-1.30629

>  <r_i_glide_evdw>  (256) 
-23.5836

>  <r_i_glide_ecoul>  (256) 
-6.10531

>  <r_i_glide_erotb>  (256) 
0.577128

>  <r_i_glide_esite>  (256) 
-0.0779839

>  <r_i_glide_emodel>  (256) 
-36.9587

>  <r_i_glide_energy>  (256) 
-29.6889

>  <r_i_glide_einternal>  (256) 
1.66023

>  <r_i_glide_intrahb_reward>  (256) 
-0

>  <i_i_glide_confnum>  (256) 
3

>  <i_i_glide_posenum>  (256) 
27

>  <r_i_glide_eff_state_penalty>  (256) 
0

>  <ligand_id>  (256) 
73

>  <original_smiles>  (256) 
Cc1nn(C)c(C)c1C(C)NC(=O)c1ccc2nccnc2n1

>  <smiles>  (256) 
[H]c1nc2nc(C(=O)N([H])C([H])(c3c(C([H])([H])[H])nn(C([H])([H])[H])c3C([H])([H])[H])C([H])([H])[H])c([H])c([H])c2nc1[H]

$$$$
73:0:1
     RDKit          3D

 41 43  0  0  1  0  0  0  0  0999 V2000
   -1.7467   -8.6453    2.7094 C   0  0  0  0  0  0  0  0  0  0  0  0
   -0.7610   -7.7866    3.4459 C   0  0  0  0  0  0  0  0  0  0  0  0
   -1.2048   -7.0459    4.4491 N   0  0  0  0  0  0  0  0  0  0  0  0
   -0.1176   -6.3900    4.9006 N   0  0  0  0  0  0  0  0  0  0  0  0
   -0.2582   -5.4745    6.0161 C   0  0  0  0  0  0  0  0  0  0  0  0
    1.0158   -6.6971    4.1726 C   0  0  0  0  0  0  0  0  0  0  0  0
    2.3397   -6.0614    4.4913 C   0  0  0  0  0  0  0  0  0  0  0  0
    0.6355   -7.5957    3.2049 C   0  0  0  0  0  0  0  0  0  0  0  0
    1.4714   -8.2200    2.1063 C   0  0  2  0  0  0  0  0  0  0  0  0
    2.1733   -9.4874    2.6152 C   0  0  0  0  0  0  0  0  0  0  0  0
    2.4520   -7.2763    1.5799 N   0  0  0  0  0  0  0  0  0  0  0  0
    2.1441   -6.1738    0.8842 C   0  0  0  0  0  0  0  0  0  0  0  0
    1.0125   -5.9242    0.4568 O   0  0  0  0  0  0  0  0  0  0  0  0
    3.2622   -5.1817    0.7433 C   0  0  0  0  0  0  0  0  0  0  0  0
    4.5753   -5.6077    0.4686 C   0  0  0  0  0  0  0  0  0  0  0  0
    5.5671   -4.6203    0.3213 C   0  0  0  0  0  0  0  0  0  0  0  0
    5.2436   -3.2516    0.4574 C   0  0  0  0  0  0  0  0  0  0  0  0
    6.2073   -2.3094    0.3045 N   0  0  0  0  0  0  0  0  0  0  0  0
    5.8525   -1.0202    0.4617 C   0  0  0  0  0  0  0  0  0  0  0  0
    4.5277   -0.6623    0.7573 C   0  0  0  0  0  0  0  0  0  0  0  0
    3.5639   -1.5969    0.9064 N   0  0  0  0  0  0  0  0  0  0  0  0
    3.8864   -2.9059    0.7547 C   0  0  0  0  0  0  0  0  0  0  0  0
    2.9480   -3.8735    0.8845 N   0  0  0  0  0  0  0  0  0  0  0  0
   -1.2742   -9.2458    1.9293 H   0  0  0  0  0  0  0  0  0  0  0  0
   -2.5141   -8.0318    2.2373 H   0  0  0  0  0  0  0  0  0  0  0  0
   -2.2518   -9.3311    3.3898 H   0  0  0  0  0  0  0  0  0  0  0  0
    0.6947   -5.3513    6.5323 H   0  0  0  0  0  0  0  0  0  0  0  0
   -0.9875   -5.8588    6.7264 H   0  0  0  0  0  0  0  0  0  0  0  0
   -0.5828   -4.5007    5.6534 H   0  0  0  0  0  0  0  0  0  0  0  0
    3.1281   -6.3396    3.7984 H   0  0  0  0  0  0  0  0  0  0  0  0
    2.6826   -6.3633    5.4784 H   0  0  0  0  0  0  0  0  0  0  0  0
    2.2503   -4.9767    4.4588 H   0  0  0  0  0  0  0  0  0  0  0  0
    0.8324   -8.5045    1.2801 H   0  0  0  0  0  0  0  0  0  0  0  0
    1.4425  -10.2230    2.9591 H   0  0  0  0  0  0  0  0  0  0  0  0
    2.8347   -9.2714    3.4570 H   0  0  0  0  0  0  0  0  0  0  0  0
    2.7616   -9.9645    1.8304 H   0  0  0  0  0  0  0  0  0  0  0  0
    3.3993   -7.3699    1.9113 H   0  0  0  0  0  0  0  0  0  0  0  0
    4.8238   -6.6570    0.3405 H   0  0  0  0  0  0  0  0  0  0  0  0
    6.5793   -4.9066    0.0872 H   0  0  0  0  0  0  0  0  0  0  0  0
    6.6276   -0.2755    0.3452 H   0  0  0  0  0  0  0  0  0  0  0  0
    4.2446    0.3770    0.8661 H   0  0  0  0  0  0  0  0  0  0  0  0
  1  2  1  0
  1 24  1  0
  1 25  1  0
  1 26  1  0
  2  8  1  0
  2  3  2  0
  3  4  1  0
  4  5  1  0
  4  6  1  0
  5 27  1  0
  5 28  1  0
  5 29  1  0
  6  7  1  0
  6  8  2  0
  7 30  1  0
  7 31  1  0
  7 32  1  0
  8  9  1  0
  9 10  1  0
  9 11  1  0
  9 33  1  6
 10 34  1  0
 10 35  1  0
 10 36  1  0
 11 12  1  0
 11 37  1  0
 12 13  2  0
 12 14  1  0
 14 23  1  0
 14 15  2  0
 15 16  1  0
 15 38  1  0
 16 17  2  0
 16 39  1  0
 17 22  1  0
 17 18  1  0
 18 19  2  0
 19 20  1  0
 19 40  1  0
 20 21  2  0
 20 41  1  0
 21 22  1  0
 22 23  2  0
M  END
>  <i_m_ct_stereo_status>  (257) 
1

>  <s_m_source_file>  (257) 
/var/tmp/pbs.5076255.sched01/tmpoq50wh_d/842pmd5wfz.sdf

>  <i_m_source_file_index>  (257) 
13

>  <i_lp_mmshare_version>  (257) 
48012

>  <i_f3d_flags>  (257) 
0

>  <s_epik_input>  (257) 
W0NIM11jMW5uKFtDSDNdKWMoW0NIM10pYzFbQ0BIXShbQ0gzXSlbTkhdQyg9TyljKFtjSF1bY0hdMiluYyhjMjMpbltjSF1bY0hdbjM=

>  <s_epik_cmdline>  (257) 
J2VwaWtfcHl0aG9uJywgJy1waHQnLCAnMi4wJywgJy1waCcsICc3LjAnLCAnLXRuJywgJzgnLCAnLW1hJywgJzIwMCcsICctaW1hZScsICc8aW5maWxlLm1hZT4nLCAnLW9tYWUnLCAnPG91dGZpbGUubWFlPic=

>  <r_lp_tautomer_probability>  (257) 
1

>  <r_epik_Ionization_Penalty>  (257) 
0.00808899

>  <r_epik_Ionization_Penalty_Charging>  (257) 
0

>  <r_epik_Ionization_Penalty_Neutral>  (257) 
0.00808899

>  <r_epik_State_Penalty>  (257) 
0.00606811

>  <r_epik_Charging_Adjusted_Penalty>  (257) 
0.00606811

>  <i_epik_Tot_Q>  (257) 
0

>  <i_epik_Tot_abs_Q>  (257) 
0

>  <s_lp_Force_Field>  (257) 
OPLS3e

>  <r_lp_Energy>  (257) 
30.1067

>  <b_lp_Chiralities_Consistent>  (257) 
1

>  <s_lp_Variant>  (257) 
73:0-1

>  <s_i_glide_gridfile>  (257) 
pfpi4k_grid

>  <i_i_glide_lignum>  (257) 
13

>  <i_i_glide_rotatable_bonds>  (257) 
4

>  <r_i_docking_score>  (257) 
-3.61101

>  <r_i_glide_ligand_efficiency>  (257) 
-0.157001

>  <r_i_glide_ligand_efficiency_sa>  (257) 
-0.446489

>  <r_i_glide_ligand_efficiency_ln>  (257) 
-0.873175

>  <r_i_glide_gscore>  (257) 
-3.61101

>  <r_i_glide_lipo>  (257) 
-0.531414

>  <r_i_glide_hbond>  (257) 
-0.16

>  <r_i_glide_metal>  (257) 
-0

>  <r_i_glide_rewards>  (257) 
-1.29304

>  <r_i_glide_evdw>  (257) 
-27.2104

>  <r_i_glide_ecoul>  (257) 
-5.19183

>  <r_i_glide_erotb>  (257) 
0.577128

>  <r_i_glide_esite>  (257) 
-0.0643865

>  <r_i_glide_emodel>  (257) 
-40.097

>  <r_i_glide_energy>  (257) 
-32.4023

>  <r_i_glide_einternal>  (257) 
0.640326

>  <r_i_glide_intrahb_reward>  (257) 
-0

>  <i_i_glide_confnum>  (257) 
3

>  <i_i_glide_posenum>  (257) 
1

>  <r_i_glide_eff_state_penalty>  (257) 
0

>  <ligand_id>  (257) 
73

>  <original_smiles>  (257) 
Cc1nn(C)c(C)c1C(C)NC(=O)c1ccc2nccnc2n1

>  <smiles>  (257) 
[H]c1nc2nc(C(=O)N([H])C([H])(c3c(C([H])([H])[H])nn(C([H])([H])[H])c3C([H])([H])[H])C([H])([H])[H])c([H])c([H])c2nc1[H]

$$$$
73:0:2
     RDKit          3D

 41 43  0  0  1  0  0  0  0  0999 V2000
   -1.2194   -8.5974    2.6076 C   0  0  0  0  0  0  0  0  0  0  0  0
   -0.3451   -7.6410    3.3639 C   0  0  0  0  0  0  0  0  0  0  0  0
   -0.8739   -6.9742    4.3761 N   0  0  0  0  0  0  0  0  0  0  0  0
    0.1305   -6.2099    4.8469 N   0  0  0  0  0  0  0  0  0  0  0  0
   -0.1252   -5.3495    5.9828 C   0  0  0  0  0  0  0  0  0  0  0  0
    1.2925   -6.3680    4.1141 C   0  0  0  0  0  0  0  0  0  0  0  0
    2.5353   -5.5941    4.4446 C   0  0  0  0  0  0  0  0  0  0  0  0
    1.0205   -7.2881    3.1324 C   0  0  0  0  0  0  0  0  0  0  0  0
    1.9257   -7.7929    2.0293 C   0  0  2  0  0  0  0  0  0  0  0  0
    2.9029   -8.8485    2.5642 C   0  0  0  0  0  0  0  0  0  0  0  0
    2.6624   -6.6916    1.4268 N   0  0  0  0  0  0  0  0  0  0  0  0
    2.1511   -5.8051    0.5618 C   0  0  0  0  0  0  0  0  0  0  0  0
    1.0177   -5.9027    0.0832 O   0  0  0  0  0  0  0  0  0  0  0  0
    3.0473   -4.6487    0.2082 C   0  0  0  0  0  0  0  0  0  0  0  0
    4.2382   -4.3925    0.9208 C   0  0  0  0  0  0  0  0  0  0  0  0
    5.0224   -3.2964    0.5175 C   0  0  0  0  0  0  0  0  0  0  0  0
    4.6272   -2.5028   -0.5777 C   0  0  0  0  0  0  0  0  0  0  0  0
    5.4055   -1.4651   -0.9717 N   0  0  0  0  0  0  0  0  0  0  0  0
    4.9733   -0.7374   -2.0145 C   0  0  0  0  0  0  0  0  0  0  0  0
    3.7937   -1.0568   -2.6992 C   0  0  0  0  0  0  0  0  0  0  0  0
    3.0305   -2.1065   -2.3282 N   0  0  0  0  0  0  0  0  0  0  0  0
    3.4077   -2.8319   -1.2478 C   0  0  0  0  0  0  0  0  0  0  0  0
    2.6488   -3.8541   -0.8110 N   0  0  0  0  0  0  0  0  0  0  0  0
   -0.6749   -9.1200    1.8217 H   0  0  0  0  0  0  0  0  0  0  0  0
   -2.0474   -8.0684    2.1362 H   0  0  0  0  0  0  0  0  0  0  0  0
   -1.6425   -9.3508    3.2737 H   0  0  0  0  0  0  0  0  0  0  0  0
    0.8034   -5.1161    6.5063 H   0  0  0  0  0  0  0  0  0  0  0  0
   -0.7975   -5.8518    6.6767 H   0  0  0  0  0  0  0  0  0  0  0  0
   -0.5853   -4.4226    5.6433 H   0  0  0  0  0  0  0  0  0  0  0  0
    3.3377   -5.7733    3.7341 H   0  0  0  0  0  0  0  0  0  0  0  0
    2.9125   -5.8735    5.4256 H   0  0  0  0  0  0  0  0  0  0  0  0
    2.3244   -4.5266    4.4442 H   0  0  0  0  0  0  0  0  0  0  0  0
    1.3384   -8.2646    1.2432 H   0  0  0  0  0  0  0  0  0  0  0  0
    2.3607   -9.7009    2.9775 H   0  0  0  0  0  0  0  0  0  0  0  0
    3.5381   -8.4506    3.3586 H   0  0  0  0  0  0  0  0  0  0  0  0
    3.5486   -9.2348    1.7734 H   0  0  0  0  0  0  0  0  0  0  0  0
    3.5958   -6.5218    1.7648 H   0  0  0  0  0  0  0  0  0  0  0  0
    4.5743   -4.9811    1.7658 H   0  0  0  0  0  0  0  0  0  0  0  0
    5.9343   -3.0702    1.0474 H   0  0  0  0  0  0  0  0  0  0  0  0
    5.5755    0.1067   -2.3184 H   0  0  0  0  0  0  0  0  0  0  0  0
    3.4627   -0.4493   -3.5313 H   0  0  0  0  0  0  0  0  0  0  0  0
  1  2  1  0
  1 24  1  0
  1 25  1  0
  1 26  1  0
  2  8  1  0
  2  3  2  0
  3  4  1  0
  4  5  1  0
  4  6  1  0
  5 27  1  0
  5 28  1  0
  5 29  1  0
  6  7  1  0
  6  8  2  0
  7 30  1  0
  7 31  1  0
  7 32  1  0
  8  9  1  0
  9 10  1  0
  9 11  1  0
  9 33  1  6
 10 34  1  0
 10 35  1  0
 10 36  1  0
 11 12  1  0
 11 37  1  0
 12 13  2  0
 12 14  1  0
 14 23  1  0
 14 15  2  0
 15 16  1  0
 15 38  1  0
 16 17  2  0
 16 39  1  0
 17 22  1  0
 17 18  1  0
 18 19  2  0
 19 20  1  0
 19 40  1  0
 20 21  2  0
 20 41  1  0
 21 22  1  0
 22 23  2  0
M  END
>  <i_m_ct_stereo_status>  (258) 
1

>  <s_m_source_file>  (258) 
/var/tmp/pbs.5076255.sched01/tmpoq50wh_d/842pmd5wfz.sdf

>  <i_m_source_file_index>  (258) 
13

>  <i_lp_mmshare_version>  (258) 
48012

>  <i_f3d_flags>  (258) 
0

>  <s_epik_input>  (258) 
W0NIM11jMW5uKFtDSDNdKWMoW0NIM10pYzFbQ0BIXShbQ0gzXSlbTkhdQyg9TyljKFtjSF1bY0hdMiluYyhjMjMpbltjSF1bY0hdbjM=

>  <s_epik_cmdline>  (258) 
J2VwaWtfcHl0aG9uJywgJy1waHQnLCAnMi4wJywgJy1waCcsICc3LjAnLCAnLXRuJywgJzgnLCAnLW1hJywgJzIwMCcsICctaW1hZScsICc8aW5maWxlLm1hZT4nLCAnLW9tYWUnLCAnPG91dGZpbGUubWFlPic=

>  <r_lp_tautomer_probability>  (258) 
1

>  <r_epik_Ionization_Penalty>  (258) 
0.00808899

>  <r_epik_Ionization_Penalty_Charging>  (258) 
0

>  <r_epik_Ionization_Penalty_Neutral>  (258) 
0.00808899

>  <r_epik_State_Penalty>  (258) 
0.00606811

>  <r_epik_Charging_Adjusted_Penalty>  (258) 
0.00606811

>  <i_epik_Tot_Q>  (258) 
0

>  <i_epik_Tot_abs_Q>  (258) 
0

>  <s_lp_Force_Field>  (258) 
OPLS3e

>  <r_lp_Energy>  (258) 
30.1067

>  <b_lp_Chiralities_Consistent>  (258) 
1

>  <s_lp_Variant>  (258) 
73:0-1

>  <s_i_glide_gridfile>  (258) 
pfpi4k_grid

>  <i_i_glide_lignum>  (258) 
13

>  <i_i_glide_rotatable_bonds>  (258) 
4

>  <r_i_docking_score>  (258) 
-3.20974

>  <r_i_glide_ligand_efficiency>  (258) 
-0.139554

>  <r_i_glide_ligand_efficiency_sa>  (258) 
-0.396872

>  <r_i_glide_ligand_efficiency_ln>  (258) 
-0.776143

>  <r_i_glide_gscore>  (258) 
-3.20974

>  <r_i_glide_lipo>  (258) 
-0.0631256

>  <r_i_glide_hbond>  (258) 
-0.383907

>  <r_i_glide_metal>  (258) 
-0

>  <r_i_glide_rewards>  (258) 
-1.29304

>  <r_i_glide_evdw>  (258) 
-26.7133

>  <r_i_glide_ecoul>  (258) 
-4.16433

>  <r_i_glide_erotb>  (258) 
0.577128

>  <r_i_glide_esite>  (258) 
-0.086475

>  <r_i_glide_emodel>  (258) 
-37.828

>  <r_i_glide_energy>  (258) 
-30.8776

>  <r_i_glide_einternal>  (258) 
0.308108

>  <r_i_glide_intrahb_reward>  (258) 
-0

>  <i_i_glide_confnum>  (258) 
3

>  <i_i_glide_posenum>  (258) 
11

>  <r_i_glide_eff_state_penalty>  (258) 
0

>  <ligand_id>  (258) 
73

>  <original_smiles>  (258) 
Cc1nn(C)c(C)c1C(C)NC(=O)c1ccc2nccnc2n1

>  <smiles>  (258) 
[H]c1nc2nc(C(=O)N([H])C([H])(c3c(C([H])([H])[H])nn(C([H])([H])[H])c3C([H])([H])[H])C([H])([H])[H])c([H])c([H])c2nc1[H]

$$$$
73:1:0
     RDKit          3D

 42 44  0  0  1  0  0  0  0  0999 V2000
    1.8554  -11.3731    4.3497 C   0  0  0  0  0  0  0  0  0  0  0  0
    1.1834  -10.2347    3.6590 C   0  0  0  0  0  0  0  0  0  0  0  0
   -0.1897  -10.0827    3.7553 N   0  0  0  0  0  0  0  0  0  0  0  0
   -0.5866   -9.0438    3.0536 N   0  0  0  0  0  0  0  0  0  0  0  0
   -2.0139   -8.6934    2.9906 C   0  0  0  0  0  0  0  0  0  0  0  0
    0.4614   -8.4336    2.4553 C   0  0  0  0  0  0  0  0  0  0  0  0
    0.1945   -7.2571    1.5880 C   0  0  0  0  0  0  0  0  0  0  0  0
    1.6260   -9.1554    2.8352 C   0  0  0  0  0  0  0  0  0  0  0  0
    3.1122   -8.9081    2.4530 C   0  0  2  0  0  0  0  0  0  0  0  0
    4.0237   -8.8199    3.7302 C   0  0  0  0  0  0  0  0  0  0  0  0
    3.3297   -7.7340    1.5757 N   0  0  0  0  0  0  0  0  0  0  0  0
    4.4342   -7.0064    1.2882 C   0  0  0  0  0  0  0  0  0  0  0  0
    5.5793   -7.3380    1.6000 O   0  0  0  0  0  0  0  0  0  0  0  0
    4.2146   -5.6993    0.5672 C   0  0  0  0  0  0  0  0  0  0  0  0
    2.9562   -5.0261    0.5101 C   0  0  0  0  0  0  0  0  0  0  0  0
    2.8696   -3.8395   -0.2350 C   0  0  0  0  0  0  0  0  0  0  0  0
    4.0211   -3.2719   -0.8032 C   0  0  0  0  0  0  0  0  0  0  0  0
    3.9315   -2.1085   -1.4609 N   0  0  0  0  0  0  0  0  0  0  0  0
    5.0710   -1.5950   -1.9565 C   0  0  0  0  0  0  0  0  0  0  0  0
    6.2967   -2.2635   -1.7877 C   0  0  0  0  0  0  0  0  0  0  0  0
    6.4008   -3.4232   -1.1178 N   0  0  0  0  0  0  0  0  0  0  0  0
    5.2640   -3.9624   -0.6225 C   0  0  0  0  0  0  0  0  0  0  0  0
    5.3078   -5.1313    0.0238 N   0  0  0  0  0  0  0  0  0  0  0  0
    2.9371  -11.4001    4.2320 H   0  0  0  0  0  0  0  0  0  0  0  0
    1.4935  -12.3027    3.9199 H   0  0  0  0  0  0  0  0  0  0  0  0
    1.6103  -11.3598    5.4168 H   0  0  0  0  0  0  0  0  0  0  0  0
   -2.1239   -7.6119    3.0869 H   0  0  0  0  0  0  0  0  0  0  0  0
   -2.5643   -9.1752    3.8047 H   0  0  0  0  0  0  0  0  0  0  0  0
   -2.4083   -9.0096    2.0207 H   0  0  0  0  0  0  0  0  0  0  0  0
    1.0989   -7.0052    1.0497 H   0  0  0  0  0  0  0  0  0  0  0  0
   -0.1593   -6.4051    2.1882 H   0  0  0  0  0  0  0  0  0  0  0  0
   -0.5301   -7.5020    0.8081 H   0  0  0  0  0  0  0  0  0  0  0  0
    3.4138   -9.7751    1.8529 H   0  0  0  0  0  0  0  0  0  0  0  0
    4.0454   -9.7194    4.3520 H   0  0  0  0  0  0  0  0  0  0  0  0
    3.7171   -7.9822    4.3645 H   0  0  0  0  0  0  0  0  0  0  0  0
    5.0815   -8.7157    3.4809 H   0  0  0  0  0  0  0  0  0  0  0  0
    2.4811   -7.3799    1.1404 H   0  0  0  0  0  0  0  0  0  0  0  0
    2.0424   -5.3012    1.0227 H   0  0  0  0  0  0  0  0  0  0  0  0
    1.9272   -3.3260   -0.3506 H   0  0  0  0  0  0  0  0  0  0  0  0
    4.9881   -0.6523   -2.4897 H   0  0  0  0  0  0  0  0  0  0  0  0
    7.2179   -1.8803   -2.1965 H   0  0  0  0  0  0  0  0  0  0  0  0
   -0.8579  -10.6396    4.3149 H   0  0  0  0  0  0  0  0  0  0  0  0
  1  2  1  0
  1 24  1  0
  1 25  1  0
  1 26  1  0
  2  8  1  0
  2  3  2  0
  3  4  1  0
  3 42  1  0
  4  5  1  0
  4  6  1  0
  5 27  1  0
  5 28  1  0
  5 29  1  0
  6  7  1  0
  6  8  2  0
  7 30  1  0
  7 31  1  0
  7 32  1  0
  8  9  1  0
  9 10  1  0
  9 11  1  0
  9 33  1  6
 10 34  1  0
 10 35  1  0
 10 36  1  0
 11 12  1  0
 11 37  1  0
 12 13  2  0
 12 14  1  0
 14 23  1  0
 14 15  2  0
 15 16  1  0
 15 38  1  0
 16 17  2  0
 16 39  1  0
 17 22  1  0
 17 18  1  0
 18 19  2  0
 19 20  1  0
 19 40  1  0
 20 21  2  0
 20 41  1  0
 21 22  1  0
 22 23  2  0
M  CHG  1   3   1
M  END
>  <i_m_ct_stereo_status>  (259) 
1

>  <s_m_source_file>  (259) 
/var/tmp/pbs.5076255.sched01/tmpoq50wh_d/842pmd5wfz.sdf

>  <i_m_source_file_index>  (259) 
14

>  <i_lp_mmshare_version>  (259) 
48012

>  <i_f3d_flags>  (259) 
0

>  <s_epik_input>  (259) 
W0NIM11jMW5uKFtDSDNdKWMoW0NIM10pYzFbQ0BIXShbQ0gzXSlbTkhdQyg9TyljKFtjSF1bY0hdMiluYyhjMjMpbltjSF1bY0hdbjM=

>  <s_epik_cmdline>  (259) 
J2VwaWtfcHl0aG9uJywgJy1waHQnLCAnMi4wJywgJy1waCcsICc3LjAnLCAnLXRuJywgJzgnLCAnLW1hJywgJzIwMCcsICctaW1hZScsICc8aW5maWxlLm1hZT4nLCAnLW9tYWUnLCAnPG91dGZpbGUubWFlPic=

>  <r_lp_tautomer_probability>  (259) 
1

>  <r_epik_Ionization_Penalty>  (259) 
2.54898

>  <r_epik_Ionization_Penalty_Charging>  (259) 
2.54894

>  <r_epik_Ionization_Penalty_Neutral>  (259) 
4.22986e-05

>  <r_epik_State_Penalty>  (259) 
2.71737

>  <r_epik_Charging_Adjusted_Penalty>  (259) 
5.26632

>  <i_epik_Tot_Q>  (259) 
1

>  <i_epik_Tot_abs_Q>  (259) 
1

>  <s_lp_Force_Field>  (259) 
OPLS3e

>  <r_lp_Energy>  (259) 
34.0635

>  <b_lp_Chiralities_Consistent>  (259) 
1

>  <s_lp_Variant>  (259) 
73:0-2

>  <s_i_glide_gridfile>  (259) 
pfpi4k_grid

>  <i_i_glide_lignum>  (259) 
14

>  <i_i_glide_rotatable_bonds>  (259) 
4

>  <r_i_docking_score>  (259) 
-3.51025

>  <r_i_glide_ligand_efficiency>  (259) 
-0.15262

>  <r_i_glide_ligand_efficiency_sa>  (259) 
-0.43403

>  <r_i_glide_ligand_efficiency_ln>  (259) 
-0.848811

>  <r_i_glide_gscore>  (259) 
-3.51025

>  <r_i_glide_lipo>  (259) 
-0.164065

>  <r_i_glide_hbond>  (259) 
-0.2

>  <r_i_glide_metal>  (259) 
-0

>  <r_i_glide_rewards>  (259) 
-1.49028

>  <r_i_glide_evdw>  (259) 
-29.2476

>  <r_i_glide_ecoul>  (259) 
-4.4587

>  <r_i_glide_erotb>  (259) 
0.57385

>  <r_i_glide_esite>  (259) 
-0.0985689

>  <r_i_glide_emodel>  (259) 
-37.3344

>  <r_i_glide_energy>  (259) 
-33.7063

>  <r_i_glide_einternal>  (259) 
4.88739

>  <r_i_glide_intrahb_reward>  (259) 
-0

>  <i_i_glide_confnum>  (259) 
3

>  <i_i_glide_posenum>  (259) 
4

>  <r_i_glide_eff_state_penalty>  (259) 
0

>  <ligand_id>  (259) 
73

>  <original_smiles>  (259) 
Cc1nn(C)c(C)c1C(C)NC(=O)c1ccc2nccnc2n1

>  <smiles>  (259) 
[H]c1nc2nc(C(=O)N([H])C([H])(c3c(C([H])([H])[H])n(C([H])([H])[H])[n+]([H])c3C([H])([H])[H])C([H])([H])[H])c([H])c([H])c2nc1[H]

$$$$
73:1:1
     RDKit          3D

 42 44  0  0  1  0  0  0  0  0999 V2000
    3.7875   -0.0344    1.1730 C   0  0  0  0  0  0  0  0  0  0  0  0
    3.7534   -1.3501    0.4640 C   0  0  0  0  0  0  0  0  0  0  0  0
    3.4325   -1.4619   -0.8515 N   0  0  0  0  0  0  0  0  0  0  0  0
    3.4511   -2.7428   -1.2313 N   0  0  0  0  0  0  0  0  0  0  0  0
    3.1047   -3.0879   -2.6107 C   0  0  0  0  0  0  0  0  0  0  0  0
    3.7892   -3.5371   -0.1802 C   0  0  0  0  0  0  0  0  0  0  0  0
    3.8769   -5.0217   -0.2854 C   0  0  0  0  0  0  0  0  0  0  0  0
    3.9764   -2.6646    0.9035 C   0  0  0  0  0  0  0  0  0  0  0  0
    4.3241   -3.0719    2.3088 C   0  0  2  0  0  0  0  0  0  0  0  0
    5.7572   -3.6184    2.4043 C   0  0  0  0  0  0  0  0  0  0  0  0
    3.3519   -4.0420    2.8228 N   0  0  0  0  0  0  0  0  0  0  0  0
    2.4327   -3.8096    3.7754 C   0  0  0  0  0  0  0  0  0  0  0  0
    2.3878   -2.7823    4.4511 O   0  0  0  0  0  0  0  0  0  0  0  0
    1.4573   -4.9319    4.0054 C   0  0  0  0  0  0  0  0  0  0  0  0
    0.8998   -5.1398    5.2817 C   0  0  0  0  0  0  0  0  0  0  0  0
   -0.0506   -6.1591    5.4351 C   0  0  0  0  0  0  0  0  0  0  0  0
   -0.4380   -6.9328    4.3230 C   0  0  0  0  0  0  0  0  0  0  0  0
   -1.3786   -7.8974    4.4640 N   0  0  0  0  0  0  0  0  0  0  0  0
   -1.7026   -8.6189    3.3740 C   0  0  0  0  0  0  0  0  0  0  0  0
   -1.1132   -8.3500    2.1307 C   0  0  0  0  0  0  0  0  0  0  0  0
   -0.2030   -7.3681    1.9709 N   0  0  0  0  0  0  0  0  0  0  0  0
    0.1803   -6.6592    3.0615 C   0  0  0  0  0  0  0  0  0  0  0  0
    1.0972   -5.6757    2.9339 N   0  0  0  0  0  0  0  0  0  0  0  0
    4.1683   -0.1243    2.1856 H   0  0  0  0  0  0  0  0  0  0  0  0
    2.7874    0.3948    1.2150 H   0  0  0  0  0  0  0  0  0  0  0  0
    4.4264    0.6563    0.6279 H   0  0  0  0  0  0  0  0  0  0  0  0
    3.8036   -3.8469   -2.9724 H   0  0  0  0  0  0  0  0  0  0  0  0
    3.1671   -2.2053   -3.2471 H   0  0  0  0  0  0  0  0  0  0  0  0
    2.0907   -3.4943   -2.6372 H   0  0  0  0  0  0  0  0  0  0  0  0
    4.1588   -5.4926    0.6510 H   0  0  0  0  0  0  0  0  0  0  0  0
    4.6101   -5.2894   -1.0436 H   0  0  0  0  0  0  0  0  0  0  0  0
    2.9041   -5.4068   -0.5740 H   0  0  0  0  0  0  0  0  0  0  0  0
    4.3106   -2.1939    2.9502 H   0  0  0  0  0  0  0  0  0  0  0  0
    6.4825   -2.8650    2.0857 H   0  0  0  0  0  0  0  0  0  0  0  0
    5.9251   -4.5017    1.7878 H   0  0  0  0  0  0  0  0  0  0  0  0
    5.9923   -3.8960    3.4331 H   0  0  0  0  0  0  0  0  0  0  0  0
    3.3124   -4.9524    2.3848 H   0  0  0  0  0  0  0  0  0  0  0  0
    1.1847   -4.5287    6.1281 H   0  0  0  0  0  0  0  0  0  0  0  0
   -0.5041   -6.3421    6.3967 H   0  0  0  0  0  0  0  0  0  0  0  0
   -2.4336   -9.4056    3.4886 H   0  0  0  0  0  0  0  0  0  0  0  0
   -1.3851   -8.9293    1.2637 H   0  0  0  0  0  0  0  0  0  0  0  0
    3.1302   -0.7349   -1.4881 H   0  0  0  0  0  0  0  0  0  0  0  0
  1  2  1  0
  1 24  1  0
  1 25  1  0
  1 26  1  0
  2  8  1  0
  2  3  2  0
  3  4  1  0
  3 42  1  0
  4  5  1  0
  4  6  1  0
  5 27  1  0
  5 28  1  0
  5 29  1  0
  6  7  1  0
  6  8  2  0
  7 30  1  0
  7 31  1  0
  7 32  1  0
  8  9  1  0
  9 10  1  0
  9 11  1  0
  9 33  1  1
 10 34  1  0
 10 35  1  0
 10 36  1  0
 11 12  1  0
 11 37  1  0
 12 13  2  0
 12 14  1  0
 14 23  1  0
 14 15  2  0
 15 16  1  0
 15 38  1  0
 16 17  2  0
 16 39  1  0
 17 22  1  0
 17 18  1  0
 18 19  2  0
 19 20  1  0
 19 40  1  0
 20 21  2  0
 20 41  1  0
 21 22  1  0
 22 23  2  0
M  CHG  1   3   1
M  END
>  <i_m_ct_stereo_status>  (260) 
1

>  <s_m_source_file>  (260) 
/var/tmp/pbs.5076255.sched01/tmpoq50wh_d/842pmd5wfz.sdf

>  <i_m_source_file_index>  (260) 
14

>  <i_lp_mmshare_version>  (260) 
48012

>  <i_f3d_flags>  (260) 
0

>  <s_epik_input>  (260) 
W0NIM11jMW5uKFtDSDNdKWMoW0NIM10pYzFbQ0BIXShbQ0gzXSlbTkhdQyg9TyljKFtjSF1bY0hdMiluYyhjMjMpbltjSF1bY0hdbjM=

>  <s_epik_cmdline>  (260) 
J2VwaWtfcHl0aG9uJywgJy1waHQnLCAnMi4wJywgJy1waCcsICc3LjAnLCAnLXRuJywgJzgnLCAnLW1hJywgJzIwMCcsICctaW1hZScsICc8aW5maWxlLm1hZT4nLCAnLW9tYWUnLCAnPG91dGZpbGUubWFlPic=

>  <r_lp_tautomer_probability>  (260) 
1

>  <r_epik_Ionization_Penalty>  (260) 
2.54898

>  <r_epik_Ionization_Penalty_Charging>  (260) 
2.54894

>  <r_epik_Ionization_Penalty_Neutral>  (260) 
4.22986e-05

>  <r_epik_State_Penalty>  (260) 
2.71737

>  <r_epik_Charging_Adjusted_Penalty>  (260) 
5.26632

>  <i_epik_Tot_Q>  (260) 
1

>  <i_epik_Tot_abs_Q>  (260) 
1

>  <s_lp_Force_Field>  (260) 
OPLS3e

>  <r_lp_Energy>  (260) 
34.0635

>  <b_lp_Chiralities_Consistent>  (260) 
1

>  <s_lp_Variant>  (260) 
73:0-2

>  <s_i_glide_gridfile>  (260) 
pfpi4k_grid

>  <i_i_glide_lignum>  (260) 
14

>  <i_i_glide_rotatable_bonds>  (260) 
4

>  <r_i_docking_score>  (260) 
-2.71684

>  <r_i_glide_ligand_efficiency>  (260) 
-0.118124

>  <r_i_glide_ligand_efficiency_sa>  (260) 
-0.335928

>  <r_i_glide_ligand_efficiency_ln>  (260) 
-0.656957

>  <r_i_glide_gscore>  (260) 
-2.71684

>  <r_i_glide_lipo>  (260) 
-0.0749878

>  <r_i_glide_hbond>  (260) 
0

>  <r_i_glide_metal>  (260) 
-0

>  <r_i_glide_rewards>  (260) 
-1.28746

>  <r_i_glide_evdw>  (260) 
-24.0023

>  <r_i_glide_ecoul>  (260) 
-3.54987

>  <r_i_glide_erotb>  (260) 
0.57385

>  <r_i_glide_esite>  (260) 
-0.195648

>  <r_i_glide_emodel>  (260) 
-33.2829

>  <r_i_glide_energy>  (260) 
-27.5522

>  <r_i_glide_einternal>  (260) 
2.04509

>  <r_i_glide_intrahb_reward>  (260) 
-0

>  <i_i_glide_confnum>  (260) 
3

>  <i_i_glide_posenum>  (260) 
1

>  <r_i_glide_eff_state_penalty>  (260) 
0

>  <ligand_id>  (260) 
73

>  <original_smiles>  (260) 
Cc1nn(C)c(C)c1C(C)NC(=O)c1ccc2nccnc2n1

>  <smiles>  (260) 
[H]c1nc2nc(C(=O)N([H])C([H])(c3c(C([H])([H])[H])n(C([H])([H])[H])[n+]([H])c3C([H])([H])[H])C([H])([H])[H])c([H])c([H])c2nc1[H]

$$$$
73:1:2
     RDKit          3D

 42 44  0  0  1  0  0  0  0  0999 V2000
    2.9095   -0.3302    1.2429 C   0  0  0  0  0  0  0  0  0  0  0  0
    3.4163   -1.5535    0.5427 C   0  0  0  0  0  0  0  0  0  0  0  0
    3.4651   -1.6534   -0.8113 N   0  0  0  0  0  0  0  0  0  0  0  0
    3.9482   -2.8483   -1.1734 N   0  0  0  0  0  0  0  0  0  0  0  0
    4.0663   -3.1816   -2.5940 C   0  0  0  0  0  0  0  0  0  0  0  0
    4.2375   -3.5933   -0.0750 C   0  0  0  0  0  0  0  0  0  0  0  0
    4.7870   -4.9820   -0.1731 C   0  0  0  0  0  0  0  0  0  0  0  0
    3.8907   -2.7851    1.0220 C   0  0  0  0  0  0  0  0  0  0  0  0
    3.9804   -3.1715    2.4772 C   0  0  2  0  0  0  0  0  0  0  0  0
    5.3889   -2.9168    3.0393 C   0  0  0  0  0  0  0  0  0  0  0  0
    3.5945   -4.5717    2.6815 N   0  0  0  0  0  0  0  0  0  0  0  0
    2.3737   -5.0200    3.0109 C   0  0  0  0  0  0  0  0  0  0  0  0
    1.4330   -4.2882    3.3162 O   0  0  0  0  0  0  0  0  0  0  0  0
    2.2299   -6.5184    3.0235 C   0  0  0  0  0  0  0  0  0  0  0  0
    2.7101   -7.2950    1.9514 C   0  0  0  0  0  0  0  0  0  0  0  0
    2.5147   -8.6848    2.0000 C   0  0  0  0  0  0  0  0  0  0  0  0
    1.8616   -9.2679    3.1028 C   0  0  0  0  0  0  0  0  0  0  0  0
    1.6882  -10.6131    3.1544 N   0  0  0  0  0  0  0  0  0  0  0  0
    1.0709  -11.1246    4.2353 C   0  0  0  0  0  0  0  0  0  0  0  0
    0.6216  -10.2913    5.2741 C   0  0  0  0  0  0  0  0  0  0  0  0
    0.7801   -8.9515    5.2257 N   0  0  0  0  0  0  0  0  0  0  0  0
    1.4017   -8.4069    4.1524 C   0  0  0  0  0  0  0  0  0  0  0  0
    1.5897   -7.0664    4.0762 N   0  0  0  0  0  0  0  0  0  0  0  0
    3.0367   -0.3996    2.3187 H   0  0  0  0  0  0  0  0  0  0  0  0
    1.8527   -0.1932    1.0282 H   0  0  0  0  0  0  0  0  0  0  0  0
    3.4367    0.5556    0.8915 H   0  0  0  0  0  0  0  0  0  0  0  0
    5.0164   -3.6962   -2.7609 H   0  0  0  0  0  0  0  0  0  0  0  0
    4.0344   -2.2720   -3.1936 H   0  0  0  0  0  0  0  0  0  0  0  0
    3.2458   -3.8463   -2.8773 H   0  0  0  0  0  0  0  0  0  0  0  0
    5.0017   -5.4242    0.7928 H   0  0  0  0  0  0  0  0  0  0  0  0
    5.7187   -4.9664   -0.7237 H   0  0  0  0  0  0  0  0  0  0  0  0
    4.0829   -5.6127   -0.7069 H   0  0  0  0  0  0  0  0  0  0  0  0
    3.3026   -2.5467    3.0578 H   0  0  0  0  0  0  0  0  0  0  0  0
    5.6557   -1.8596    2.9698 H   0  0  0  0  0  0  0  0  0  0  0  0
    6.1537   -3.4857    2.5049 H   0  0  0  0  0  0  0  0  0  0  0  0
    5.4472   -3.1825    4.0982 H   0  0  0  0  0  0  0  0  0  0  0  0
    4.3007   -5.2715    2.5049 H   0  0  0  0  0  0  0  0  0  0  0  0
    3.1829   -6.8538    1.0865 H   0  0  0  0  0  0  0  0  0  0  0  0
    2.8570   -9.3112    1.1920 H   0  0  0  0  0  0  0  0  0  0  0  0
    0.9356  -12.1986    4.2678 H   0  0  0  0  0  0  0  0  0  0  0  0
    0.1247  -10.7031    6.1410 H   0  0  0  0  0  0  0  0  0  0  0  0
    3.1289   -0.9856   -1.4954 H   0  0  0  0  0  0  0  0  0  0  0  0
  1  2  1  0
  1 24  1  0
  1 25  1  0
  1 26  1  0
  2  8  1  0
  2  3  2  0
  3  4  1  0
  3 42  1  0
  4  5  1  0
  4  6  1  0
  5 27  1  0
  5 28  1  0
  5 29  1  0
  6  7  1  0
  6  8  2  0
  7 30  1  0
  7 31  1  0
  7 32  1  0
  8  9  1  0
  9 10  1  0
  9 11  1  0
  9 33  1  1
 10 34  1  0
 10 35  1  0
 10 36  1  0
 11 12  1  0
 11 37  1  0
 12 13  2  0
 12 14  1  0
 14 23  1  0
 14 15  2  0
 15 16  1  0
 15 38  1  0
 16 17  2  0
 16 39  1  0
 17 22  1  0
 17 18  1  0
 18 19  2  0
 19 20  1  0
 19 40  1  0
 20 21  2  0
 20 41  1  0
 21 22  1  0
 22 23  2  0
M  CHG  1   3   1
M  END
>  <i_m_ct_stereo_status>  (261) 
1

>  <s_m_source_file>  (261) 
/var/tmp/pbs.5076255.sched01/tmpoq50wh_d/842pmd5wfz.sdf

>  <i_m_source_file_index>  (261) 
14

>  <i_lp_mmshare_version>  (261) 
48012

>  <i_f3d_flags>  (261) 
0

>  <s_epik_input>  (261) 
W0NIM11jMW5uKFtDSDNdKWMoW0NIM10pYzFbQ0BIXShbQ0gzXSlbTkhdQyg9TyljKFtjSF1bY0hdMiluYyhjMjMpbltjSF1bY0hdbjM=

>  <s_epik_cmdline>  (261) 
J2VwaWtfcHl0aG9uJywgJy1waHQnLCAnMi4wJywgJy1waCcsICc3LjAnLCAnLXRuJywgJzgnLCAnLW1hJywgJzIwMCcsICctaW1hZScsICc8aW5maWxlLm1hZT4nLCAnLW9tYWUnLCAnPG91dGZpbGUubWFlPic=

>  <r_lp_tautomer_probability>  (261) 
1

>  <r_epik_Ionization_Penalty>  (261) 
2.54898

>  <r_epik_Ionization_Penalty_Charging>  (261) 
2.54894

>  <r_epik_Ionization_Penalty_Neutral>  (261) 
4.22986e-05

>  <r_epik_State_Penalty>  (261) 
2.71737

>  <r_epik_Charging_Adjusted_Penalty>  (261) 
5.26632

>  <i_epik_Tot_Q>  (261) 
1

>  <i_epik_Tot_abs_Q>  (261) 
1

>  <s_lp_Force_Field>  (261) 
OPLS3e

>  <r_lp_Energy>  (261) 
34.0635

>  <b_lp_Chiralities_Consistent>  (261) 
1

>  <s_lp_Variant>  (261) 
73:0-2

>  <s_i_glide_gridfile>  (261) 
pfpi4k_grid

>  <i_i_glide_lignum>  (261) 
14

>  <i_i_glide_rotatable_bonds>  (261) 
4

>  <r_i_docking_score>  (261) 
-2.56087

>  <r_i_glide_ligand_efficiency>  (261) 
-0.111342

>  <r_i_glide_ligand_efficiency_sa>  (261) 
-0.316643

>  <r_i_glide_ligand_efficiency_ln>  (261) 
-0.619242

>  <r_i_glide_gscore>  (261) 
-2.56087

>  <r_i_glide_lipo>  (261) 
-0.168998

>  <r_i_glide_hbond>  (261) 
0

>  <r_i_glide_metal>  (261) 
-0

>  <r_i_glide_rewards>  (261) 
-1.28617

>  <r_i_glide_evdw>  (261) 
-23.5972

>  <r_i_glide_ecoul>  (261) 
-2.45309

>  <r_i_glide_erotb>  (261) 
0.57385

>  <r_i_glide_esite>  (261) 
-0.13173

>  <r_i_glide_emodel>  (261) 
-31.8732

>  <r_i_glide_energy>  (261) 
-26.0503

>  <r_i_glide_einternal>  (261) 
0.804781

>  <r_i_glide_intrahb_reward>  (261) 
-0

>  <i_i_glide_confnum>  (261) 
3

>  <i_i_glide_posenum>  (261) 
38

>  <r_i_glide_eff_state_penalty>  (261) 
0

>  <ligand_id>  (261) 
73

>  <original_smiles>  (261) 
Cc1nn(C)c(C)c1C(C)NC(=O)c1ccc2nccnc2n1

>  <smiles>  (261) 
[H]c1nc2nc(C(=O)N([H])C([H])(c3c(C([H])([H])[H])n(C([H])([H])[H])[n+]([H])c3C([H])([H])[H])C([H])([H])[H])c([H])c([H])c2nc1[H]

$$$$
74:0:0
     RDKit          3D

 64 68  0  0  1  0  0  0  0  0999 V2000
    5.0490   -5.1809    7.8961 C   0  0  0  0  0  0  0  0  0  0  0  0
    5.5319   -5.3939    6.4674 C   0  0  0  0  0  0  0  0  0  0  0  0
    6.7038   -5.1916    6.1471 O   0  0  0  0  0  0  0  0  0  0  0  0
    4.5450   -5.8201    5.6482 O   0  0  0  0  0  0  0  0  0  0  0  0
    4.8256   -6.1749    4.2932 C   0  0  2  0  0  0  0  0  0  0  0  0
    4.7263   -4.8695    3.4754 C   0  0  0  0  0  0  0  0  0  0  0  0
    5.0100   -5.0316    1.9520 C   0  0  2  0  0  0  0  0  0  0  0  0
    6.5380   -5.2262    1.7654 C   0  0  0  0  0  0  0  0  0  0  0  0
    4.5166   -3.7216    1.2509 C   0  0  1  0  0  0  0  0  0  0  0  0
    5.1763   -3.4150   -0.1053 C   0  0  0  0  0  0  0  0  0  0  0  0
    4.7698   -3.6840   -1.3484 C   0  0  0  0  0  0  0  0  0  0  0  0
    5.7071   -3.0832   -2.3534 C   0  0  0  0  0  0  0  0  0  0  0  0
    6.6414   -2.3964   -1.5349 O   0  0  0  0  0  0  0  0  0  0  0  0
    6.3627   -2.5505   -0.2227 C   0  0  0  0  0  0  0  0  0  0  0  0
    6.9979   -2.0398    0.6952 O   0  0  0  0  0  0  0  0  0  0  0  0
    2.9931   -3.8916    1.1534 C   0  0  0  0  0  0  0  0  0  0  0  0
    2.7757   -5.3962    1.1337 C   0  0  0  0  0  0  0  0  0  0  0  0
    1.6714   -5.8726    0.8786 O   0  0  0  0  0  0  0  0  0  0  0  0
    4.0976   -6.1736    1.3708 C   0  0  1  0  0  0  0  0  0  0  0  0
    4.5479   -6.5367    0.0805 O   0  0  0  0  0  0  0  0  0  0  0  0
    4.0592   -7.5265    2.2375 C   0  0  2  0  0  0  0  0  0  0  0  0
    5.3969   -8.3317    2.0578 C   0  0  0  0  0  0  0  0  0  0  0  0
    2.9144   -8.4650    1.7594 C   0  0  0  0  0  0  0  0  0  0  0  0
    2.7875   -9.7082    2.5942 C   0  0  0  0  0  0  0  0  0  0  0  0
    3.1394   -9.7672    3.8868 C   0  0  0  0  0  0  0  0  0  0  0  0
    3.1128  -11.0667    4.5386 C   0  0  0  0  0  0  0  0  0  0  0  0
    3.8091  -11.2860    5.6659 C   0  0  0  0  0  0  0  0  0  0  0  0
    4.6902  -10.2364    6.3171 C   0  0  0  0  0  0  0  0  0  0  0  0
    4.8956   -8.9770    5.4367 C   0  0  0  0  0  0  0  0  0  0  0  0
    3.6105   -8.5291    4.6745 C   0  0  2  0  0  0  0  0  0  0  0  0
    2.4946   -8.1924    5.7046 C   0  0  0  0  0  0  0  0  0  0  0  0
    3.8146   -7.2390    3.7614 C   0  0  1  0  0  0  0  0  0  0  0  0
    4.5949   -6.0923    8.2870 H   0  0  0  0  0  0  0  0  0  0  0  0
    4.3095   -4.3819    7.9297 H   0  0  0  0  0  0  0  0  0  0  0  0
    5.8786   -4.9089    8.5487 H   0  0  0  0  0  0  0  0  0  0  0  0
    5.8389   -6.5745    4.2342 H   0  0  0  0  0  0  0  0  0  0  0  0
    3.7258   -4.4682    3.6472 H   0  0  0  0  0  0  0  0  0  0  0  0
    5.4030   -4.1185    3.8845 H   0  0  0  0  0  0  0  0  0  0  0  0
    6.8122   -5.4837    0.7398 H   0  0  0  0  0  0  0  0  0  0  0  0
    6.9601   -5.9846    2.4171 H   0  0  0  0  0  0  0  0  0  0  0  0
    7.0663   -4.3100    2.0258 H   0  0  0  0  0  0  0  0  0  0  0  0
    4.7180   -2.8562    1.8843 H   0  0  0  0  0  0  0  0  0  0  0  0
    3.8896   -4.2374   -1.6370 H   0  0  0  0  0  0  0  0  0  0  0  0
    5.1914   -2.3960   -3.0237 H   0  0  0  0  0  0  0  0  0  0  0  0
    6.1960   -3.8550   -2.9488 H   0  0  0  0  0  0  0  0  0  0  0  0
    2.4960   -3.4719    2.0300 H   0  0  0  0  0  0  0  0  0  0  0  0
    2.5622   -3.4101    0.2775 H   0  0  0  0  0  0  0  0  0  0  0  0
    4.4889   -5.7782   -0.4822 H   0  0  0  0  0  0  0  0  0  0  0  0
    5.3329   -9.3535    2.4300 H   0  0  0  0  0  0  0  0  0  0  0  0
    6.2376   -7.9028    2.5897 H   0  0  0  0  0  0  0  0  0  0  0  0
    5.6952   -8.4461    1.0157 H   0  0  0  0  0  0  0  0  0  0  0  0
    1.9285   -8.0127    1.8050 H   0  0  0  0  0  0  0  0  0  0  0  0
    3.0957   -8.7856    0.7354 H   0  0  0  0  0  0  0  0  0  0  0  0
    2.4572  -10.5982    2.0797 H   0  0  0  0  0  0  0  0  0  0  0  0
    2.5074  -11.8626    4.1306 H   0  0  0  0  0  0  0  0  0  0  0  0
    3.7469  -12.2474    6.1590 H   0  0  0  0  0  0  0  0  0  0  0  0
    4.2300   -9.9652    7.2688 H   0  0  0  0  0  0  0  0  0  0  0  0
    5.6566  -10.6865    6.5483 H   0  0  0  0  0  0  0  0  0  0  0  0
    5.2960   -8.1924    6.0731 H   0  0  0  0  0  0  0  0  0  0  0  0
    5.6795   -9.1990    4.7147 H   0  0  0  0  0  0  0  0  0  0  0  0
    2.7840   -7.3966    6.3876 H   0  0  0  0  0  0  0  0  0  0  0  0
    2.2218   -9.0491    6.3205 H   0  0  0  0  0  0  0  0  0  0  0  0
    1.5784   -7.8781    5.2037 H   0  0  0  0  0  0  0  0  0  0  0  0
    2.8520   -6.7310    3.7711 H   0  0  0  0  0  0  0  0  0  0  0  0
  1  2  1  0
  1 33  1  0
  1 34  1  0
  1 35  1  0
  2  3  2  0
  2  4  1  0
  4  5  1  0
  5 32  1  0
  5  6  1  0
  5 36  1  1
  6  7  1  0
  6 37  1  0
  6 38  1  0
  7 19  1  0
  7  8  1  1
  7  9  1  0
  8 39  1  0
  8 40  1  0
  8 41  1  0
  9 16  1  0
  9 42  1  1
  9 10  1  0
 10 11  2  0
 10 14  1  0
 11 43  1  0
 11 12  1  0
 12 13  1  0
 12 44  1  0
 12 45  1  0
 13 14  1  0
 14 15  2  0
 16 17  1  0
 16 46  1  0
 16 47  1  0
 17 18  2  0
 17 19  1  0
 19 20  1  6
 19 21  1  0
 20 48  1  0
 21 32  1  0
 21 22  1  1
 21 23  1  0
 22 49  1  0
 22 50  1  0
 22 51  1  0
 23 24  1  0
 23 52  1  0
 23 53  1  0
 24 25  2  0
 24 54  1  0
 25 30  1  0
 25 26  1  0
 26 27  2  0
 26 55  1  0
 27 28  1  0
 27 56  1  0
 28 29  1  0
 28 57  1  0
 28 58  1  0
 29 30  1  0
 29 59  1  0
 29 60  1  0
 30 31  1  1
 30 32  1  0
 31 61  1  0
 31 62  1  0
 31 63  1  0
 32 64  1  6
M  END
>  <i_m_ct_stereo_status>  (262) 
1

>  <s_m_source_file>  (262) 
/var/tmp/pbs.5076255.sched01/tmpoq50wh_d/842pmd5wfz.sdf

>  <i_m_source_file_index>  (262) 
15

>  <i_lp_mmshare_version>  (262) 
48012

>  <i_f3d_flags>  (262) 
0

>  <s_epik_input>  (262) 
W0NIMl0xW0NIMl1bQ0hdPVtDSF1DKD1bQ0hdW0NIMl0yKVtDQF0xKFtDSDNdKVtDQEBIXShbQ0BASF0oW0NIMl0zKU9DKD1PKVtDSDNdKVtDQF0yKFtDSDNdKVtDQF0oW09IXSkoW0NAXTM0W0NIM10pQyg9TylbQ0gyXVtDQEBIXTRjNVtjSF1bY0hdb2M1W09IXQ==

>  <s_epik_cmdline>  (262) 
J2VwaWtfcHl0aG9uJywgJy1waHQnLCAnMi4wJywgJy1waCcsICc3LjAnLCAnLXRuJywgJzgnLCAnLW1hJywgJzIwMCcsICctaW1hZScsICc8aW5maWxlLm1hZT4nLCAnLW9tYWUnLCAnPG91dGZpbGUubWFlPic=

>  <r_lp_tautomer_probability>  (262) 
1

>  <r_epik_Ionization_Penalty>  (262) 
1.51914e-08

>  <r_epik_Ionization_Penalty_Charging>  (262) 
0

>  <r_epik_Ionization_Penalty_Neutral>  (262) 
1.51914e-08

>  <r_epik_State_Penalty>  (262) 
-0

>  <r_epik_Charging_Adjusted_Penalty>  (262) 
0

>  <i_epik_Tot_Q>  (262) 
0

>  <i_epik_Tot_abs_Q>  (262) 
0

>  <s_epik_Chemistry_Notes>  (262) 
This compound has an ester and may undergo hydrolysis at high or low pH.

>  <s_lp_Force_Field>  (262) 
OPLS3e

>  <r_lp_Energy>  (262) 
40.5227

>  <b_lp_Chiralities_Consistent>  (262) 
1

>  <s_lp_Variant>  (262) 
74:0-1

>  <s_i_glide_gridfile>  (262) 
pfpi4k_grid

>  <i_i_glide_lignum>  (262) 
15

>  <i_i_glide_rotatable_bonds>  (262) 
4

>  <r_i_docking_score>  (262) 
-3.20915

>  <r_i_glide_ligand_efficiency>  (262) 
-0.100286

>  <r_i_glide_ligand_efficiency_sa>  (262) 
-0.318388

>  <r_i_glide_ligand_efficiency_ln>  (262) 
-0.718617

>  <r_i_glide_gscore>  (262) 
-3.20915

>  <r_i_glide_lipo>  (262) 
-0.440457

>  <r_i_glide_hbond>  (262) 
-0.235728

>  <r_i_glide_metal>  (262) 
-0

>  <r_i_glide_rewards>  (262) 
-0.405486

>  <r_i_glide_evdw>  (262) 
-29.4174

>  <r_i_glide_ecoul>  (262) 
-5.60695

>  <r_i_glide_erotb>  (262) 
0.20578

>  <r_i_glide_esite>  (262) 
-0.0213503

>  <r_i_glide_emodel>  (262) 
-41.4919

>  <r_i_glide_energy>  (262) 
-35.0244

>  <r_i_glide_einternal>  (262) 
1.90992

>  <r_i_glide_intrahb_reward>  (262) 
-0

>  <i_i_glide_confnum>  (262) 
1

>  <i_i_glide_posenum>  (262) 
28

>  <r_i_glide_eff_state_penalty>  (262) 
0

>  <ligand_id>  (262) 
74

>  <original_smiles>  (262) 
CC(=O)OC1CC2(C)C(c3ccoc3O)CC(=O)C2(O)C2(C)CC=C3C=CCCC3(C)C12

>  <smiles>  (262) 
[H]OC12C(=O)C([H])([H])C([H])(C3=C([H])C([H])([H])OC3=O)C1(C([H])([H])[H])C([H])([H])C([H])(OC(=O)C([H])([H])[H])C1([H])C3(C([H])([H])[H])C(=C([H])C([H])([H])C21C([H])([H])[H])C([H])=C([H])C([H])([H])C3([H])[H]

$$$$
74:0:1
     RDKit          3D

 64 68  0  0  1  0  0  0  0  0999 V2000
    7.4308  -10.2812    3.6119 C   0  0  0  0  0  0  0  0  0  0  0  0
    6.5762   -9.4433    2.6694 C   0  0  0  0  0  0  0  0  0  0  0  0
    6.6082   -9.6140    1.4488 O   0  0  0  0  0  0  0  0  0  0  0  0
    5.8071   -8.5490    3.3348 O   0  0  0  0  0  0  0  0  0  0  0  0
    4.8516   -7.7497    2.6373 C   0  0  2  0  0  0  0  0  0  0  0  0
    5.5558   -6.4112    2.3326 C   0  0  0  0  0  0  0  0  0  0  0  0
    4.6876   -5.3795    1.5560 C   0  0  2  0  0  0  0  0  0  0  0  0
    4.5995   -5.8381    0.0792 C   0  0  0  0  0  0  0  0  0  0  0  0
    5.4041   -3.9909    1.6620 C   0  0  1  0  0  0  0  0  0  0  0  0
    5.0705   -2.9794    0.5478 C   0  0  0  0  0  0  0  0  0  0  0  0
    4.0434   -2.1397    0.4109 C   0  0  0  0  0  0  0  0  0  0  0  0
    4.2098   -1.2893   -0.8142 C   0  0  0  0  0  0  0  0  0  0  0  0
    5.4810   -1.6949   -1.3005 O   0  0  0  0  0  0  0  0  0  0  0  0
    6.0195   -2.6718   -0.5351 C   0  0  0  0  0  0  0  0  0  0  0  0
    7.1218   -3.1845   -0.7168 O   0  0  0  0  0  0  0  0  0  0  0  0
    5.0386   -3.4778    3.0602 C   0  0  0  0  0  0  0  0  0  0  0  0
    3.7189   -4.1540    3.3800 C   0  0  0  0  0  0  0  0  0  0  0  0
    3.0506   -3.8208    4.3538 O   0  0  0  0  0  0  0  0  0  0  0  0
    3.3174   -5.1906    2.3000 C   0  0  1  0  0  0  0  0  0  0  0  0
    2.4031   -4.5127    1.4612 O   0  0  0  0  0  0  0  0  0  0  0  0
    2.5818   -6.5358    2.7634 C   0  0  2  0  0  0  0  0  0  0  0  0
    1.9400   -7.2604    1.5258 C   0  0  0  0  0  0  0  0  0  0  0  0
    1.4126   -6.2293    3.7467 C   0  0  0  0  0  0  0  0  0  0  0  0
    0.7502   -7.4762    4.2624 C   0  0  0  0  0  0  0  0  0  0  0  0
    1.3917   -8.6527    4.3893 C   0  0  0  0  0  0  0  0  0  0  0  0
    0.6090   -9.8145    4.7565 C   0  0  0  0  0  0  0  0  0  0  0  0
    1.0480  -11.0585    4.5128 C   0  0  0  0  0  0  0  0  0  0  0  0
    2.3640  -11.3508    3.8263 C   0  0  0  0  0  0  0  0  0  0  0  0
    3.0238  -10.0900    3.2181 C   0  0  0  0  0  0  0  0  0  0  0  0
    2.8968   -8.8172    4.1136 C   0  0  2  0  0  0  0  0  0  0  0  0
    3.5815   -9.0807    5.4854 C   0  0  0  0  0  0  0  0  0  0  0  0
    3.5676   -7.5136    3.4931 C   0  0  1  0  0  0  0  0  0  0  0  0
    6.8124  -10.7697    4.3660 H   0  0  0  0  0  0  0  0  0  0  0  0
    8.1625   -9.6494    4.1151 H   0  0  0  0  0  0  0  0  0  0  0  0
    7.9660  -11.0542    3.0614 H   0  0  0  0  0  0  0  0  0  0  0  0
    4.5772   -8.2428    1.7051 H   0  0  0  0  0  0  0  0  0  0  0  0
    5.8825   -6.0023    3.2913 H   0  0  0  0  0  0  0  0  0  0  0  0
    6.4791   -6.5986    1.7817 H   0  0  0  0  0  0  0  0  0  0  0  0
    3.8951   -5.2485   -0.5068 H   0  0  0  0  0  0  0  0  0  0  0  0
    4.3181   -6.8810   -0.0284 H   0  0  0  0  0  0  0  0  0  0  0  0
    5.5744   -5.7486   -0.3996 H   0  0  0  0  0  0  0  0  0  0  0  0
    6.4861   -4.1389    1.6330 H   0  0  0  0  0  0  0  0  0  0  0  0
    3.1901   -2.0274    1.0607 H   0  0  0  0  0  0  0  0  0  0  0  0
    4.2068   -0.2318   -0.5542 H   0  0  0  0  0  0  0  0  0  0  0  0
    3.4168   -1.4849   -1.5374 H   0  0  0  0  0  0  0  0  0  0  0  0
    5.7856   -3.7883    3.7926 H   0  0  0  0  0  0  0  0  0  0  0  0
    4.9658   -2.3944    3.1109 H   0  0  0  0  0  0  0  0  0  0  0  0
    2.8467   -3.7591    1.1021 H   0  0  0  0  0  0  0  0  0  0  0  0
    1.2460   -8.0552    1.7998 H   0  0  0  0  0  0  0  0  0  0  0  0
    2.6751   -7.7458    0.8951 H   0  0  0  0  0  0  0  0  0  0  0  0
    1.3550   -6.5986    0.8877 H   0  0  0  0  0  0  0  0  0  0  0  0
    1.7289   -5.7164    4.6486 H   0  0  0  0  0  0  0  0  0  0  0  0
    0.6598   -5.6077    3.2619 H   0  0  0  0  0  0  0  0  0  0  0  0
   -0.3037   -7.4065    4.4795 H   0  0  0  0  0  0  0  0  0  0  0  0
   -0.3431   -9.6852    5.2486 H   0  0  0  0  0  0  0  0  0  0  0  0
    0.4575  -11.9115    4.8175 H   0  0  0  0  0  0  0  0  0  0  0  0
    3.0238  -11.8112    4.5654 H   0  0  0  0  0  0  0  0  0  0  0  0
    2.1968  -12.0937    3.0441 H   0  0  0  0  0  0  0  0  0  0  0  0
    4.0534  -10.3494    2.9971 H   0  0  0  0  0  0  0  0  0  0  0  0
    2.5553   -9.9018    2.2531 H   0  0  0  0  0  0  0  0  0  0  0  0
    4.6380   -9.3193    5.3834 H   0  0  0  0  0  0  0  0  0  0  0  0
    3.1257   -9.9068    6.0309 H   0  0  0  0  0  0  0  0  0  0  0  0
    3.5043   -8.2112    6.1404 H   0  0  0  0  0  0  0  0  0  0  0  0
    3.9087   -6.9346    4.3513 H   0  0  0  0  0  0  0  0  0  0  0  0
  1  2  1  0
  1 33  1  0
  1 34  1  0
  1 35  1  0
  2  3  2  0
  2  4  1  0
  4  5  1  0
  5 32  1  0
  5  6  1  0
  5 36  1  6
  6  7  1  0
  6 37  1  0
  6 38  1  0
  7 19  1  0
  7  8  1  6
  7  9  1  0
  8 39  1  0
  8 40  1  0
  8 41  1  0
  9 16  1  0
  9 42  1  1
  9 10  1  0
 10 11  2  0
 10 14  1  0
 11 43  1  0
 11 12  1  0
 12 13  1  0
 12 44  1  0
 12 45  1  0
 13 14  1  0
 14 15  2  0
 16 17  1  0
 16 46  1  0
 16 47  1  0
 17 18  2  0
 17 19  1  0
 19 20  1  6
 19 21  1  0
 20 48  1  0
 21 32  1  0
 21 22  1  6
 21 23  1  0
 22 49  1  0
 22 50  1  0
 22 51  1  0
 23 24  1  0
 23 52  1  0
 23 53  1  0
 24 25  2  0
 24 54  1  0
 25 30  1  0
 25 26  1  0
 26 27  2  0
 26 55  1  0
 27 28  1  0
 27 56  1  0
 28 29  1  0
 28 57  1  0
 28 58  1  0
 29 30  1  0
 29 59  1  0
 29 60  1  0
 30 31  1  1
 30 32  1  0
 31 61  1  0
 31 62  1  0
 31 63  1  0
 32 64  1  1
M  END
>  <i_m_ct_stereo_status>  (263) 
1

>  <s_m_source_file>  (263) 
/var/tmp/pbs.5076255.sched01/tmpoq50wh_d/842pmd5wfz.sdf

>  <i_m_source_file_index>  (263) 
15

>  <i_lp_mmshare_version>  (263) 
48012

>  <i_f3d_flags>  (263) 
0

>  <s_epik_input>  (263) 
W0NIMl0xW0NIMl1bQ0hdPVtDSF1DKD1bQ0hdW0NIMl0yKVtDQF0xKFtDSDNdKVtDQEBIXShbQ0BASF0oW0NIMl0zKU9DKD1PKVtDSDNdKVtDQF0yKFtDSDNdKVtDQF0oW09IXSkoW0NAXTM0W0NIM10pQyg9TylbQ0gyXVtDQEBIXTRjNVtjSF1bY0hdb2M1W09IXQ==

>  <s_epik_cmdline>  (263) 
J2VwaWtfcHl0aG9uJywgJy1waHQnLCAnMi4wJywgJy1waCcsICc3LjAnLCAnLXRuJywgJzgnLCAnLW1hJywgJzIwMCcsICctaW1hZScsICc8aW5maWxlLm1hZT4nLCAnLW9tYWUnLCAnPG91dGZpbGUubWFlPic=

>  <r_lp_tautomer_probability>  (263) 
1

>  <r_epik_Ionization_Penalty>  (263) 
1.51914e-08

>  <r_epik_Ionization_Penalty_Charging>  (263) 
0

>  <r_epik_Ionization_Penalty_Neutral>  (263) 
1.51914e-08

>  <r_epik_State_Penalty>  (263) 
-0

>  <r_epik_Charging_Adjusted_Penalty>  (263) 
0

>  <i_epik_Tot_Q>  (263) 
0

>  <i_epik_Tot_abs_Q>  (263) 
0

>  <s_epik_Chemistry_Notes>  (263) 
This compound has an ester and may undergo hydrolysis at high or low pH.

>  <s_lp_Force_Field>  (263) 
OPLS3e

>  <r_lp_Energy>  (263) 
40.5227

>  <b_lp_Chiralities_Consistent>  (263) 
1

>  <s_lp_Variant>  (263) 
74:0-1

>  <s_i_glide_gridfile>  (263) 
pfpi4k_grid

>  <i_i_glide_lignum>  (263) 
15

>  <i_i_glide_rotatable_bonds>  (263) 
4

>  <r_i_docking_score>  (263) 
-2.47529

>  <r_i_glide_ligand_efficiency>  (263) 
-0.0773528

>  <r_i_glide_ligand_efficiency_sa>  (263) 
-0.24558

>  <r_i_glide_ligand_efficiency_ln>  (263) 
-0.554285

>  <r_i_glide_gscore>  (263) 
-2.47529

>  <r_i_glide_lipo>  (263) 
-0.216565

>  <r_i_glide_hbond>  (263) 
0

>  <r_i_glide_metal>  (263) 
-0

>  <r_i_glide_rewards>  (263) 
-0.43607

>  <r_i_glide_evdw>  (263) 
-32.0199

>  <r_i_glide_ecoul>  (263) 
-2.81192

>  <r_i_glide_erotb>  (263) 
0.20578

>  <r_i_glide_esite>  (263) 
-0.00565412

>  <r_i_glide_emodel>  (263) 
-39.4879

>  <r_i_glide_energy>  (263) 
-34.8318

>  <r_i_glide_einternal>  (263) 
2.07276

>  <r_i_glide_intrahb_reward>  (263) 
-0

>  <i_i_glide_confnum>  (263) 
2

>  <i_i_glide_posenum>  (263) 
31

>  <r_i_glide_eff_state_penalty>  (263) 
0

>  <ligand_id>  (263) 
74

>  <original_smiles>  (263) 
CC(=O)OC1CC2(C)C(c3ccoc3O)CC(=O)C2(O)C2(C)CC=C3C=CCCC3(C)C12

>  <smiles>  (263) 
[H]OC12C(=O)C([H])([H])C([H])(C3=C([H])C([H])([H])OC3=O)C1(C([H])([H])[H])C([H])([H])C([H])(OC(=O)C([H])([H])[H])C1([H])C3(C([H])([H])[H])C(=C([H])C([H])([H])C21C([H])([H])[H])C([H])=C([H])C([H])([H])C3([H])[H]

$$$$
74:0:2
     RDKit          3D

 64 68  0  0  1  0  0  0  0  0999 V2000
    7.5523   -9.2303    4.6576 C   0  0  0  0  0  0  0  0  0  0  0  0
    6.7433   -8.6951    3.4833 C   0  0  0  0  0  0  0  0  0  0  0  0
    6.9863   -9.0371    2.3255 O   0  0  0  0  0  0  0  0  0  0  0  0
    5.7592   -7.8540    3.8756 O   0  0  0  0  0  0  0  0  0  0  0  0
    4.8353   -7.3208    2.9257 C   0  0  2  0  0  0  0  0  0  0  0  0
    5.4137   -5.9567    2.4958 C   0  0  0  0  0  0  0  0  0  0  0  0
    4.5634   -5.1922    1.4376 C   0  0  2  0  0  0  0  0  0  0  0  0
    4.7711   -5.8804    0.0696 C   0  0  0  0  0  0  0  0  0  0  0  0
    5.0837   -3.7162    1.3996 C   0  0  1  0  0  0  0  0  0  0  0  0
    4.8141   -2.9449    0.0935 C   0  0  0  0  0  0  0  0  0  0  0  0
    3.7203   -2.3082   -0.3379 C   0  0  0  0  0  0  0  0  0  0  0  0
    3.9789   -1.6320   -1.6505 C   0  0  0  0  0  0  0  0  0  0  0  0
    5.3575   -1.8958   -1.8676 O   0  0  0  0  0  0  0  0  0  0  0  0
    5.8839   -2.6486   -0.8748 C   0  0  0  0  0  0  0  0  0  0  0  0
    7.0625   -2.9869   -0.7964 O   0  0  0  0  0  0  0  0  0  0  0  0
    4.4400   -3.0552    2.6240 C   0  0  0  0  0  0  0  0  0  0  0  0
    3.1718   -3.8568    2.8672 C   0  0  0  0  0  0  0  0  0  0  0  0
    2.3169   -3.4794    3.6603 O   0  0  0  0  0  0  0  0  0  0  0  0
    3.0766   -5.0930    1.9397 C   0  0  1  0  0  0  0  0  0  0  0  0
    2.2327   -4.6979    0.8764 O   0  0  0  0  0  0  0  0  0  0  0  0
    2.4454   -6.4477    2.5220 C   0  0  2  0  0  0  0  0  0  0  0  0
    2.1008   -7.4363    1.3526 C   0  0  0  0  0  0  0  0  0  0  0  0
    1.1066   -6.1691    3.2633 C   0  0  0  0  0  0  0  0  0  0  0  0
    0.5231   -7.4055    3.8890 C   0  0  0  0  0  0  0  0  0  0  0  0
    1.2705   -8.4413    4.3025 C   0  0  0  0  0  0  0  0  0  0  0  0
    0.5796   -9.6374    4.7506 C   0  0  0  0  0  0  0  0  0  0  0  0
    1.2031  -10.8255    4.7924 C   0  0  0  0  0  0  0  0  0  0  0  0
    2.6395  -11.0258    4.3552 C   0  0  0  0  0  0  0  0  0  0  0  0
    3.2330   -9.7886    3.6353 C   0  0  0  0  0  0  0  0  0  0  0  0
    2.8098   -8.4272    4.2732 C   0  0  2  0  0  0  0  0  0  0  0  0
    3.2929   -8.3776    5.7509 C   0  0  0  0  0  0  0  0  0  0  0  0
    3.4114   -7.1486    3.5392 C   0  0  1  0  0  0  0  0  0  0  0  0
    6.8974   -9.7057    5.3892 H   0  0  0  0  0  0  0  0  0  0  0  0
    8.0887   -8.4181    5.1469 H   0  0  0  0  0  0  0  0  0  0  0  0
    8.2787   -9.9705    4.3222 H   0  0  0  0  0  0  0  0  0  0  0  0
    4.7782   -7.9867    2.0641 H   0  0  0  0  0  0  0  0  0  0  0  0
    5.5282   -5.3644    3.4051 H   0  0  0  0  0  0  0  0  0  0  0  0
    6.4281   -6.0890    2.1168 H   0  0  0  0  0  0  0  0  0  0  0  0
    4.1075   -5.4923   -0.7056 H   0  0  0  0  0  0  0  0  0  0  0  0
    4.6341   -6.9583    0.1054 H   0  0  0  0  0  0  0  0  0  0  0  0
    5.7932   -5.7250   -0.2798 H   0  0  0  0  0  0  0  0  0  0  0  0
    6.1653   -3.7103    1.5457 H   0  0  0  0  0  0  0  0  0  0  0  0
    2.7603   -2.2355    0.1472 H   0  0  0  0  0  0  0  0  0  0  0  0
    3.7890   -0.5631   -1.5811 H   0  0  0  0  0  0  0  0  0  0  0  0
    3.3583   -2.0560   -2.4411 H   0  0  0  0  0  0  0  0  0  0  0  0
    5.0907   -3.1387    3.4960 H   0  0  0  0  0  0  0  0  0  0  0  0
    4.2304   -1.9986    2.4754 H   0  0  0  0  0  0  0  0  0  0  0  0
    2.6433   -3.9678    0.4354 H   0  0  0  0  0  0  0  0  0  0  0  0
    1.4714   -8.2719    1.6590 H   0  0  0  0  0  0  0  0  0  0  0  0
    2.9778   -7.9031    0.9180 H   0  0  0  0  0  0  0  0  0  0  0  0
    1.5429   -6.9697    0.5411 H   0  0  0  0  0  0  0  0  0  0  0  0
    1.2080   -5.4828    4.0976 H   0  0  0  0  0  0  0  0  0  0  0  0
    0.3749   -5.7507    2.5744 H   0  0  0  0  0  0  0  0  0  0  0  0
   -0.5529   -7.4589    3.9391 H   0  0  0  0  0  0  0  0  0  0  0  0
   -0.4484   -9.5715    5.0713 H   0  0  0  0  0  0  0  0  0  0  0  0
    0.6809  -11.7002    5.1556 H   0  0  0  0  0  0  0  0  0  0  0  0
    3.2228  -11.2698    5.2456 H   0  0  0  0  0  0  0  0  0  0  0  0
    2.6875  -11.8958    3.6975 H   0  0  0  0  0  0  0  0  0  0  0  0
    4.3090   -9.9208    3.6074 H   0  0  0  0  0  0  0  0  0  0  0  0
    2.9057   -9.8188    2.5969 H   0  0  0  0  0  0  0  0  0  0  0  0
    4.3723   -8.4738    5.8395 H   0  0  0  0  0  0  0  0  0  0  0  0
    2.8579   -9.1695    6.3601 H   0  0  0  0  0  0  0  0  0  0  0  0
    3.0078   -7.4390    6.2276 H   0  0  0  0  0  0  0  0  0  0  0  0
    3.5376   -6.4034    4.3222 H   0  0  0  0  0  0  0  0  0  0  0  0
  1  2  1  0
  1 33  1  0
  1 34  1  0
  1 35  1  0
  2  3  2  0
  2  4  1  0
  4  5  1  0
  5 32  1  0
  5  6  1  0
  5 36  1  6
  6  7  1  0
  6 37  1  0
  6 38  1  0
  7 19  1  0
  7  8  1  6
  7  9  1  0
  8 39  1  0
  8 40  1  0
  8 41  1  0
  9 16  1  0
  9 42  1  1
  9 10  1  0
 10 11  2  0
 10 14  1  0
 11 43  1  0
 11 12  1  0
 12 13  1  0
 12 44  1  0
 12 45  1  0
 13 14  1  0
 14 15  2  0
 16 17  1  0
 16 46  1  0
 16 47  1  0
 17 18  2  0
 17 19  1  0
 19 20  1  6
 19 21  1  0
 20 48  1  0
 21 32  1  0
 21 22  1  6
 21 23  1  0
 22 49  1  0
 22 50  1  0
 22 51  1  0
 23 24  1  0
 23 52  1  0
 23 53  1  0
 24 25  2  0
 24 54  1  0
 25 30  1  0
 25 26  1  0
 26 27  2  0
 26 55  1  0
 27 28  1  0
 27 56  1  0
 28 29  1  0
 28 57  1  0
 28 58  1  0
 29 30  1  0
 29 59  1  0
 29 60  1  0
 30 31  1  1
 30 32  1  0
 31 61  1  0
 31 62  1  0
 31 63  1  0
 32 64  1  1
M  END
>  <i_m_ct_stereo_status>  (264) 
1

>  <s_m_source_file>  (264) 
/var/tmp/pbs.5076255.sched01/tmpoq50wh_d/842pmd5wfz.sdf

>  <i_m_source_file_index>  (264) 
15

>  <i_lp_mmshare_version>  (264) 
48012

>  <i_f3d_flags>  (264) 
0

>  <s_epik_input>  (264) 
W0NIMl0xW0NIMl1bQ0hdPVtDSF1DKD1bQ0hdW0NIMl0yKVtDQF0xKFtDSDNdKVtDQEBIXShbQ0BASF0oW0NIMl0zKU9DKD1PKVtDSDNdKVtDQF0yKFtDSDNdKVtDQF0oW09IXSkoW0NAXTM0W0NIM10pQyg9TylbQ0gyXVtDQEBIXTRjNVtjSF1bY0hdb2M1W09IXQ==

>  <s_epik_cmdline>  (264) 
J2VwaWtfcHl0aG9uJywgJy1waHQnLCAnMi4wJywgJy1waCcsICc3LjAnLCAnLXRuJywgJzgnLCAnLW1hJywgJzIwMCcsICctaW1hZScsICc8aW5maWxlLm1hZT4nLCAnLW9tYWUnLCAnPG91dGZpbGUubWFlPic=

>  <r_lp_tautomer_probability>  (264) 
1

>  <r_epik_Ionization_Penalty>  (264) 
1.51914e-08

>  <r_epik_Ionization_Penalty_Charging>  (264) 
0

>  <r_epik_Ionization_Penalty_Neutral>  (264) 
1.51914e-08

>  <r_epik_State_Penalty>  (264) 
-0

>  <r_epik_Charging_Adjusted_Penalty>  (264) 
0

>  <i_epik_Tot_Q>  (264) 
0

>  <i_epik_Tot_abs_Q>  (264) 
0

>  <s_epik_Chemistry_Notes>  (264) 
This compound has an ester and may undergo hydrolysis at high or low pH.

>  <s_lp_Force_Field>  (264) 
OPLS3e

>  <r_lp_Energy>  (264) 
40.5227

>  <b_lp_Chiralities_Consistent>  (264) 
1

>  <s_lp_Variant>  (264) 
74:0-1

>  <s_i_glide_gridfile>  (264) 
pfpi4k_grid

>  <i_i_glide_lignum>  (264) 
15

>  <i_i_glide_rotatable_bonds>  (264) 
4

>  <r_i_docking_score>  (264) 
-2.34028

>  <r_i_glide_ligand_efficiency>  (264) 
-0.0731337

>  <r_i_glide_ligand_efficiency_sa>  (264) 
-0.232185

>  <r_i_glide_ligand_efficiency_ln>  (264) 
-0.524052

>  <r_i_glide_gscore>  (264) 
-2.34028

>  <r_i_glide_lipo>  (264) 
-0.167308

>  <r_i_glide_hbond>  (264) 
0

>  <r_i_glide_metal>  (264) 
-0

>  <r_i_glide_rewards>  (264) 
-0.432541

>  <r_i_glide_evdw>  (264) 
-29.6703

>  <r_i_glide_ecoul>  (264) 
-3.02002

>  <r_i_glide_erotb>  (264) 
0.20578

>  <r_i_glide_esite>  (264) 
-0.0096915

>  <r_i_glide_emodel>  (264) 
-37.0034

>  <r_i_glide_energy>  (264) 
-32.6903

>  <r_i_glide_einternal>  (264) 
2.1179

>  <r_i_glide_intrahb_reward>  (264) 
-0

>  <i_i_glide_confnum>  (264) 
1

>  <i_i_glide_posenum>  (264) 
32

>  <r_i_glide_eff_state_penalty>  (264) 
0

>  <ligand_id>  (264) 
74

>  <original_smiles>  (264) 
CC(=O)OC1CC2(C)C(c3ccoc3O)CC(=O)C2(O)C2(C)CC=C3C=CCCC3(C)C12

>  <smiles>  (264) 
[H]OC12C(=O)C([H])([H])C([H])(C3=C([H])C([H])([H])OC3=O)C1(C([H])([H])[H])C([H])([H])C([H])(OC(=O)C([H])([H])[H])C1([H])C3(C([H])([H])[H])C(=C([H])C([H])([H])C21C([H])([H])[H])C([H])=C([H])C([H])([H])C3([H])[H]

$$$$
75:0:0
     RDKit          3D

 26 29  0  0  1  0  0  0  0  0999 V2000
    3.4133   -0.0062   -4.8349 Cl  0  0  0  0  0  0  0  0  0  0  0  0
    3.5732   -1.0711   -3.4886 C   0  0  0  0  0  0  0  0  0  0  0  0
    2.7620   -2.2107   -3.3663 C   0  0  0  0  0  0  0  0  0  0  0  0
    2.8985   -3.0541   -2.2423 C   0  0  0  0  0  0  0  0  0  0  0  0
    3.8414   -2.8114   -1.2087 C   0  0  0  0  0  0  0  0  0  0  0  0
    4.1915   -3.5182    0.0196 C   0  0  0  0  0  0  0  0  0  0  0  0
    3.5311   -4.7563    0.4133 C   0  0  0  0  0  0  0  0  0  0  0  0
    2.2193   -5.0248    0.4488 N   0  0  0  0  0  0  0  0  0  0  0  0
    2.1626   -6.2817    1.0206 C   0  0  0  0  0  0  0  0  0  0  0  0
    1.0727   -7.0047    1.2965 N   0  0  0  0  0  0  0  0  0  0  0  0
    1.2978   -8.2360    1.8279 C   0  0  0  0  0  0  0  0  0  0  0  0
    2.5761   -8.7760    2.1049 C   0  0  0  0  0  0  0  0  0  0  0  0
    3.7112   -7.9939    1.8261 C   0  0  0  0  0  0  0  0  0  0  0  0
    3.4748   -6.7287    1.2781 C   0  0  0  0  0  0  0  0  0  0  0  0
    4.3583   -5.7377    0.8973 O   0  0  0  0  0  0  0  0  0  0  0  0
    5.2033   -2.8956    0.7040 C   0  0  0  0  0  0  0  0  0  0  0  0
    5.7973   -1.4555   -0.0468 S   0  0  0  0  0  0  0  0  0  0  0  0
    4.6570   -1.6433   -1.3784 C   0  0  0  0  0  0  0  0  0  0  0  0
    4.5152   -0.7898   -2.4882 C   0  0  0  0  0  0  0  0  0  0  0  0
    2.0187   -2.4257   -4.1248 H   0  0  0  0  0  0  0  0  0  0  0  0
    2.2437   -3.9122   -2.1685 H   0  0  0  0  0  0  0  0  0  0  0  0
    0.4214   -8.8298    2.0312 H   0  0  0  0  0  0  0  0  0  0  0  0
    2.6813   -9.7713    2.5155 H   0  0  0  0  0  0  0  0  0  0  0  0
    4.7135   -8.3500    2.0162 H   0  0  0  0  0  0  0  0  0  0  0  0
    5.6444   -3.2195    1.6390 H   0  0  0  0  0  0  0  0  0  0  0  0
    5.1245    0.0937   -2.5574 H   0  0  0  0  0  0  0  0  0  0  0  0
  1  2  1  0
  2 19  2  0
  2  3  1  0
  3  4  2  0
  3 20  1  0
  4  5  1  0
  4 21  1  0
  5 18  2  0
  5  6  1  0
  6  7  1  0
  6 16  2  0
  7 15  1  0
  7  8  2  0
  8  9  1  0
  9 14  2  0
  9 10  1  0
 10 11  2  0
 11 12  1  0
 11 22  1  0
 12 13  2  0
 12 23  1  0
 13 14  1  0
 13 24  1  0
 14 15  1  0
 16 17  1  0
 16 25  1  0
 17 18  1  0
 18 19  1  0
 19 26  1  0
M  END
>  <i_m_ct_stereo_status>  (265) 
1

>  <s_m_source_file>  (265) 
/var/tmp/pbs.5076255.sched01/tmpoq50wh_d/842pmd5wfz.sdf

>  <i_m_source_file_index>  (265) 
16

>  <i_lp_mmshare_version>  (265) 
48012

>  <i_f3d_flags>  (265) 
0

>  <s_epik_input>  (265) 
W2NIXTFbY0hdYyhDbClbY0hdYyhjMTIpc1tjSF1jMi1jKG4zKW9jKGMzNClbY0hdW2NIXVtjSF1uNA==

>  <s_epik_cmdline>  (265) 
J2VwaWtfcHl0aG9uJywgJy1waHQnLCAnMi4wJywgJy1waCcsICc3LjAnLCAnLXRuJywgJzgnLCAnLW1hJywgJzIwMCcsICctaW1hZScsICc8aW5maWxlLm1hZT4nLCAnLW9tYWUnLCAnPG91dGZpbGUubWFlPic=

>  <r_lp_tautomer_probability>  (265) 
1

>  <r_epik_Ionization_Penalty>  (265) 
1.72118e-08

>  <r_epik_Ionization_Penalty_Charging>  (265) 
0

>  <r_epik_Ionization_Penalty_Neutral>  (265) 
1.72118e-08

>  <r_epik_State_Penalty>  (265) 
-0

>  <r_epik_Charging_Adjusted_Penalty>  (265) 
0

>  <i_epik_Tot_Q>  (265) 
0

>  <i_epik_Tot_abs_Q>  (265) 
0

>  <s_lp_Force_Field>  (265) 
OPLS3e

>  <r_lp_Energy>  (265) 
26.8489

>  <b_lp_Chiralities_Consistent>  (265) 
1

>  <s_lp_Variant>  (265) 
75:0-1

>  <s_i_glide_gridfile>  (265) 
pfpi4k_grid

>  <i_i_glide_lignum>  (265) 
16

>  <i_i_glide_rotatable_bonds>  (265) 
1

>  <r_i_docking_score>  (265) 
-4.02041

>  <r_i_glide_ligand_efficiency>  (265) 
-0.2116

>  <r_i_glide_ligand_efficiency_sa>  (265) 
-0.564635

>  <r_i_glide_ligand_efficiency_ln>  (265) 
-1.01926

>  <r_i_glide_gscore>  (265) 
-4.02041

>  <r_i_glide_lipo>  (265) 
-0.640059

>  <r_i_glide_hbond>  (265) 
-0.0179935

>  <r_i_glide_metal>  (265) 
-0

>  <r_i_glide_rewards>  (265) 
-1.45407

>  <r_i_glide_evdw>  (265) 
-30.7974

>  <r_i_glide_ecoul>  (265) 
-3.74881

>  <r_i_glide_erotb>  (265) 
0.220936

>  <r_i_glide_esite>  (265) 
-0.027032

>  <r_i_glide_emodel>  (265) 
-42.6064

>  <r_i_glide_energy>  (265) 
-34.5462

>  <r_i_glide_einternal>  (265) 
1.60839

>  <r_i_glide_intrahb_reward>  (265) 
-0

>  <i_i_glide_confnum>  (265) 
3

>  <i_i_glide_posenum>  (265) 
1

>  <r_i_glide_eff_state_penalty>  (265) 
0

>  <ligand_id>  (265) 
75

>  <original_smiles>  (265) 
Clc1ccc2c(-c3nc4ncccc4o3)csc2c1

>  <smiles>  (265) 
[H]c1nc2nc(-c3c([H])sc4c([H])c(Cl)c([H])c([H])c34)oc2c([H])c1[H]

$$$$
75:0:1
     RDKit          3D

 26 29  0  0  1  0  0  0  0  0999 V2000
    3.7762   -0.5263   -4.2532 Cl  0  0  0  0  0  0  0  0  0  0  0  0
    3.7893   -1.6930   -2.9856 C   0  0  0  0  0  0  0  0  0  0  0  0
    2.6683   -2.5042   -2.7447 C   0  0  0  0  0  0  0  0  0  0  0  0
    2.6904   -3.4535   -1.6988 C   0  0  0  0  0  0  0  0  0  0  0  0
    3.8257   -3.6472   -0.8651 C   0  0  0  0  0  0  0  0  0  0  0  0
    4.1156   -4.5516    0.2416 C   0  0  0  0  0  0  0  0  0  0  0  0
    3.1508   -5.5424    0.7137 C   0  0  0  0  0  0  0  0  0  0  0  0
    1.8130   -5.4661    0.7422 N   0  0  0  0  0  0  0  0  0  0  0  0
    1.4335   -6.6359    1.3769 C   0  0  0  0  0  0  0  0  0  0  0  0
    0.1905   -7.0331    1.6814 N   0  0  0  0  0  0  0  0  0  0  0  0
    0.0943   -8.2475    2.2904 C   0  0  0  0  0  0  0  0  0  0  0  0
    1.1933   -9.0778    2.6218 C   0  0  0  0  0  0  0  0  0  0  0  0
    2.4907   -8.6333    2.3084 C   0  0  0  0  0  0  0  0  0  0  0  0
    2.5851   -7.3872    1.6805 C   0  0  0  0  0  0  0  0  0  0  0  0
    3.6925   -6.6779    1.2611 O   0  0  0  0  0  0  0  0  0  0  0  0
    5.3834   -4.3722    0.7330 C   0  0  0  0  0  0  0  0  0  0  0  0
    6.2976   -3.1414   -0.0682 S   0  0  0  0  0  0  0  0  0  0  0  0
    4.9506   -2.8015   -1.1487 C   0  0  0  0  0  0  0  0  0  0  0  0
    4.9272   -1.8447   -2.1773 C   0  0  0  0  0  0  0  0  0  0  0  0
    1.7848   -2.3909   -3.3567 H   0  0  0  0  0  0  0  0  0  0  0  0
    1.8138   -4.0668   -1.5516 H   0  0  0  0  0  0  0  0  0  0  0  0
   -0.9048   -8.5838    2.5147 H   0  0  0  0  0  0  0  0  0  0  0  0
    1.0415  -10.0388    3.0963 H   0  0  0  0  0  0  0  0  0  0  0  0
    3.3688   -9.2206    2.5363 H   0  0  0  0  0  0  0  0  0  0  0  0
    5.8382   -4.9197    1.5478 H   0  0  0  0  0  0  0  0  0  0  0  0
    5.7956   -1.2293   -2.3278 H   0  0  0  0  0  0  0  0  0  0  0  0
  1  2  1  0
  2 19  2  0
  2  3  1  0
  3  4  2  0
  3 20  1  0
  4  5  1  0
  4 21  1  0
  5 18  2  0
  5  6  1  0
  6  7  1  0
  6 16  2  0
  7 15  1  0
  7  8  2  0
  8  9  1  0
  9 14  2  0
  9 10  1  0
 10 11  2  0
 11 12  1  0
 11 22  1  0
 12 13  2  0
 12 23  1  0
 13 14  1  0
 13 24  1  0
 14 15  1  0
 16 17  1  0
 16 25  1  0
 17 18  1  0
 18 19  1  0
 19 26  1  0
M  END
>  <i_m_ct_stereo_status>  (266) 
1

>  <s_m_source_file>  (266) 
/var/tmp/pbs.5076255.sched01/tmpoq50wh_d/842pmd5wfz.sdf

>  <i_m_source_file_index>  (266) 
16

>  <i_lp_mmshare_version>  (266) 
48012

>  <i_f3d_flags>  (266) 
0

>  <s_epik_input>  (266) 
W2NIXTFbY0hdYyhDbClbY0hdYyhjMTIpc1tjSF1jMi1jKG4zKW9jKGMzNClbY0hdW2NIXVtjSF1uNA==

>  <s_epik_cmdline>  (266) 
J2VwaWtfcHl0aG9uJywgJy1waHQnLCAnMi4wJywgJy1waCcsICc3LjAnLCAnLXRuJywgJzgnLCAnLW1hJywgJzIwMCcsICctaW1hZScsICc8aW5maWxlLm1hZT4nLCAnLW9tYWUnLCAnPG91dGZpbGUubWFlPic=

>  <r_lp_tautomer_probability>  (266) 
1

>  <r_epik_Ionization_Penalty>  (266) 
1.72118e-08

>  <r_epik_Ionization_Penalty_Charging>  (266) 
0

>  <r_epik_Ionization_Penalty_Neutral>  (266) 
1.72118e-08

>  <r_epik_State_Penalty>  (266) 
-0

>  <r_epik_Charging_Adjusted_Penalty>  (266) 
0

>  <i_epik_Tot_Q>  (266) 
0

>  <i_epik_Tot_abs_Q>  (266) 
0

>  <s_lp_Force_Field>  (266) 
OPLS3e

>  <r_lp_Energy>  (266) 
26.8489

>  <b_lp_Chiralities_Consistent>  (266) 
1

>  <s_lp_Variant>  (266) 
75:0-1

>  <s_i_glide_gridfile>  (266) 
pfpi4k_grid

>  <i_i_glide_lignum>  (266) 
16

>  <i_i_glide_rotatable_bonds>  (266) 
1

>  <r_i_docking_score>  (266) 
-3.96563

>  <r_i_glide_ligand_efficiency>  (266) 
-0.208717

>  <r_i_glide_ligand_efficiency_sa>  (266) 
-0.556941

>  <r_i_glide_ligand_efficiency_ln>  (266) 
-1.00537

>  <r_i_glide_gscore>  (266) 
-3.96563

>  <r_i_glide_lipo>  (266) 
-0.550336

>  <r_i_glide_hbond>  (266) 
-0.103844

>  <r_i_glide_metal>  (266) 
-0

>  <r_i_glide_rewards>  (266) 
-1.45407

>  <r_i_glide_evdw>  (266) 
-29.1809

>  <r_i_glide_ecoul>  (266) 
-3.7483

>  <r_i_glide_erotb>  (266) 
0.220936

>  <r_i_glide_esite>  (266) 
-0.0570275

>  <r_i_glide_emodel>  (266) 
-41.3363

>  <r_i_glide_energy>  (266) 
-32.9292

>  <r_i_glide_einternal>  (266) 
0.766123

>  <r_i_glide_intrahb_reward>  (266) 
-0

>  <i_i_glide_confnum>  (266) 
1

>  <i_i_glide_posenum>  (266) 
21

>  <r_i_glide_eff_state_penalty>  (266) 
0

>  <ligand_id>  (266) 
75

>  <original_smiles>  (266) 
Clc1ccc2c(-c3nc4ncccc4o3)csc2c1

>  <smiles>  (266) 
[H]c1nc2nc(-c3c([H])sc4c([H])c(Cl)c([H])c([H])c34)oc2c([H])c1[H]

$$$$
75:0:2
     RDKit          3D

 26 29  0  0  1  0  0  0  0  0999 V2000
    5.0004   -1.0504   -2.3045 Cl  0  0  0  0  0  0  0  0  0  0  0  0
    4.6088   -2.4143   -1.3445 C   0  0  0  0  0  0  0  0  0  0  0  0
    3.2680   -2.7751   -1.1670 C   0  0  0  0  0  0  0  0  0  0  0  0
    2.9376   -3.8907   -0.3706 C   0  0  0  0  0  0  0  0  0  0  0  0
    3.9195   -4.6968    0.2644 C   0  0  0  0  0  0  0  0  0  0  0  0
    3.8487   -5.8842    1.1055 C   0  0  0  0  0  0  0  0  0  0  0  0
    2.5753   -6.5200    1.4554 C   0  0  0  0  0  0  0  0  0  0  0  0
    1.3243   -6.0349    1.4003 N   0  0  0  0  0  0  0  0  0  0  0  0
    0.5613   -7.0643    1.9155 C   0  0  0  0  0  0  0  0  0  0  0  0
   -0.7654   -7.0804    2.1037 N   0  0  0  0  0  0  0  0  0  0  0  0
   -1.2748   -8.2412    2.6010 C   0  0  0  0  0  0  0  0  0  0  0  0
   -0.5094   -9.3768    2.9460 C   0  0  0  0  0  0  0  0  0  0  0  0
    0.8848   -9.3369    2.7663 C   0  0  0  0  0  0  0  0  0  0  0  0
    1.4034   -8.1475    2.2384 C   0  0  0  0  0  0  0  0  0  0  0  0
    2.7007   -7.7938    1.9449 O   0  0  0  0  0  0  0  0  0  0  0  0
    5.0957   -6.3228    1.4821 C   0  0  0  0  0  0  0  0  0  0  0  0
    6.4067   -5.3603    0.8835 S   0  0  0  0  0  0  0  0  0  0  0  0
    5.2824   -4.2939    0.0520 C   0  0  0  0  0  0  0  0  0  0  0  0
    5.6171   -3.1756   -0.7348 C   0  0  0  0  0  0  0  0  0  0  0  0
    2.4896   -2.1931   -1.6484 H   0  0  0  0  0  0  0  0  0  0  0  0
    1.8914   -4.1432   -0.2777 H   0  0  0  0  0  0  0  0  0  0  0  0
   -2.3451   -8.2609    2.7368 H   0  0  0  0  0  0  0  0  0  0  0  0
   -0.9838  -10.2578    3.3531 H   0  0  0  0  0  0  0  0  0  0  0  0
    1.5189  -10.1777    3.0181 H   0  0  0  0  0  0  0  0  0  0  0  0
    5.3157   -7.1832    2.1025 H   0  0  0  0  0  0  0  0  0  0  0  0
    6.6557   -2.9118   -0.8616 H   0  0  0  0  0  0  0  0  0  0  0  0
  1  2  1  0
  2 19  2  0
  2  3  1  0
  3  4  2  0
  3 20  1  0
  4  5  1  0
  4 21  1  0
  5 18  2  0
  5  6  1  0
  6  7  1  0
  6 16  2  0
  7 15  1  0
  7  8  2  0
  8  9  1  0
  9 14  2  0
  9 10  1  0
 10 11  2  0
 11 12  1  0
 11 22  1  0
 12 13  2  0
 12 23  1  0
 13 14  1  0
 13 24  1  0
 14 15  1  0
 16 17  1  0
 16 25  1  0
 17 18  1  0
 18 19  1  0
 19 26  1  0
M  END
>  <i_m_ct_stereo_status>  (267) 
1

>  <s_m_source_file>  (267) 
/var/tmp/pbs.5076255.sched01/tmpoq50wh_d/842pmd5wfz.sdf

>  <i_m_source_file_index>  (267) 
16

>  <i_lp_mmshare_version>  (267) 
48012

>  <i_f3d_flags>  (267) 
0

>  <s_epik_input>  (267) 
W2NIXTFbY0hdYyhDbClbY0hdYyhjMTIpc1tjSF1jMi1jKG4zKW9jKGMzNClbY0hdW2NIXVtjSF1uNA==

>  <s_epik_cmdline>  (267) 
J2VwaWtfcHl0aG9uJywgJy1waHQnLCAnMi4wJywgJy1waCcsICc3LjAnLCAnLXRuJywgJzgnLCAnLW1hJywgJzIwMCcsICctaW1hZScsICc8aW5maWxlLm1hZT4nLCAnLW9tYWUnLCAnPG91dGZpbGUubWFlPic=

>  <r_lp_tautomer_probability>  (267) 
1

>  <r_epik_Ionization_Penalty>  (267) 
1.72118e-08

>  <r_epik_Ionization_Penalty_Charging>  (267) 
0

>  <r_epik_Ionization_Penalty_Neutral>  (267) 
1.72118e-08

>  <r_epik_State_Penalty>  (267) 
-0

>  <r_epik_Charging_Adjusted_Penalty>  (267) 
0

>  <i_epik_Tot_Q>  (267) 
0

>  <i_epik_Tot_abs_Q>  (267) 
0

>  <s_lp_Force_Field>  (267) 
OPLS3e

>  <r_lp_Energy>  (267) 
26.8489

>  <b_lp_Chiralities_Consistent>  (267) 
1

>  <s_lp_Variant>  (267) 
75:0-1

>  <s_i_glide_gridfile>  (267) 
pfpi4k_grid

>  <i_i_glide_lignum>  (267) 
16

>  <i_i_glide_rotatable_bonds>  (267) 
1

>  <r_i_docking_score>  (267) 
-3.95911

>  <r_i_glide_ligand_efficiency>  (267) 
-0.208374

>  <r_i_glide_ligand_efficiency_sa>  (267) 
-0.556026

>  <r_i_glide_ligand_efficiency_ln>  (267) 
-1.00372

>  <r_i_glide_gscore>  (267) 
-3.95911

>  <r_i_glide_lipo>  (267) 
-0.3364

>  <r_i_glide_hbond>  (267) 
-0.291293

>  <r_i_glide_metal>  (267) 
-0

>  <r_i_glide_rewards>  (267) 
-1.45407

>  <r_i_glide_evdw>  (267) 
-25.4419

>  <r_i_glide_ecoul>  (267) 
-5.02314

>  <r_i_glide_erotb>  (267) 
0.220936

>  <r_i_glide_esite>  (267) 
-0.0727217

>  <r_i_glide_emodel>  (267) 
-39.1544

>  <r_i_glide_energy>  (267) 
-30.4651

>  <r_i_glide_einternal>  (267) 
0.205129

>  <r_i_glide_intrahb_reward>  (267) 
-0

>  <i_i_glide_confnum>  (267) 
3

>  <i_i_glide_posenum>  (267) 
6

>  <r_i_glide_eff_state_penalty>  (267) 
0

>  <ligand_id>  (267) 
75

>  <original_smiles>  (267) 
Clc1ccc2c(-c3nc4ncccc4o3)csc2c1

>  <smiles>  (267) 
[H]c1nc2nc(-c3c([H])sc4c([H])c(Cl)c([H])c([H])c34)oc2c([H])c1[H]

$$$$
76:0:0
     RDKit          3D

 39 42  0  0  1  0  0  0  0  0999 V2000
   -0.0496   -9.2359    4.2024 C   0  0  0  0  0  0  0  0  0  0  0  0
    0.6762   -8.7589    2.9412 C   0  0  2  0  0  0  0  0  0  0  0  0
    2.1067   -9.2517    2.9214 C   0  0  0  0  0  0  0  0  0  0  0  0
    3.1126   -8.5935    2.3141 C   0  0  0  0  0  0  0  0  0  0  0  0
    4.3819   -9.1201    2.5090 N   0  0  0  0  0  0  0  0  0  0  0  0
    5.4100   -8.4303    2.2381 C   0  0  0  0  0  0  0  0  0  0  0  0
    7.0546   -8.9758    2.6326 S   0  0  0  0  0  0  0  0  0  0  0  0
    7.8441   -7.3910    2.2452 C   0  0  0  0  0  0  0  0  0  0  0  0
    6.6863   -6.4064    2.1404 C   0  0  0  0  0  0  0  0  0  0  0  0
    6.7762   -5.2212    2.4445 O   0  0  0  0  0  0  0  0  0  0  0  0
    5.4058   -7.0521    1.6083 C   0  0  2  0  0  0  0  0  0  0  0  0
    4.0768   -6.2851    1.8362 C   0  0  1  0  0  0  0  0  0  0  0  0
    4.0000   -4.9982    1.0009 C   0  0  0  0  0  0  0  0  0  0  0  0
    3.4668   -3.8266    1.5809 C   0  0  0  0  0  0  0  0  0  0  0  0
    3.3863   -2.6318    0.8413 C   0  0  0  0  0  0  0  0  0  0  0  0
    3.8537   -2.5928   -0.4877 C   0  0  0  0  0  0  0  0  0  0  0  0
    3.8039   -1.4373   -1.1961 F   0  0  0  0  0  0  0  0  0  0  0  0
    4.3871   -3.7485   -1.0772 C   0  0  0  0  0  0  0  0  0  0  0  0
    5.0131   -3.6603   -2.8818 Br  0  0  0  0  0  0  0  0  0  0  0  0
    4.4581   -4.9464   -0.3354 C   0  0  0  0  0  0  0  0  0  0  0  0
    2.9225   -7.2788    1.5275 C   0  0  2  0  0  0  0  0  0  0  0  0
    1.4867   -6.7192    1.6675 C   0  0  0  0  0  0  0  0  0  0  0  0
    1.0282   -5.8975    0.8740 O   0  0  0  0  0  0  0  0  0  0  0  0
    0.6305   -7.2275    2.8248 C   0  0  0  0  0  0  0  0  0  0  0  0
   -0.0549  -10.3251    4.2527 H   0  0  0  0  0  0  0  0  0  0  0  0
   -1.0886   -8.9104    4.2010 H   0  0  0  0  0  0  0  0  0  0  0  0
    0.4243   -8.8646    5.1113 H   0  0  0  0  0  0  0  0  0  0  0  0
    0.1894   -9.2145    2.0789 H   0  0  0  0  0  0  0  0  0  0  0  0
    2.3126  -10.1572    3.4792 H   0  0  0  0  0  0  0  0  0  0  0  0
    8.5611   -7.1053    3.0140 H   0  0  0  0  0  0  0  0  0  0  0  0
    8.3670   -7.4391    1.2887 H   0  0  0  0  0  0  0  0  0  0  0  0
    5.5556   -7.2147    0.5440 H   0  0  0  0  0  0  0  0  0  0  0  0
    4.0163   -6.0082    2.8933 H   0  0  0  0  0  0  0  0  0  0  0  0
    3.1085   -3.8473    2.5995 H   0  0  0  0  0  0  0  0  0  0  0  0
    2.9705   -1.7394    1.2858 H   0  0  0  0  0  0  0  0  0  0  0  0
    4.8485   -5.8215   -0.8301 H   0  0  0  0  0  0  0  0  0  0  0  0
    3.0530   -7.5525    0.4844 H   0  0  0  0  0  0  0  0  0  0  0  0
   -0.3984   -6.9013    2.6900 H   0  0  0  0  0  0  0  0  0  0  0  0
    0.9968   -6.7743    3.7481 H   0  0  0  0  0  0  0  0  0  0  0  0
  1  2  1  0
  1 25  1  0
  1 26  1  0
  1 27  1  0
  2 24  1  0
  2  3  1  0
  2 28  1  6
  3  4  2  0
  3 29  1  0
  4 21  1  0
  4  5  1  0
  5  6  2  0
  6 11  1  0
  6  7  1  0
  7  8  1  0
  8  9  1  0
  8 30  1  0
  8 31  1  0
  9 10  2  0
  9 11  1  0
 11 12  1  0
 11 32  1  6
 12 13  1  0
 12 21  1  0
 12 33  1  1
 13 20  1  0
 13 14  2  0
 14 15  1  0
 14 34  1  0
 15 16  2  0
 15 35  1  0
 16 17  1  0
 16 18  1  0
 18 19  1  0
 18 20  2  0
 20 36  1  0
 21 22  1  0
 21 37  1  6
 22 23  2  0
 22 24  1  0
 24 38  1  0
 24 39  1  0
M  END
>  <i_m_ct_stereo_status>  (268) 
1

>  <s_m_source_file>  (268) 
/var/tmp/pbs.5076255.sched01/tmpoq50wh_d/842pmd5wfz.sdf

>  <i_m_source_file_index>  (268) 
17

>  <i_lp_mmshare_version>  (268) 
48012

>  <i_f3d_flags>  (268) 
0

>  <s_epik_input>  (268) 
QnJjKFtjSF0xKWMoRilbY0hdW2NIXWMxW0NASF0oW0NAQEhdMkMoPU4zKVNbQ0gyXUMyPU8pW0NAQEhdKEMzNClDKD1PKVtDSDJdW0NASF0oW0NIM10pW0NIXT00

>  <s_epik_cmdline>  (268) 
J2VwaWtfcHl0aG9uJywgJy1waHQnLCAnMi4wJywgJy1waCcsICc3LjAnLCAnLXRuJywgJzgnLCAnLW1hJywgJzIwMCcsICctaW1hZScsICc8aW5maWxlLm1hZT4nLCAnLW9tYWUnLCAnPG91dGZpbGUubWFlPic=

>  <r_lp_tautomer_probability>  (268) 
1

>  <r_epik_Ionization_Penalty>  (268) 
1.01703e-05

>  <r_epik_Ionization_Penalty_Charging>  (268) 
0

>  <r_epik_Ionization_Penalty_Neutral>  (268) 
1.01703e-05

>  <r_epik_State_Penalty>  (268) 
-0

>  <r_epik_Charging_Adjusted_Penalty>  (268) 
0

>  <i_epik_Tot_Q>  (268) 
0

>  <i_epik_Tot_abs_Q>  (268) 
0

>  <s_epik_Chemistry_Notes>  (268) 
This compound has an imine and may undergo hydrolysis.

>  <s_lp_Force_Field>  (268) 
OPLS3e

>  <r_lp_Energy>  (268) 
17.3035

>  <b_lp_Chiralities_Consistent>  (268) 
1

>  <s_lp_Variant>  (268) 
76:0-1

>  <s_i_glide_gridfile>  (268) 
pfpi4k_grid

>  <i_i_glide_lignum>  (268) 
17

>  <i_i_glide_rotatable_bonds>  (268) 
1

>  <r_i_docking_score>  (268) 
-3.13766

>  <r_i_glide_ligand_efficiency>  (268) 
-0.130736

>  <r_i_glide_ligand_efficiency_sa>  (268) 
-0.377108

>  <r_i_glide_ligand_efficiency_ln>  (268) 
-0.750986

>  <r_i_glide_gscore>  (268) 
-3.13766

>  <r_i_glide_lipo>  (268) 
-0.35268

>  <r_i_glide_hbond>  (268) 
-0.16

>  <r_i_glide_metal>  (268) 
-0

>  <r_i_glide_rewards>  (268) 
-0.695709

>  <r_i_glide_evdw>  (268) 
-25.786

>  <r_i_glide_ecoul>  (268) 
-4.25009

>  <r_i_glide_erotb>  (268) 
0.118058

>  <r_i_glide_esite>  (268) 
-0.120515

>  <r_i_glide_emodel>  (268) 
-35.5067

>  <r_i_glide_energy>  (268) 
-30.0361

>  <r_i_glide_einternal>  (268) 
0.638306

>  <r_i_glide_intrahb_reward>  (268) 
-0

>  <i_i_glide_confnum>  (268) 
3

>  <i_i_glide_posenum>  (268) 
7

>  <r_i_glide_eff_state_penalty>  (268) 
0

>  <ligand_id>  (268) 
76

>  <original_smiles>  (268) 
CC1C=C2N=C3SCC(=O)C3C(c3ccc(F)c(Br)c3)C2C(=O)C1

>  <smiles>  (268) 
[H]C1=C2N=C3SC([H])([H])C(=O)C3([H])C([H])(c3c([H])c([H])c(F)c(Br)c3[H])C2([H])C(=O)C([H])([H])C1([H])C([H])([H])[H]

$$$$
76:0:1
     RDKit          3D

 39 42  0  0  1  0  0  0  0  0999 V2000
   -2.1239   -8.6158    3.4456 C   0  0  0  0  0  0  0  0  0  0  0  0
   -0.9355   -8.5263    2.4983 C   0  0  2  0  0  0  0  0  0  0  0  0
    0.1299   -9.5423    2.8533 C   0  0  0  0  0  0  0  0  0  0  0  0
    1.4420   -9.3646    2.5992 C   0  0  0  0  0  0  0  0  0  0  0  0
    2.3064  -10.3460    3.0757 N   0  0  0  0  0  0  0  0  0  0  0  0
    3.5550  -10.1296    3.1419 C   0  0  0  0  0  0  0  0  0  0  0  0
    4.6957  -11.2795    3.9043 S   0  0  0  0  0  0  0  0  0  0  0  0
    6.0867  -10.1227    3.9233 C   0  0  0  0  0  0  0  0  0  0  0  0
    5.4659   -8.7661    3.5975 C   0  0  0  0  0  0  0  0  0  0  0  0
    5.8987   -7.7057    4.0481 O   0  0  0  0  0  0  0  0  0  0  0  0
    4.2574   -8.8677    2.6634 C   0  0  2  0  0  0  0  0  0  0  0  0
    3.3068   -7.6408    2.5803 C   0  0  1  0  0  0  0  0  0  0  0  0
    3.9727   -6.4582    1.8692 C   0  0  0  0  0  0  0  0  0  0  0  0
    4.4052   -6.5549    0.5294 C   0  0  0  0  0  0  0  0  0  0  0  0
    5.0096   -5.4528   -0.1022 C   0  0  0  0  0  0  0  0  0  0  0  0
    5.1993   -4.2454    0.5952 C   0  0  0  0  0  0  0  0  0  0  0  0
    5.8007   -3.1978   -0.0203 F   0  0  0  0  0  0  0  0  0  0  0  0
    4.7703   -4.1392    1.9306 C   0  0  0  0  0  0  0  0  0  0  0  0
    5.0130   -2.5063    2.8864 Br  0  0  0  0  0  0  0  0  0  0  0  0
    4.1625   -5.2409    2.5607 C   0  0  0  0  0  0  0  0  0  0  0  0
    1.9993   -8.1165    1.8876 C   0  0  2  0  0  0  0  0  0  0  0  0
    0.9241   -7.0296    1.6871 C   0  0  0  0  0  0  0  0  0  0  0  0
    1.0554   -6.1231    0.8674 O   0  0  0  0  0  0  0  0  0  0  0  0
   -0.3505   -7.1146    2.5139 C   0  0  0  0  0  0  0  0  0  0  0  0
   -2.5767   -9.5999    3.3499 H   0  0  0  0  0  0  0  0  0  0  0  0
   -2.8886   -7.8796    3.2050 H   0  0  0  0  0  0  0  0  0  0  0  0
   -1.8219   -8.4707    4.4848 H   0  0  0  0  0  0  0  0  0  0  0  0
   -1.2897   -8.7724    1.4956 H   0  0  0  0  0  0  0  0  0  0  0  0
   -0.2060  -10.4319    3.3679 H   0  0  0  0  0  0  0  0  0  0  0  0
    6.5924  -10.1178    4.8899 H   0  0  0  0  0  0  0  0  0  0  0  0
    6.8065  -10.3849    3.1473 H   0  0  0  0  0  0  0  0  0  0  0  0
    4.6339   -9.0760    1.6615 H   0  0  0  0  0  0  0  0  0  0  0  0
    3.0553   -7.3276    3.5976 H   0  0  0  0  0  0  0  0  0  0  0  0
    4.2748   -7.4740   -0.0259 H   0  0  0  0  0  0  0  0  0  0  0  0
    5.3314   -5.5241   -1.1292 H   0  0  0  0  0  0  0  0  0  0  0  0
    3.8412   -5.1492    3.5851 H   0  0  0  0  0  0  0  0  0  0  0  0
    2.2616   -8.4623    0.8845 H   0  0  0  0  0  0  0  0  0  0  0  0
   -1.0859   -6.4298    2.1017 H   0  0  0  0  0  0  0  0  0  0  0  0
   -0.1276   -6.8044    3.5376 H   0  0  0  0  0  0  0  0  0  0  0  0
  1  2  1  0
  1 25  1  0
  1 26  1  0
  1 27  1  0
  2 24  1  0
  2  3  1  0
  2 28  1  6
  3  4  2  0
  3 29  1  0
  4 21  1  0
  4  5  1  0
  5  6  2  0
  6 11  1  0
  6  7  1  0
  7  8  1  0
  8  9  1  0
  8 30  1  0
  8 31  1  0
  9 10  2  0
  9 11  1  0
 11 12  1  0
 11 32  1  6
 12 13  1  0
 12 21  1  0
 12 33  1  1
 13 20  1  0
 13 14  2  0
 14 15  1  0
 14 34  1  0
 15 16  2  0
 15 35  1  0
 16 17  1  0
 16 18  1  0
 18 19  1  0
 18 20  2  0
 20 36  1  0
 21 22  1  0
 21 37  1  6
 22 23  2  0
 22 24  1  0
 24 38  1  0
 24 39  1  0
M  END
>  <i_m_ct_stereo_status>  (269) 
1

>  <s_m_source_file>  (269) 
/var/tmp/pbs.5076255.sched01/tmpoq50wh_d/842pmd5wfz.sdf

>  <i_m_source_file_index>  (269) 
17

>  <i_lp_mmshare_version>  (269) 
48012

>  <i_f3d_flags>  (269) 
0

>  <s_epik_input>  (269) 
QnJjKFtjSF0xKWMoRilbY0hdW2NIXWMxW0NASF0oW0NAQEhdMkMoPU4zKVNbQ0gyXUMyPU8pW0NAQEhdKEMzNClDKD1PKVtDSDJdW0NASF0oW0NIM10pW0NIXT00

>  <s_epik_cmdline>  (269) 
J2VwaWtfcHl0aG9uJywgJy1waHQnLCAnMi4wJywgJy1waCcsICc3LjAnLCAnLXRuJywgJzgnLCAnLW1hJywgJzIwMCcsICctaW1hZScsICc8aW5maWxlLm1hZT4nLCAnLW9tYWUnLCAnPG91dGZpbGUubWFlPic=

>  <r_lp_tautomer_probability>  (269) 
1

>  <r_epik_Ionization_Penalty>  (269) 
1.01703e-05

>  <r_epik_Ionization_Penalty_Charging>  (269) 
0

>  <r_epik_Ionization_Penalty_Neutral>  (269) 
1.01703e-05

>  <r_epik_State_Penalty>  (269) 
-0

>  <r_epik_Charging_Adjusted_Penalty>  (269) 
0

>  <i_epik_Tot_Q>  (269) 
0

>  <i_epik_Tot_abs_Q>  (269) 
0

>  <s_epik_Chemistry_Notes>  (269) 
This compound has an imine and may undergo hydrolysis.

>  <s_lp_Force_Field>  (269) 
OPLS3e

>  <r_lp_Energy>  (269) 
17.3035

>  <b_lp_Chiralities_Consistent>  (269) 
1

>  <s_lp_Variant>  (269) 
76:0-1

>  <s_i_glide_gridfile>  (269) 
pfpi4k_grid

>  <i_i_glide_lignum>  (269) 
17

>  <i_i_glide_rotatable_bonds>  (269) 
1

>  <r_i_docking_score>  (269) 
-2.75219

>  <r_i_glide_ligand_efficiency>  (269) 
-0.114675

>  <r_i_glide_ligand_efficiency_sa>  (269) 
-0.330779

>  <r_i_glide_ligand_efficiency_ln>  (269) 
-0.658726

>  <r_i_glide_gscore>  (269) 
-2.75219

>  <r_i_glide_lipo>  (269) 
-0.363612

>  <r_i_glide_hbond>  (269) 
-0.16

>  <r_i_glide_metal>  (269) 
-0

>  <r_i_glide_rewards>  (269) 
-0.702557

>  <r_i_glide_evdw>  (269) 
-26.4445

>  <r_i_glide_ecoul>  (269) 
-1.53043

>  <r_i_glide_erotb>  (269) 
0.118058

>  <r_i_glide_esite>  (269) 
-0.0922932

>  <r_i_glide_emodel>  (269) 
-33.0619

>  <r_i_glide_energy>  (269) 
-27.9749

>  <r_i_glide_einternal>  (269) 
0.00633187

>  <r_i_glide_intrahb_reward>  (269) 
-0

>  <i_i_glide_confnum>  (269) 
2

>  <i_i_glide_posenum>  (269) 
17

>  <r_i_glide_eff_state_penalty>  (269) 
0

>  <ligand_id>  (269) 
76

>  <original_smiles>  (269) 
CC1C=C2N=C3SCC(=O)C3C(c3ccc(F)c(Br)c3)C2C(=O)C1

>  <smiles>  (269) 
[H]C1=C2N=C3SC([H])([H])C(=O)C3([H])C([H])(c3c([H])c([H])c(F)c(Br)c3[H])C2([H])C(=O)C([H])([H])C1([H])C([H])([H])[H]

$$$$
76:0:2
     RDKit          3D

 39 42  0  0  1  0  0  0  0  0999 V2000
   -0.5982   -7.7649    2.5996 C   0  0  0  0  0  0  0  0  0  0  0  0
    0.7746   -7.0962    2.7754 C   0  0  2  0  0  0  0  0  0  0  0  0
    0.6815   -5.8618    3.6470 C   0  0  0  0  0  0  0  0  0  0  0  0
    1.5083   -4.8034    3.5415 C   0  0  0  0  0  0  0  0  0  0  0  0
    1.1871   -3.6940    4.3251 N   0  0  0  0  0  0  0  0  0  0  0  0
    1.7129   -2.5633    4.0897 C   0  0  0  0  0  0  0  0  0  0  0  0
    1.2265   -1.0719    4.9533 S   0  0  0  0  0  0  0  0  0  0  0  0
    2.1325    0.0458    3.8514 C   0  0  0  0  0  0  0  0  0  0  0  0
    2.5290   -0.8194    2.6569 C   0  0  0  0  0  0  0  0  0  0  0  0
    2.6686   -0.3666    1.5260 O   0  0  0  0  0  0  0  0  0  0  0  0
    2.7712   -2.2851    3.0339 C   0  0  2  0  0  0  0  0  0  0  0  0
    2.7784   -3.3377    1.8957 C   0  0  1  0  0  0  0  0  0  0  0  0
    3.9948   -3.1805    0.9798 C   0  0  0  0  0  0  0  0  0  0  0  0
    5.3107   -3.2282    1.4914 C   0  0  0  0  0  0  0  0  0  0  0  0
    6.4168   -3.0736    0.6317 C   0  0  0  0  0  0  0  0  0  0  0  0
    6.2132   -2.8737   -0.7461 C   0  0  0  0  0  0  0  0  0  0  0  0
    7.2806   -2.6971   -1.5657 F   0  0  0  0  0  0  0  0  0  0  0  0
    4.9044   -2.8376   -1.2667 C   0  0  0  0  0  0  0  0  0  0  0  0
    4.6153   -2.5762   -3.1308 Br  0  0  0  0  0  0  0  0  0  0  0  0
    3.8021   -2.9840   -0.4031 C   0  0  0  0  0  0  0  0  0  0  0  0
    2.6908   -4.7475    2.5545 C   0  0  2  0  0  0  0  0  0  0  0  0
    2.6833   -5.9348    1.5619 C   0  0  0  0  0  0  0  0  0  0  0  0
    3.6839   -6.2308    0.9122 O   0  0  0  0  0  0  0  0  0  0  0  0
    1.4008   -6.7531    1.4145 C   0  0  0  0  0  0  0  0  0  0  0  0
   -1.0141   -8.0571    3.5642 H   0  0  0  0  0  0  0  0  0  0  0  0
   -0.5115   -8.6674    1.9966 H   0  0  0  0  0  0  0  0  0  0  0  0
   -1.3113   -7.1024    2.1102 H   0  0  0  0  0  0  0  0  0  0  0  0
    1.4259   -7.7964    3.3041 H   0  0  0  0  0  0  0  0  0  0  0  0
   -0.1406   -5.8383    4.3495 H   0  0  0  0  0  0  0  0  0  0  0  0
    1.5234    0.8990    3.5572 H   0  0  0  0  0  0  0  0  0  0  0  0
    3.0381    0.4102    4.3369 H   0  0  0  0  0  0  0  0  0  0  0  0
    3.7354   -2.3275    3.5385 H   0  0  0  0  0  0  0  0  0  0  0  0
    1.8814   -3.1846    1.2911 H   0  0  0  0  0  0  0  0  0  0  0  0
    5.4843   -3.3826    2.5452 H   0  0  0  0  0  0  0  0  0  0  0  0
    7.4219   -3.1033    1.0275 H   0  0  0  0  0  0  0  0  0  0  0  0
    2.8067   -2.9377   -0.8146 H   0  0  0  0  0  0  0  0  0  0  0  0
    3.5828   -4.8840    3.1664 H   0  0  0  0  0  0  0  0  0  0  0  0
    1.6198   -7.6789    0.8859 H   0  0  0  0  0  0  0  0  0  0  0  0
    0.7010   -6.1860    0.8001 H   0  0  0  0  0  0  0  0  0  0  0  0
  1  2  1  0
  1 25  1  0
  1 26  1  0
  1 27  1  0
  2 24  1  0
  2  3  1  0
  2 28  1  1
  3  4  2  0
  3 29  1  0
  4 21  1  0
  4  5  1  0
  5  6  2  0
  6 11  1  0
  6  7  1  0
  7  8  1  0
  8  9  1  0
  8 30  1  0
  8 31  1  0
  9 10  2  0
  9 11  1  0
 11 12  1  0
 11 32  1  1
 12 13  1  0
 12 21  1  0
 12 33  1  6
 13 20  1  0
 13 14  2  0
 14 15  1  0
 14 34  1  0
 15 16  2  0
 15 35  1  0
 16 17  1  0
 16 18  1  0
 18 19  1  0
 18 20  2  0
 20 36  1  0
 21 22  1  0
 21 37  1  1
 22 23  2  0
 22 24  1  0
 24 38  1  0
 24 39  1  0
M  END
>  <i_m_ct_stereo_status>  (270) 
1

>  <s_m_source_file>  (270) 
/var/tmp/pbs.5076255.sched01/tmpoq50wh_d/842pmd5wfz.sdf

>  <i_m_source_file_index>  (270) 
17

>  <i_lp_mmshare_version>  (270) 
48012

>  <i_f3d_flags>  (270) 
0

>  <s_epik_input>  (270) 
QnJjKFtjSF0xKWMoRilbY0hdW2NIXWMxW0NASF0oW0NAQEhdMkMoPU4zKVNbQ0gyXUMyPU8pW0NAQEhdKEMzNClDKD1PKVtDSDJdW0NASF0oW0NIM10pW0NIXT00

>  <s_epik_cmdline>  (270) 
J2VwaWtfcHl0aG9uJywgJy1waHQnLCAnMi4wJywgJy1waCcsICc3LjAnLCAnLXRuJywgJzgnLCAnLW1hJywgJzIwMCcsICctaW1hZScsICc8aW5maWxlLm1hZT4nLCAnLW9tYWUnLCAnPG91dGZpbGUubWFlPic=

>  <r_lp_tautomer_probability>  (270) 
1

>  <r_epik_Ionization_Penalty>  (270) 
1.01703e-05

>  <r_epik_Ionization_Penalty_Charging>  (270) 
0

>  <r_epik_Ionization_Penalty_Neutral>  (270) 
1.01703e-05

>  <r_epik_State_Penalty>  (270) 
-0

>  <r_epik_Charging_Adjusted_Penalty>  (270) 
0

>  <i_epik_Tot_Q>  (270) 
0

>  <i_epik_Tot_abs_Q>  (270) 
0

>  <s_epik_Chemistry_Notes>  (270) 
This compound has an imine and may undergo hydrolysis.

>  <s_lp_Force_Field>  (270) 
OPLS3e

>  <r_lp_Energy>  (270) 
17.3035

>  <b_lp_Chiralities_Consistent>  (270) 
1

>  <s_lp_Variant>  (270) 
76:0-1

>  <s_i_glide_gridfile>  (270) 
pfpi4k_grid

>  <i_i_glide_lignum>  (270) 
17

>  <i_i_glide_rotatable_bonds>  (270) 
1

>  <r_i_docking_score>  (270) 
-2.36432

>  <r_i_glide_ligand_efficiency>  (270) 
-0.0985133

>  <r_i_glide_ligand_efficiency_sa>  (270) 
-0.284161

>  <r_i_glide_ligand_efficiency_ln>  (270) 
-0.56589

>  <r_i_glide_gscore>  (270) 
-2.36432

>  <r_i_glide_lipo>  (270) 
-0.258841

>  <r_i_glide_hbond>  (270) 
0

>  <r_i_glide_metal>  (270) 
-0

>  <r_i_glide_rewards>  (270) 
-0.638823

>  <r_i_glide_evdw>  (270) 
-29.8966

>  <r_i_glide_ecoul>  (270) 
-0.0773427

>  <r_i_glide_erotb>  (270) 
0.118058

>  <r_i_glide_esite>  (270) 
-0.0782779

>  <r_i_glide_emodel>  (270) 
-34.37

>  <r_i_glide_energy>  (270) 
-29.974

>  <r_i_glide_einternal>  (270) 
0.0311064

>  <r_i_glide_intrahb_reward>  (270) 
-0

>  <i_i_glide_confnum>  (270) 
2

>  <i_i_glide_posenum>  (270) 
3

>  <r_i_glide_eff_state_penalty>  (270) 
0

>  <ligand_id>  (270) 
76

>  <original_smiles>  (270) 
CC1C=C2N=C3SCC(=O)C3C(c3ccc(F)c(Br)c3)C2C(=O)C1

>  <smiles>  (270) 
[H]C1=C2N=C3SC([H])([H])C(=O)C3([H])C([H])(c3c([H])c([H])c(F)c(Br)c3[H])C2([H])C(=O)C([H])([H])C1([H])C([H])([H])[H]

$$$$
77:0:0
     RDKit          3D

 44 47  0  0  1  0  0  0  0  0999 V2000
    8.3201   -4.2704    0.7228 C   0  0  0  0  0  0  0  0  0  0  0  0
    7.0397   -3.7653    0.0357 C   0  0  2  0  0  0  0  0  0  0  0  0
    7.0903   -2.2604   -0.2338 C   0  0  0  0  0  0  0  0  0  0  0  0
    6.0151   -1.8536   -1.2499 C   0  0  0  0  0  0  0  0  0  0  0  0
    4.7905   -2.7815   -1.2772 C   0  0  2  0  0  0  0  0  0  0  0  0
    3.5653   -2.0988   -1.9508 C   0  0  1  0  0  0  0  0  0  0  0  0
    3.8461   -1.5757   -3.3770 C   0  0  0  0  0  0  0  0  0  0  0  0
    2.3793   -3.0697   -1.9727 C   0  0  0  0  0  0  0  0  0  0  0  0
    2.1375   -3.6215   -0.6849 O   0  0  0  0  0  0  0  0  0  0  0  0
    3.2603   -4.3108   -0.1490 C   0  0  2  0  0  0  0  0  0  0  0  0
    2.9670   -5.1546    0.9312 O   0  0  0  0  0  0  0  0  0  0  0  0
    2.2929   -4.3523    1.9759 O   0  0  0  0  0  0  0  0  0  0  0  0
    3.2692   -3.6900    2.7448 C   0  0  1  0  0  0  0  0  0  0  0  0
    2.5426   -3.4695    4.0847 C   0  0  0  0  0  0  0  0  0  0  0  0
    4.5458   -4.5124    3.0196 C   0  0  0  0  0  0  0  0  0  0  0  0
    5.7826   -4.0898    2.2226 C   0  0  0  0  0  0  0  0  0  0  0  0
    5.6887   -4.1636    0.6977 C   0  0  1  0  0  0  0  0  0  0  0  0
    4.4525   -3.3700    0.1306 C   0  0  1  0  0  0  0  0  0  0  0  0
    4.1373   -2.1892    0.8906 O   0  0  0  0  0  0  0  0  0  0  0  0
    3.5498   -2.3624    2.3096 O   0  0  0  0  0  0  0  0  0  0  0  0
    8.4869   -3.7743    1.6794 H   0  0  0  0  0  0  0  0  0  0  0  0
    9.1861   -4.0553    0.1060 H   0  0  0  0  0  0  0  0  0  0  0  0
    8.2891   -5.3416    0.9037 H   0  0  0  0  0  0  0  0  0  0  0  0
    7.0446   -4.2453   -0.9371 H   0  0  0  0  0  0  0  0  0  0  0  0
    6.9506   -1.7112    0.7017 H   0  0  0  0  0  0  0  0  0  0  0  0
    8.0754   -1.9872   -0.6134 H   0  0  0  0  0  0  0  0  0  0  0  0
    5.7064   -0.8254   -1.0614 H   0  0  0  0  0  0  0  0  0  0  0  0
    6.4505   -1.8861   -2.2455 H   0  0  0  0  0  0  0  0  0  0  0  0
    5.0518   -3.6214   -1.9247 H   0  0  0  0  0  0  0  0  0  0  0  0
    3.2723   -1.2448   -1.3420 H   0  0  0  0  0  0  0  0  0  0  0  0
    4.1845   -2.3691   -4.0430 H   0  0  0  0  0  0  0  0  0  0  0  0
    4.6019   -0.7916   -3.3851 H   0  0  0  0  0  0  0  0  0  0  0  0
    2.9488   -1.1407   -3.8199 H   0  0  0  0  0  0  0  0  0  0  0  0
    1.4746   -2.5784   -2.3193 H   0  0  0  0  0  0  0  0  0  0  0  0
    2.5579   -3.8636   -2.6884 H   0  0  0  0  0  0  0  0  0  0  0  0
    3.5937   -5.0303   -0.8876 H   0  0  0  0  0  0  0  0  0  0  0  0
    1.5952   -2.9378    3.9467 H   0  0  0  0  0  0  0  0  0  0  0  0
    3.1696   -2.8656    4.7470 H   0  0  0  0  0  0  0  0  0  0  0  0
    2.3336   -4.4124    4.6004 H   0  0  0  0  0  0  0  0  0  0  0  0
    4.8244   -4.3621    4.0637 H   0  0  0  0  0  0  0  0  0  0  0  0
    4.3620   -5.5866    2.9392 H   0  0  0  0  0  0  0  0  0  0  0  0
    6.0668   -3.0809    2.5204 H   0  0  0  0  0  0  0  0  0  0  0  0
    6.5798   -4.7486    2.5663 H   0  0  0  0  0  0  0  0  0  0  0  0
    5.5471   -5.2135    0.4519 H   0  0  0  0  0  0  0  0  0  0  0  0
  1  2  1  0
  1 21  1  0
  1 22  1  0
  1 23  1  0
  2 17  1  0
  2  3  1  0
  2 24  1  6
  3  4  1  0
  3 25  1  0
  3 26  1  0
  4  5  1  0
  4 27  1  0
  4 28  1  0
  5 18  1  0
  5  6  1  0
  5 29  1  6
  6  7  1  0
  6  8  1  0
  6 30  1  1
  7 31  1  0
  7 32  1  0
  7 33  1  0
  8  9  1  0
  8 34  1  0
  8 35  1  0
  9 10  1  0
 10 18  1  0
 10 11  1  0
 10 36  1  6
 11 12  1  0
 12 13  1  0
 13 20  1  0
 13 14  1  1
 13 15  1  0
 14 37  1  0
 14 38  1  0
 14 39  1  0
 15 16  1  0
 15 40  1  0
 15 41  1  0
 16 17  1  0
 16 42  1  0
 16 43  1  0
 17 18  1  0
 17 44  1  1
 18 19  1  1
 19 20  1  0
M  END
>  <i_m_ct_stereo_status>  (271) 
1

>  <s_m_source_file>  (271) 
/var/tmp/pbs.5076255.sched01/tmpoq50wh_d/842pmd5wfz.sdf

>  <i_m_source_file_index>  (271) 
18

>  <i_lp_mmshare_version>  (271) 
48012

>  <i_f3d_flags>  (271) 
0

>  <s_epik_input>  (271) 
W0NAXTEyM1tDQEBIXTRbQ0gyXVtDSDJdW0NAQEhdKFtDSDNdKVtDQEhdMltDSDJdW0NIMl1bQ0BAXShbQ0gzXSkoT08zKU9PW0NASF0xT1tDSDJdW0NAQEhdNFtDSDNd

>  <s_epik_cmdline>  (271) 
J2VwaWtfcHl0aG9uJywgJy1waHQnLCAnMi4wJywgJy1waCcsICc3LjAnLCAnLXRuJywgJzgnLCAnLW1hJywgJzIwMCcsICctaW1hZScsICc8aW5maWxlLm1hZT4nLCAnLW9tYWUnLCAnPG91dGZpbGUubWFlPic=

>  <r_lp_tautomer_probability>  (271) 
1

>  <r_epik_Ionization_Penalty>  (271) 
1.09193e-14

>  <r_epik_Ionization_Penalty_Charging>  (271) 
0

>  <r_epik_Ionization_Penalty_Neutral>  (271) 
1.09193e-14

>  <r_epik_State_Penalty>  (271) 
-0

>  <r_epik_Charging_Adjusted_Penalty>  (271) 
0

>  <i_epik_Tot_Q>  (271) 
0

>  <i_epik_Tot_abs_Q>  (271) 
0

>  <s_epik_Chemistry_Notes>  (271) 
This compound contains an acetal/aminal-like group ( X-CH(R)-Y where X, Y are N, S, or O) that may be acid/base labile, releasing an aldehyde.

>  <s_lp_Force_Field>  (271) 
OPLS3e

>  <r_lp_Energy>  (271) 
25.3732

>  <b_lp_Chiralities_Consistent>  (271) 
1

>  <s_lp_Variant>  (271) 
77:0-1

>  <s_i_glide_gridfile>  (271) 
pfpi4k_grid

>  <i_i_glide_lignum>  (271) 
18

>  <i_i_glide_rotatable_bonds>  (271) 
0

>  <r_i_docking_score>  (271) 
-3.116

>  <r_i_glide_ligand_efficiency>  (271) 
-0.1558

>  <r_i_glide_ligand_efficiency_sa>  (271) 
-0.422906

>  <r_i_glide_ligand_efficiency_ln>  (271) 
-0.779832

>  <r_i_glide_gscore>  (271) 
-3.116

>  <r_i_glide_lipo>  (271) 
-0.548555

>  <r_i_glide_hbond>  (271) 
-0.00764971

>  <r_i_glide_metal>  (271) 
-0

>  <r_i_glide_rewards>  (271) 
-1.4706

>  <r_i_glide_evdw>  (271) 
-20.0683

>  <r_i_glide_ecoul>  (271) 
-0.385397

>  <r_i_glide_erotb>  (271) 
0

>  <r_i_glide_esite>  (271) 
-0.0279655

>  <r_i_glide_emodel>  (271) 
-22.772

>  <r_i_glide_energy>  (271) 
-20.4537

>  <r_i_glide_einternal>  (271) 
0

>  <r_i_glide_intrahb_reward>  (271) 
-0

>  <i_i_glide_confnum>  (271) 
2

>  <i_i_glide_posenum>  (271) 
39

>  <r_i_glide_eff_state_penalty>  (271) 
0

>  <ligand_id>  (271) 
77

>  <original_smiles>  (271) 
CC1CCC2C(C)COC3OOC4(C)CCC1C32OO4

>  <smiles>  (271) 
[H]C([H])([H])C12OOC3([H])OC([H])([H])C([H])(C([H])([H])[H])C4([H])C([H])([H])C([H])([H])C([H])(C([H])([H])[H])C([H])(C([H])([H])C1([H])[H])C34OO2

$$$$
77:0:1
     RDKit          3D

 44 47  0  0  1  0  0  0  0  0999 V2000
    4.1846  -11.0451    3.5368 C   0  0  0  0  0  0  0  0  0  0  0  0
    4.0364   -9.5256    3.3179 C   0  0  2  0  0  0  0  0  0  0  0  0
    4.4271   -8.7476    4.5820 C   0  0  0  0  0  0  0  0  0  0  0  0
    4.6249   -7.2578    4.2838 C   0  0  0  0  0  0  0  0  0  0  0  0
    3.8105   -6.7659    3.0701 C   0  0  2  0  0  0  0  0  0  0  0  0
    3.6709   -5.2194    3.0603 C   0  0  1  0  0  0  0  0  0  0  0  0
    5.0217   -4.4785    3.1012 C   0  0  0  0  0  0  0  0  0  0  0  0
    2.8552   -4.7609    1.8385 C   0  0  0  0  0  0  0  0  0  0  0  0
    1.6252   -5.4647    1.7557 O   0  0  0  0  0  0  0  0  0  0  0  0
    1.8379   -6.8656    1.6319 C   0  0  2  0  0  0  0  0  0  0  0  0
    0.7122   -7.5609    1.1816 O   0  0  0  0  0  0  0  0  0  0  0  0
   -0.4255   -7.2336    2.0686 O   0  0  0  0  0  0  0  0  0  0  0  0
   -0.3746   -8.0654    3.2070 C   0  0  1  0  0  0  0  0  0  0  0  0
   -1.8469   -8.1050    3.6371 C   0  0  0  0  0  0  0  0  0  0  0  0
    0.0788   -9.5202    2.9632 C   0  0  0  0  0  0  0  0  0  0  0  0
    1.4991   -9.8499    3.4355 C   0  0  0  0  0  0  0  0  0  0  0  0
    2.6446   -9.0425    2.7994 C   0  0  1  0  0  0  0  0  0  0  0  0
    2.4326   -7.4884    2.9195 C   0  0  1  0  0  0  0  0  0  0  0  0
    1.7582   -7.0777    4.1295 O   0  0  0  0  0  0  0  0  0  0  0  0
    0.2816   -7.4829    4.3193 O   0  0  0  0  0  0  0  0  0  0  0  0
    3.5795  -11.3980    4.3753 H   0  0  0  0  0  0  0  0  0  0  0  0
    5.2207  -11.2942    3.7619 H   0  0  0  0  0  0  0  0  0  0  0  0
    3.8992  -11.6037    2.6445 H   0  0  0  0  0  0  0  0  0  0  0  0
    4.7622   -9.2805    2.5387 H   0  0  0  0  0  0  0  0  0  0  0  0
    3.6561   -8.8755    5.3466 H   0  0  0  0  0  0  0  0  0  0  0  0
    5.3478   -9.1490    5.0011 H   0  0  0  0  0  0  0  0  0  0  0  0
    4.3840   -6.6691    5.1712 H   0  0  0  0  0  0  0  0  0  0  0  0
    5.6823   -7.0832    4.0650 H   0  0  0  0  0  0  0  0  0  0  0  0
    4.3962   -7.0200    2.1847 H   0  0  0  0  0  0  0  0  0  0  0  0
    3.1061   -4.9318    3.9439 H   0  0  0  0  0  0  0  0  0  0  0  0
    5.6685   -4.7579    2.2704 H   0  0  0  0  0  0  0  0  0  0  0  0
    5.5648   -4.6818    4.0216 H   0  0  0  0  0  0  0  0  0  0  0  0
    4.8812   -3.3976    3.0580 H   0  0  0  0  0  0  0  0  0  0  0  0
    2.6399   -3.6962    1.8981 H   0  0  0  0  0  0  0  0  0  0  0  0
    3.4224   -4.9127    0.9174 H   0  0  0  0  0  0  0  0  0  0  0  0
    2.5513   -7.0250    0.8179 H   0  0  0  0  0  0  0  0  0  0  0  0
   -2.2584   -7.0984    3.7778 H   0  0  0  0  0  0  0  0  0  0  0  0
   -1.9269   -8.6435    4.5856 H   0  0  0  0  0  0  0  0  0  0  0  0
   -2.4726   -8.6351    2.9086 H   0  0  0  0  0  0  0  0  0  0  0  0
   -0.5633  -10.1738    3.5517 H   0  0  0  0  0  0  0  0  0  0  0  0
   -0.0856   -9.8445    1.9389 H   0  0  0  0  0  0  0  0  0  0  0  0
    1.5356   -9.7606    4.5226 H   0  0  0  0  0  0  0  0  0  0  0  0
    1.6284  -10.9127    3.2166 H   0  0  0  0  0  0  0  0  0  0  0  0
    2.6284   -9.3016    1.7398 H   0  0  0  0  0  0  0  0  0  0  0  0
  1  2  1  0
  1 21  1  0
  1 22  1  0
  1 23  1  0
  2 17  1  0
  2  3  1  0
  2 24  1  6
  3  4  1  0
  3 25  1  0
  3 26  1  0
  4  5  1  0
  4 27  1  0
  4 28  1  0
  5 18  1  0
  5  6  1  0
  5 29  1  6
  6  7  1  0
  6  8  1  0
  6 30  1  1
  7 31  1  0
  7 32  1  0
  7 33  1  0
  8  9  1  0
  8 34  1  0
  8 35  1  0
  9 10  1  0
 10 18  1  0
 10 11  1  0
 10 36  1  6
 11 12  1  0
 12 13  1  0
 13 20  1  0
 13 14  1  1
 13 15  1  0
 14 37  1  0
 14 38  1  0
 14 39  1  0
 15 16  1  0
 15 40  1  0
 15 41  1  0
 16 17  1  0
 16 42  1  0
 16 43  1  0
 17 18  1  0
 17 44  1  6
 18 19  1  1
 19 20  1  0
M  END
>  <i_m_ct_stereo_status>  (272) 
1

>  <s_m_source_file>  (272) 
/var/tmp/pbs.5076255.sched01/tmpoq50wh_d/842pmd5wfz.sdf

>  <i_m_source_file_index>  (272) 
18

>  <i_lp_mmshare_version>  (272) 
48012

>  <i_f3d_flags>  (272) 
0

>  <s_epik_input>  (272) 
W0NAXTEyM1tDQEBIXTRbQ0gyXVtDSDJdW0NAQEhdKFtDSDNdKVtDQEhdMltDSDJdW0NIMl1bQ0BAXShbQ0gzXSkoT08zKU9PW0NASF0xT1tDSDJdW0NAQEhdNFtDSDNd

>  <s_epik_cmdline>  (272) 
J2VwaWtfcHl0aG9uJywgJy1waHQnLCAnMi4wJywgJy1waCcsICc3LjAnLCAnLXRuJywgJzgnLCAnLW1hJywgJzIwMCcsICctaW1hZScsICc8aW5maWxlLm1hZT4nLCAnLW9tYWUnLCAnPG91dGZpbGUubWFlPic=

>  <r_lp_tautomer_probability>  (272) 
1

>  <r_epik_Ionization_Penalty>  (272) 
1.09193e-14

>  <r_epik_Ionization_Penalty_Charging>  (272) 
0

>  <r_epik_Ionization_Penalty_Neutral>  (272) 
1.09193e-14

>  <r_epik_State_Penalty>  (272) 
-0

>  <r_epik_Charging_Adjusted_Penalty>  (272) 
0

>  <i_epik_Tot_Q>  (272) 
0

>  <i_epik_Tot_abs_Q>  (272) 
0

>  <s_epik_Chemistry_Notes>  (272) 
This compound contains an acetal/aminal-like group ( X-CH(R)-Y where X, Y are N, S, or O) that may be acid/base labile, releasing an aldehyde.

>  <s_lp_Force_Field>  (272) 
OPLS3e

>  <r_lp_Energy>  (272) 
25.3732

>  <b_lp_Chiralities_Consistent>  (272) 
1

>  <s_lp_Variant>  (272) 
77:0-1

>  <s_i_glide_gridfile>  (272) 
pfpi4k_grid

>  <i_i_glide_lignum>  (272) 
18

>  <i_i_glide_rotatable_bonds>  (272) 
0

>  <r_i_docking_score>  (272) 
-2.99935

>  <r_i_glide_ligand_efficiency>  (272) 
-0.149968

>  <r_i_glide_ligand_efficiency_sa>  (272) 
-0.407075

>  <r_i_glide_ligand_efficiency_ln>  (272) 
-0.750639

>  <r_i_glide_gscore>  (272) 
-2.99935

>  <r_i_glide_lipo>  (272) 
-0.0381073

>  <r_i_glide_hbond>  (272) 
-0.111598

>  <r_i_glide_metal>  (272) 
-0

>  <r_i_glide_rewards>  (272) 
-1.47035

>  <r_i_glide_evdw>  (272) 
-19.5851

>  <r_i_glide_ecoul>  (272) 
-2.14226

>  <r_i_glide_erotb>  (272) 
0

>  <r_i_glide_esite>  (272) 
-0.0786979

>  <r_i_glide_emodel>  (272) 
-24.456

>  <r_i_glide_energy>  (272) 
-21.7274

>  <r_i_glide_einternal>  (272) 
0

>  <r_i_glide_intrahb_reward>  (272) 
-0

>  <i_i_glide_confnum>  (272) 
2

>  <i_i_glide_posenum>  (272) 
1

>  <r_i_glide_eff_state_penalty>  (272) 
0

>  <ligand_id>  (272) 
77

>  <original_smiles>  (272) 
CC1CCC2C(C)COC3OOC4(C)CCC1C32OO4

>  <smiles>  (272) 
[H]C([H])([H])C12OOC3([H])OC([H])([H])C([H])(C([H])([H])[H])C4([H])C([H])([H])C([H])([H])C([H])(C([H])([H])[H])C([H])(C([H])([H])C1([H])[H])C34OO2

$$$$
77:0:2
     RDKit          3D

 44 47  0  0  1  0  0  0  0  0999 V2000
    6.3748   -8.3850    2.4283 C   0  0  0  0  0  0  0  0  0  0  0  0
    4.8371   -8.3276    2.5381 C   0  0  2  0  0  0  0  0  0  0  0  0
    4.1767   -9.1451    1.4260 C   0  0  0  0  0  0  0  0  0  0  0  0
    2.6963   -9.4064    1.7260 C   0  0  0  0  0  0  0  0  0  0  0  0
    2.0538   -8.3131    2.6086 C   0  0  2  0  0  0  0  0  0  0  0  0
    0.5036   -8.3284    2.5252 C   0  0  1  0  0  0  0  0  0  0  0  0
   -0.1188   -9.6919    2.8837 C   0  0  0  0  0  0  0  0  0  0  0  0
   -0.0919   -7.2218    3.4137 C   0  0  0  0  0  0  0  0  0  0  0  0
    0.5117   -5.9615    3.1474 O   0  0  0  0  0  0  0  0  0  0  0  0
    1.9159   -5.9995    3.3960 C   0  0  2  0  0  0  0  0  0  0  0  0
    2.5097   -4.7335    3.5103 O   0  0  0  0  0  0  0  0  0  0  0  0
    2.1652   -3.9280    2.3219 O   0  0  0  0  0  0  0  0  0  0  0  0
    3.0282   -4.2404    1.2520 C   0  0  1  0  0  0  0  0  0  0  0  0
    2.9740   -2.9719    0.3842 C   0  0  0  0  0  0  0  0  0  0  0  0
    4.4943   -4.4666    1.6717 C   0  0  0  0  0  0  0  0  0  0  0  0
    4.9557   -5.9262    1.6605 C   0  0  0  0  0  0  0  0  0  0  0  0
    4.2108   -6.9003    2.5883 C   0  0  1  0  0  0  0  0  0  0  0  0
    2.6511   -6.8911    2.3648 C   0  0  1  0  0  0  0  0  0  0  0  0
    2.2513   -6.6385    1.0015 O   0  0  0  0  0  0  0  0  0  0  0  0
    2.5425   -5.2589    0.3884 O   0  0  0  0  0  0  0  0  0  0  0  0
    6.7297   -8.0334    1.4579 H   0  0  0  0  0  0  0  0  0  0  0  0
    6.7185   -9.4129    2.5397 H   0  0  0  0  0  0  0  0  0  0  0  0
    6.8523   -7.7935    3.2085 H   0  0  0  0  0  0  0  0  0  0  0  0
    4.5985   -8.8066    3.4887 H   0  0  0  0  0  0  0  0  0  0  0  0
    4.2875   -8.6358    0.4651 H   0  0  0  0  0  0  0  0  0  0  0  0
    4.6797  -10.1058    1.3261 H   0  0  0  0  0  0  0  0  0  0  0  0
    2.1633   -9.4981    0.7820 H   0  0  0  0  0  0  0  0  0  0  0  0
    2.5992  -10.3626    2.2432 H   0  0  0  0  0  0  0  0  0  0  0  0
    2.2948   -8.5754    3.6404 H   0  0  0  0  0  0  0  0  0  0  0  0
    0.2241   -8.0954    1.5030 H   0  0  0  0  0  0  0  0  0  0  0  0
    0.1576  -10.0298    3.8780 H   0  0  0  0  0  0  0  0  0  0  0  0
    0.1891  -10.4664    2.1778 H   0  0  0  0  0  0  0  0  0  0  0  0
   -1.2083   -9.6584    2.8417 H   0  0  0  0  0  0  0  0  0  0  0  0
   -1.1672   -7.1477    3.2550 H   0  0  0  0  0  0  0  0  0  0  0  0
    0.0394   -7.4690    4.4663 H   0  0  0  0  0  0  0  0  0  0  0  0
    2.0630   -6.4112    4.3999 H   0  0  0  0  0  0  0  0  0  0  0  0
    1.9449   -2.7209    0.1009 H   0  0  0  0  0  0  0  0  0  0  0  0
    3.5419   -3.1304   -0.5388 H   0  0  0  0  0  0  0  0  0  0  0  0
    3.4032   -2.1035    0.8951 H   0  0  0  0  0  0  0  0  0  0  0  0
    5.1296   -3.9621    0.9440 H   0  0  0  0  0  0  0  0  0  0  0  0
    4.7164   -3.9763    2.6206 H   0  0  0  0  0  0  0  0  0  0  0  0
    4.9303   -6.2939    0.6333 H   0  0  0  0  0  0  0  0  0  0  0  0
    6.0074   -5.8839    1.9445 H   0  0  0  0  0  0  0  0  0  0  0  0
    4.3972   -6.5414    3.6014 H   0  0  0  0  0  0  0  0  0  0  0  0
  1  2  1  0
  1 21  1  0
  1 22  1  0
  1 23  1  0
  2 17  1  0
  2  3  1  0
  2 24  1  1
  3  4  1  0
  3 25  1  0
  3 26  1  0
  4  5  1  0
  4 27  1  0
  4 28  1  0
  5 18  1  0
  5  6  1  0
  5 29  1  1
  6  7  1  0
  6  8  1  0
  6 30  1  6
  7 31  1  0
  7 32  1  0
  7 33  1  0
  8  9  1  0
  8 34  1  0
  8 35  1  0
  9 10  1  0
 10 18  1  0
 10 11  1  0
 10 36  1  1
 11 12  1  0
 12 13  1  0
 13 20  1  0
 13 14  1  6
 13 15  1  0
 14 37  1  0
 14 38  1  0
 14 39  1  0
 15 16  1  0
 15 40  1  0
 15 41  1  0
 16 17  1  0
 16 42  1  0
 16 43  1  0
 17 18  1  0
 17 44  1  1
 18 19  1  6
 19 20  1  0
M  END
>  <i_m_ct_stereo_status>  (273) 
1

>  <s_m_source_file>  (273) 
/var/tmp/pbs.5076255.sched01/tmpoq50wh_d/842pmd5wfz.sdf

>  <i_m_source_file_index>  (273) 
18

>  <i_lp_mmshare_version>  (273) 
48012

>  <i_f3d_flags>  (273) 
0

>  <s_epik_input>  (273) 
W0NAXTEyM1tDQEBIXTRbQ0gyXVtDSDJdW0NAQEhdKFtDSDNdKVtDQEhdMltDSDJdW0NIMl1bQ0BAXShbQ0gzXSkoT08zKU9PW0NASF0xT1tDSDJdW0NAQEhdNFtDSDNd

>  <s_epik_cmdline>  (273) 
J2VwaWtfcHl0aG9uJywgJy1waHQnLCAnMi4wJywgJy1waCcsICc3LjAnLCAnLXRuJywgJzgnLCAnLW1hJywgJzIwMCcsICctaW1hZScsICc8aW5maWxlLm1hZT4nLCAnLW9tYWUnLCAnPG91dGZpbGUubWFlPic=

>  <r_lp_tautomer_probability>  (273) 
1

>  <r_epik_Ionization_Penalty>  (273) 
1.09193e-14

>  <r_epik_Ionization_Penalty_Charging>  (273) 
0

>  <r_epik_Ionization_Penalty_Neutral>  (273) 
1.09193e-14

>  <r_epik_State_Penalty>  (273) 
-0

>  <r_epik_Charging_Adjusted_Penalty>  (273) 
0

>  <i_epik_Tot_Q>  (273) 
0

>  <i_epik_Tot_abs_Q>  (273) 
0

>  <s_epik_Chemistry_Notes>  (273) 
This compound contains an acetal/aminal-like group ( X-CH(R)-Y where X, Y are N, S, or O) that may be acid/base labile, releasing an aldehyde.

>  <s_lp_Force_Field>  (273) 
OPLS3e

>  <r_lp_Energy>  (273) 
25.3732

>  <b_lp_Chiralities_Consistent>  (273) 
1

>  <s_lp_Variant>  (273) 
77:0-1

>  <s_i_glide_gridfile>  (273) 
pfpi4k_grid

>  <i_i_glide_lignum>  (273) 
18

>  <i_i_glide_rotatable_bonds>  (273) 
0

>  <r_i_docking_score>  (273) 
-2.78672

>  <r_i_glide_ligand_efficiency>  (273) 
-0.139336

>  <r_i_glide_ligand_efficiency_sa>  (273) 
-0.378216

>  <r_i_glide_ligand_efficiency_ln>  (273) 
-0.697423

>  <r_i_glide_gscore>  (273) 
-2.78672

>  <r_i_glide_lipo>  (273) 
-0.10862

>  <r_i_glide_hbond>  (273) 
-0.0449276

>  <r_i_glide_metal>  (273) 
-0

>  <r_i_glide_rewards>  (273) 
-1.47035

>  <r_i_glide_evdw>  (273) 
-20.8268

>  <r_i_glide_ecoul>  (273) 
-0.745574

>  <r_i_glide_erotb>  (273) 
0

>  <r_i_glide_esite>  (273) 
-0.0096374

>  <r_i_glide_emodel>  (273) 
-23.9184

>  <r_i_glide_energy>  (273) 
-21.5724

>  <r_i_glide_einternal>  (273) 
0

>  <r_i_glide_intrahb_reward>  (273) 
-0

>  <i_i_glide_confnum>  (273) 
1

>  <i_i_glide_posenum>  (273) 
9

>  <r_i_glide_eff_state_penalty>  (273) 
0

>  <ligand_id>  (273) 
77

>  <original_smiles>  (273) 
CC1CCC2C(C)COC3OOC4(C)CCC1C32OO4

>  <smiles>  (273) 
[H]C([H])([H])C12OOC3([H])OC([H])([H])C([H])(C([H])([H])[H])C4([H])C([H])([H])C([H])([H])C([H])(C([H])([H])[H])C([H])(C([H])([H])C1([H])[H])C34OO2

$$$$
78:0:0
     RDKit          3D

 26 28  0  0  1  0  0  0  0  0999 V2000
    5.2403   -1.5521    0.7430 C   0  0  0  0  0  0  0  0  0  0  0  0
    5.1585   -1.6830    2.0938 N   0  0  0  0  0  0  0  0  0  0  0  0
    4.3994   -2.6737    2.5848 C   0  0  0  0  0  0  0  0  0  0  0  0
    3.7233   -3.5130    1.6878 C   0  0  0  0  0  0  0  0  0  0  0  0
    2.8905   -4.5660    1.9028 C   0  0  0  0  0  0  0  0  0  0  0  0
    2.4910   -5.0193    0.6384 N   0  0  0  0  0  0  0  0  0  0  0  0
    3.0298   -4.2891   -0.3129 N   0  0  0  0  0  0  0  0  0  0  0  0
    3.8122   -3.3707    0.3211 N   0  0  0  0  0  0  0  0  0  0  0  0
    4.6135   -2.3695   -0.2467 C   0  0  0  0  0  0  0  0  0  0  0  0
    4.8033   -2.2110   -1.6288 N   0  0  0  0  0  0  0  0  0  0  0  0
    4.5083   -0.9430   -2.2702 C   0  0  0  0  0  0  0  0  0  0  0  0
    3.4351   -1.1330   -3.3653 C   0  0  0  0  0  0  0  0  0  0  0  0
    3.8183   -2.1963   -4.2421 O   0  0  0  0  0  0  0  0  0  0  0  0
    3.9208   -3.4436   -3.5527 C   0  0  0  0  0  0  0  0  0  0  0  0
    5.0359   -3.3542   -2.4942 C   0  0  0  0  0  0  0  0  0  0  0  0
    5.8889   -0.7567    0.4195 H   0  0  0  0  0  0  0  0  0  0  0  0
    4.3142   -2.7892    3.6534 H   0  0  0  0  0  0  0  0  0  0  0  0
    2.5599   -4.9982    2.8293 H   0  0  0  0  0  0  0  0  0  0  0  0
    4.1936   -0.2062   -1.5338 H   0  0  0  0  0  0  0  0  0  0  0  0
    5.4164   -0.5662   -2.7194 H   0  0  0  0  0  0  0  0  0  0  0  0
    2.4643   -1.3502   -2.9174 H   0  0  0  0  0  0  0  0  0  0  0  0
    3.3238   -0.2152   -3.9445 H   0  0  0  0  0  0  0  0  0  0  0  0
    2.9589   -3.6947   -3.0986 H   0  0  0  0  0  0  0  0  0  0  0  0
    4.1507   -4.2400   -4.2604 H   0  0  0  0  0  0  0  0  0  0  0  0
    6.0080   -3.2254   -2.9711 H   0  0  0  0  0  0  0  0  0  0  0  0
    5.0947   -4.2769   -1.9196 H   0  0  0  0  0  0  0  0  0  0  0  0
  1  9  2  0
  1  2  1  0
  1 16  1  0
  2  3  2  0
  3  4  1  0
  3 17  1  0
  4  8  1  0
  4  5  2  0
  5  6  1  0
  5 18  1  0
  6  7  2  0
  7  8  1  0
  8  9  1  0
  9 10  1  0
 10 15  1  0
 10 11  1  0
 11 12  1  0
 11 19  1  0
 11 20  1  0
 12 13  1  0
 12 21  1  0
 12 22  1  0
 13 14  1  0
 14 15  1  0
 14 23  1  0
 14 24  1  0
 15 25  1  0
 15 26  1  0
M  END
>  <i_m_ct_stereo_status>  (274) 
1

>  <s_m_source_file>  (274) 
/var/tmp/pbs.5076255.sched01/tmpoq50wh_d/842pmd5wfz.sdf

>  <i_m_source_file_index>  (274) 
19

>  <i_lp_mmshare_version>  (274) 
48012

>  <i_f3d_flags>  (274) 
0

>  <s_epik_input>  (274) 
W2NIXTFubm4oYzEyKWMoW2NIXW5bY0hdMilOM1tDSDJdW0NIMl1PW0NIMl1bQ0gyXTM=

>  <s_epik_cmdline>  (274) 
J2VwaWtfcHl0aG9uJywgJy1waHQnLCAnMi4wJywgJy1waCcsICc3LjAnLCAnLXRuJywgJzgnLCAnLW1hJywgJzIwMCcsICctaW1hZScsICc8aW5maWxlLm1hZT4nLCAnLW9tYWUnLCAnPG91dGZpbGUubWFlPic=

>  <r_lp_tautomer_probability>  (274) 
1

>  <r_epik_Ionization_Penalty>  (274) 
7.61831e-07

>  <r_epik_Ionization_Penalty_Charging>  (274) 
0

>  <r_epik_Ionization_Penalty_Neutral>  (274) 
7.61831e-07

>  <r_epik_State_Penalty>  (274) 
-0

>  <r_epik_Charging_Adjusted_Penalty>  (274) 
0

>  <i_epik_Tot_Q>  (274) 
0

>  <i_epik_Tot_abs_Q>  (274) 
0

>  <s_lp_Force_Field>  (274) 
OPLS3e

>  <r_lp_Energy>  (274) 
26.3999

>  <b_lp_Chiralities_Consistent>  (274) 
1

>  <s_lp_Variant>  (274) 
78:0-1

>  <s_i_glide_gridfile>  (274) 
pfpi4k_grid

>  <i_i_glide_lignum>  (274) 
19

>  <i_i_glide_rotatable_bonds>  (274) 
1

>  <r_i_docking_score>  (274) 
-4.28176

>  <r_i_glide_ligand_efficiency>  (274) 
-0.28545

>  <r_i_glide_ligand_efficiency_sa>  (274) 
-0.703981

>  <r_i_glide_ligand_efficiency_ln>  (274) 
-1.15472

>  <r_i_glide_gscore>  (274) 
-4.28176

>  <r_i_glide_lipo>  (274) 
-0.563741

>  <r_i_glide_hbond>  (274) 
-0.32

>  <r_i_glide_metal>  (274) 
-0

>  <r_i_glide_rewards>  (274) 
-2.0191

>  <r_i_glide_evdw>  (274) 
-22.4131

>  <r_i_glide_ecoul>  (274) 
-3.61755

>  <r_i_glide_erotb>  (274) 
0.391152

>  <r_i_glide_esite>  (274) 
-0.106773

>  <r_i_glide_emodel>  (274) 
-32.7138

>  <r_i_glide_energy>  (274) 
-26.0307

>  <r_i_glide_einternal>  (274) 
1.07699

>  <r_i_glide_intrahb_reward>  (274) 
-0

>  <i_i_glide_confnum>  (274) 
6

>  <i_i_glide_posenum>  (274) 
19

>  <r_i_glide_eff_state_penalty>  (274) 
0

>  <ligand_id>  (274) 
78

>  <original_smiles>  (274) 
c1ncc2cnnn2c1N1CCOCC1

>  <smiles>  (274) 
[H]c1nc([H])c2c([H])nnn2c1N1C([H])([H])C([H])([H])OC([H])([H])C1([H])[H]

$$$$
78:0:1
     RDKit          3D

 26 28  0  0  1  0  0  0  0  0999 V2000
    3.5971   -4.0117    0.0980 C   0  0  0  0  0  0  0  0  0  0  0  0
    3.2800   -4.3871    1.3664 N   0  0  0  0  0  0  0  0  0  0  0  0
    3.5958   -3.5548    2.3697 C   0  0  0  0  0  0  0  0  0  0  0  0
    4.2258   -2.3396    2.0563 C   0  0  0  0  0  0  0  0  0  0  0  0
    4.6673   -1.3325    2.8499 C   0  0  0  0  0  0  0  0  0  0  0  0
    5.2503   -0.3808    2.0074 N   0  0  0  0  0  0  0  0  0  0  0  0
    5.1848   -0.7693    0.7580 N   0  0  0  0  0  0  0  0  0  0  0  0
    4.5352   -1.9725    0.7757 N   0  0  0  0  0  0  0  0  0  0  0  0
    4.2364   -2.8022   -0.3118 C   0  0  0  0  0  0  0  0  0  0  0  0
    4.5882   -2.4629   -1.6303 N   0  0  0  0  0  0  0  0  0  0  0  0
    4.3111   -1.1318   -2.1418 C   0  0  0  0  0  0  0  0  0  0  0  0
    3.4314   -1.2097   -3.3973 C   0  0  0  0  0  0  0  0  0  0  0  0
    4.0208   -2.1216   -4.3238 O   0  0  0  0  0  0  0  0  0  0  0  0
    4.0917   -3.4514   -3.8097 C   0  0  0  0  0  0  0  0  0  0  0  0
    5.0174   -3.4678   -2.5830 C   0  0  0  0  0  0  0  0  0  0  0  0
    3.3094   -4.7349   -0.6403 H   0  0  0  0  0  0  0  0  0  0  0  0
    3.3716   -3.8373    3.3911 H   0  0  0  0  0  0  0  0  0  0  0  0
    4.6156   -1.2383    3.9207 H   0  0  0  0  0  0  0  0  0  0  0  0
    3.7974   -0.5210   -1.4040 H   0  0  0  0  0  0  0  0  0  0  0  0
    5.2641   -0.6488   -2.3555 H   0  0  0  0  0  0  0  0  0  0  0  0
    2.4222   -1.5347   -3.1428 H   0  0  0  0  0  0  0  0  0  0  0  0
    3.3481   -0.2206   -3.8532 H   0  0  0  0  0  0  0  0  0  0  0  0
    3.0936   -3.8158   -3.5590 H   0  0  0  0  0  0  0  0  0  0  0  0
    4.4916   -4.1136   -4.5809 H   0  0  0  0  0  0  0  0  0  0  0  0
    6.0424   -3.2303   -2.8805 H   0  0  0  0  0  0  0  0  0  0  0  0
    5.0420   -4.4628   -2.1387 H   0  0  0  0  0  0  0  0  0  0  0  0
  1  9  2  0
  1  2  1  0
  1 16  1  0
  2  3  2  0
  3  4  1  0
  3 17  1  0
  4  8  1  0
  4  5  2  0
  5  6  1  0
  5 18  1  0
  6  7  2  0
  7  8  1  0
  8  9  1  0
  9 10  1  0
 10 15  1  0
 10 11  1  0
 11 12  1  0
 11 19  1  0
 11 20  1  0
 12 13  1  0
 12 21  1  0
 12 22  1  0
 13 14  1  0
 14 15  1  0
 14 23  1  0
 14 24  1  0
 15 25  1  0
 15 26  1  0
M  END
>  <i_m_ct_stereo_status>  (275) 
1

>  <s_m_source_file>  (275) 
/var/tmp/pbs.5076255.sched01/tmpoq50wh_d/842pmd5wfz.sdf

>  <i_m_source_file_index>  (275) 
19

>  <i_lp_mmshare_version>  (275) 
48012

>  <i_f3d_flags>  (275) 
0

>  <s_epik_input>  (275) 
W2NIXTFubm4oYzEyKWMoW2NIXW5bY0hdMilOM1tDSDJdW0NIMl1PW0NIMl1bQ0gyXTM=

>  <s_epik_cmdline>  (275) 
J2VwaWtfcHl0aG9uJywgJy1waHQnLCAnMi4wJywgJy1waCcsICc3LjAnLCAnLXRuJywgJzgnLCAnLW1hJywgJzIwMCcsICctaW1hZScsICc8aW5maWxlLm1hZT4nLCAnLW9tYWUnLCAnPG91dGZpbGUubWFlPic=

>  <r_lp_tautomer_probability>  (275) 
1

>  <r_epik_Ionization_Penalty>  (275) 
7.61831e-07

>  <r_epik_Ionization_Penalty_Charging>  (275) 
0

>  <r_epik_Ionization_Penalty_Neutral>  (275) 
7.61831e-07

>  <r_epik_State_Penalty>  (275) 
-0

>  <r_epik_Charging_Adjusted_Penalty>  (275) 
0

>  <i_epik_Tot_Q>  (275) 
0

>  <i_epik_Tot_abs_Q>  (275) 
0

>  <s_lp_Force_Field>  (275) 
OPLS3e

>  <r_lp_Energy>  (275) 
26.3999

>  <b_lp_Chiralities_Consistent>  (275) 
1

>  <s_lp_Variant>  (275) 
78:0-1

>  <s_i_glide_gridfile>  (275) 
pfpi4k_grid

>  <i_i_glide_lignum>  (275) 
19

>  <i_i_glide_rotatable_bonds>  (275) 
1

>  <r_i_docking_score>  (275) 
-4.19587

>  <r_i_glide_ligand_efficiency>  (275) 
-0.279725

>  <r_i_glide_ligand_efficiency_sa>  (275) 
-0.68986

>  <r_i_glide_ligand_efficiency_ln>  (275) 
-1.13156

>  <r_i_glide_gscore>  (275) 
-4.19587

>  <r_i_glide_lipo>  (275) 
-0.433327

>  <r_i_glide_hbond>  (275) 
-0.32

>  <r_i_glide_metal>  (275) 
-0

>  <r_i_glide_rewards>  (275) 
-2.00989

>  <r_i_glide_evdw>  (275) 
-23.0385

>  <r_i_glide_ecoul>  (275) 
-4.34558

>  <r_i_glide_erotb>  (275) 
0.391152

>  <r_i_glide_esite>  (275) 
-0.0200444

>  <r_i_glide_emodel>  (275) 
-34.4877

>  <r_i_glide_energy>  (275) 
-27.3841

>  <r_i_glide_einternal>  (275) 
0.0198392

>  <r_i_glide_intrahb_reward>  (275) 
-0

>  <i_i_glide_confnum>  (275) 
6

>  <i_i_glide_posenum>  (275) 
33

>  <r_i_glide_eff_state_penalty>  (275) 
0

>  <ligand_id>  (275) 
78

>  <original_smiles>  (275) 
c1ncc2cnnn2c1N1CCOCC1

>  <smiles>  (275) 
[H]c1nc([H])c2c([H])nnn2c1N1C([H])([H])C([H])([H])OC([H])([H])C1([H])[H]

$$$$
78:0:2
     RDKit          3D

 26 28  0  0  1  0  0  0  0  0999 V2000
    3.8584   -4.5119    0.1164 C   0  0  0  0  0  0  0  0  0  0  0  0
    4.5482   -5.3350    0.9470 N   0  0  0  0  0  0  0  0  0  0  0  0
    5.8774   -5.1612    1.0405 C   0  0  0  0  0  0  0  0  0  0  0  0
    6.4775   -4.1558    0.2718 C   0  0  0  0  0  0  0  0  0  0  0  0
    7.7785   -3.7777    0.1590 C   0  0  0  0  0  0  0  0  0  0  0  0
    7.8073   -2.7315   -0.7839 N   0  0  0  0  0  0  0  0  0  0  0  0
    6.6073   -2.5036   -1.2503 N   0  0  0  0  0  0  0  0  0  0  0  0
    5.7695   -3.3438   -0.5799 N   0  0  0  0  0  0  0  0  0  0  0  0
    4.3757   -3.4598   -0.6953 C   0  0  0  0  0  0  0  0  0  0  0  0
    3.5955   -2.6306   -1.5160 N   0  0  0  0  0  0  0  0  0  0  0  0
    3.8933   -1.2236   -1.7257 C   0  0  0  0  0  0  0  0  0  0  0  0
    4.0936   -0.9720   -3.2323 C   0  0  0  0  0  0  0  0  0  0  0  0
    2.9563   -1.4386   -3.9549 O   0  0  0  0  0  0  0  0  0  0  0  0
    2.7144   -2.8367   -3.7745 C   0  0  0  0  0  0  0  0  0  0  0  0
    2.4799   -3.1505   -2.2854 C   0  0  0  0  0  0  0  0  0  0  0  0
    2.7947   -4.6990    0.1168 H   0  0  0  0  0  0  0  0  0  0  0  0
    6.4477   -5.8099    1.6862 H   0  0  0  0  0  0  0  0  0  0  0  0
    8.6443   -4.1731    0.6502 H   0  0  0  0  0  0  0  0  0  0  0  0
    3.0473   -0.6578   -1.3446 H   0  0  0  0  0  0  0  0  0  0  0  0
    4.7522   -0.8760   -1.1534 H   0  0  0  0  0  0  0  0  0  0  0  0
    4.2257    0.0960   -3.4116 H   0  0  0  0  0  0  0  0  0  0  0  0
    4.9869   -1.4824   -3.5963 H   0  0  0  0  0  0  0  0  0  0  0  0
    1.8363   -3.1289   -4.3488 H   0  0  0  0  0  0  0  0  0  0  0  0
    3.5631   -3.4044   -4.1650 H   0  0  0  0  0  0  0  0  0  0  0  0
    2.3591   -4.2211   -2.1403 H   0  0  0  0  0  0  0  0  0  0  0  0
    1.5536   -2.6900   -1.9427 H   0  0  0  0  0  0  0  0  0  0  0  0
  1  9  2  0
  1  2  1  0
  1 16  1  0
  2  3  2  0
  3  4  1  0
  3 17  1  0
  4  8  1  0
  4  5  2  0
  5  6  1  0
  5 18  1  0
  6  7  2  0
  7  8  1  0
  8  9  1  0
  9 10  1  0
 10 15  1  0
 10 11  1  0
 11 12  1  0
 11 19  1  0
 11 20  1  0
 12 13  1  0
 12 21  1  0
 12 22  1  0
 13 14  1  0
 14 15  1  0
 14 23  1  0
 14 24  1  0
 15 25  1  0
 15 26  1  0
M  END
>  <i_m_ct_stereo_status>  (276) 
1

>  <s_m_source_file>  (276) 
/var/tmp/pbs.5076255.sched01/tmpoq50wh_d/842pmd5wfz.sdf

>  <i_m_source_file_index>  (276) 
19

>  <i_lp_mmshare_version>  (276) 
48012

>  <i_f3d_flags>  (276) 
0

>  <s_epik_input>  (276) 
W2NIXTFubm4oYzEyKWMoW2NIXW5bY0hdMilOM1tDSDJdW0NIMl1PW0NIMl1bQ0gyXTM=

>  <s_epik_cmdline>  (276) 
J2VwaWtfcHl0aG9uJywgJy1waHQnLCAnMi4wJywgJy1waCcsICc3LjAnLCAnLXRuJywgJzgnLCAnLW1hJywgJzIwMCcsICctaW1hZScsICc8aW5maWxlLm1hZT4nLCAnLW9tYWUnLCAnPG91dGZpbGUubWFlPic=

>  <r_lp_tautomer_probability>  (276) 
1

>  <r_epik_Ionization_Penalty>  (276) 
7.61831e-07

>  <r_epik_Ionization_Penalty_Charging>  (276) 
0

>  <r_epik_Ionization_Penalty_Neutral>  (276) 
7.61831e-07

>  <r_epik_State_Penalty>  (276) 
-0

>  <r_epik_Charging_Adjusted_Penalty>  (276) 
0

>  <i_epik_Tot_Q>  (276) 
0

>  <i_epik_Tot_abs_Q>  (276) 
0

>  <s_lp_Force_Field>  (276) 
OPLS3e

>  <r_lp_Energy>  (276) 
26.3999

>  <b_lp_Chiralities_Consistent>  (276) 
1

>  <s_lp_Variant>  (276) 
78:0-1

>  <s_i_glide_gridfile>  (276) 
pfpi4k_grid

>  <i_i_glide_lignum>  (276) 
19

>  <i_i_glide_rotatable_bonds>  (276) 
1

>  <r_i_docking_score>  (276) 
-4.10344

>  <r_i_glide_ligand_efficiency>  (276) 
-0.273563

>  <r_i_glide_ligand_efficiency_sa>  (276) 
-0.674664

>  <r_i_glide_ligand_efficiency_ln>  (276) 
-1.10663

>  <r_i_glide_gscore>  (276) 
-4.10344

>  <r_i_glide_lipo>  (276) 
-0.8162

>  <r_i_glide_hbond>  (276) 
0

>  <r_i_glide_metal>  (276) 
-0

>  <r_i_glide_rewards>  (276) 
-2.11188

>  <r_i_glide_evdw>  (276) 
-23.7109

>  <r_i_glide_ecoul>  (276) 
-1.86825

>  <r_i_glide_erotb>  (276) 
0.391152

>  <r_i_glide_esite>  (276) 
-0.100727

>  <r_i_glide_emodel>  (276) 
-32.1212

>  <r_i_glide_energy>  (276) 
-25.5792

>  <r_i_glide_einternal>  (276) 
0.872573

>  <r_i_glide_intrahb_reward>  (276) 
-0

>  <i_i_glide_confnum>  (276) 
2

>  <i_i_glide_posenum>  (276) 
10

>  <r_i_glide_eff_state_penalty>  (276) 
0

>  <ligand_id>  (276) 
78

>  <original_smiles>  (276) 
c1ncc2cnnn2c1N1CCOCC1

>  <smiles>  (276) 
[H]c1nc([H])c2c([H])nnn2c1N1C([H])([H])C([H])([H])OC([H])([H])C1([H])[H]

$$$$
79:1:0
     RDKit          3D

 61 65  0  0  1  0  0  0  0  0999 V2000
   -1.8136   -9.3373    2.4968 C   0  0  0  0  0  0  0  0  0  0  0  0
   -1.5271   -7.8983    2.0884 C   0  0  0  0  0  0  0  0  0  0  0  0
   -0.4797   -7.3884    2.8807 O   0  0  0  0  0  0  0  0  0  0  0  0
    0.7134   -7.1217    2.3291 C   0  0  0  0  0  0  0  0  0  0  0  0
    0.8716   -6.8879    1.1329 O   0  0  0  0  0  0  0  0  0  0  0  0
    1.8649   -7.1144    3.3703 C   0  0  1  0  0  0  0  0  0  0  0  0
    1.9752   -8.4975    4.0501 C   0  0  0  0  0  0  0  0  0  0  0  0
    0.9389   -8.8458    5.1095 C   0  0  0  0  0  0  0  0  0  0  0  0
    2.8952   -9.3291    3.8077 N   0  0  0  0  0  0  0  0  0  0  0  0
    3.9114   -9.0967    2.8811 C   0  0  0  0  0  0  0  0  0  0  0  0
    4.8943  -10.0251    2.8567 C   0  0  0  0  0  0  0  0  0  0  0  0
    6.1460   -9.9229    2.0012 C   0  0  0  0  0  0  0  0  0  0  0  0
    6.1027   -8.7593    0.9990 C   0  0  0  0  0  0  0  0  0  0  0  0
    5.3961   -7.5456    1.5829 C   0  0  0  0  0  0  0  0  0  0  0  0
    5.9751   -6.4658    1.7071 O   0  0  0  0  0  0  0  0  0  0  0  0
    3.9331   -7.8130    2.0219 C   0  0  2  0  0  0  0  0  0  0  0  0
    3.2563   -6.6430    2.7977 C   0  0  1  0  0  0  0  0  0  0  0  0
    3.1520   -5.3133    2.0424 C   0  0  0  0  0  0  0  0  0  0  0  0
    3.4185   -5.0671    0.7120 C   0  0  0  0  0  0  0  0  0  0  0  0
    3.1374   -3.7567    0.4456 N   0  0  0  0  0  0  0  0  0  0  0  0
    3.2672   -3.0665   -0.7803 C   0  0  0  0  0  0  0  0  0  0  0  0
    4.1635   -1.9884   -0.9046 C   0  0  0  0  0  0  0  0  0  0  0  0
    4.3009   -1.3009   -2.1253 C   0  0  0  0  0  0  0  0  0  0  0  0
    3.5292   -1.6923   -3.2310 C   0  0  0  0  0  0  0  0  0  0  0  0
    2.6207   -2.7675   -3.1188 C   0  0  0  0  0  0  0  0  0  0  0  0
    2.4823   -3.4438   -1.8921 C   0  0  0  0  0  0  0  0  0  0  0  0
    2.6980   -3.1275    1.5600 N   0  0  0  0  0  0  0  0  0  0  0  0
    2.6839   -4.0416    2.5179 C   0  0  0  0  0  0  0  0  0  0  0  0
    2.1771   -3.6582    3.8516 C   0  0  0  0  0  0  0  0  0  0  0  0
    1.1722   -2.6692    3.9824 C   0  0  0  0  0  0  0  0  0  0  0  0
    0.6428   -2.3246    5.2512 C   0  0  0  0  0  0  0  0  0  0  0  0
    1.1063   -2.9926    6.4041 C   0  0  0  0  0  0  0  0  0  0  0  0
    2.1032   -3.9763    6.2850 C   0  0  0  0  0  0  0  0  0  0  0  0
    2.6532   -4.2842    5.0282 C   0  0  0  0  0  0  0  0  0  0  0  0
   -2.6267   -9.7330    1.9036 H   0  0  0  0  0  0  0  0  0  0  0  0
   -2.1139   -9.3824    3.5430 H   0  0  0  0  0  0  0  0  0  0  0  0
   -0.9413   -9.9788    2.3563 H   0  0  0  0  0  0  0  0  0  0  0  0
   -1.2732   -7.8821    1.0225 H   0  0  0  0  0  0  0  0  0  0  0  0
   -2.4054   -7.2710    2.2332 H   0  0  0  0  0  0  0  0  0  0  0  0
    0.9350   -8.1197    5.9245 H   0  0  0  0  0  0  0  0  0  0  0  0
    1.1524   -9.8294    5.5318 H   0  0  0  0  0  0  0  0  0  0  0  0
   -0.0731   -8.9205    4.7100 H   0  0  0  0  0  0  0  0  0  0  0  0
    4.8482  -10.8923    3.5126 H   0  0  0  0  0  0  0  0  0  0  0  0
    1.5474   -6.4125    4.1379 H   0  0  0  0  0  0  0  0  0  0  0  0
    6.2672  -10.8722    1.4662 H   0  0  0  0  0  0  0  0  0  0  0  0
    7.0079   -9.8013    2.6639 H   0  0  0  0  0  0  0  0  0  0  0  0
    7.1094   -8.5197    0.6712 H   0  0  0  0  0  0  0  0  0  0  0  0
    5.5058   -9.0601    0.1397 H   0  0  0  0  0  0  0  0  0  0  0  0
    3.3537   -8.0222    1.1209 H   0  0  0  0  0  0  0  0  0  0  0  0
    3.9319   -6.5019    3.6448 H   0  0  0  0  0  0  0  0  0  0  0  0
    3.7915   -5.7163   -0.0654 H   0  0  0  0  0  0  0  0  0  0  0  0
    4.7510   -1.6995   -0.0453 H   0  0  0  0  0  0  0  0  0  0  0  0
    4.9897   -0.4746   -2.2105 H   0  0  0  0  0  0  0  0  0  0  0  0
    3.6130   -1.1646   -4.1699 H   0  0  0  0  0  0  0  0  0  0  0  0
    2.0106   -3.0592   -3.9603 H   0  0  0  0  0  0  0  0  0  0  0  0
    1.7703   -4.2381   -1.7983 H   0  0  0  0  0  0  0  0  0  0  0  0
    0.7886   -2.1630    3.1137 H   0  0  0  0  0  0  0  0  0  0  0  0
   -0.1083   -1.5525    5.3317 H   0  0  0  0  0  0  0  0  0  0  0  0
    0.7103   -2.7489    7.3775 H   0  0  0  0  0  0  0  0  0  0  0  0
    2.4602   -4.5023    7.1561 H   0  0  0  0  0  0  0  0  0  0  0  0
    3.4449   -5.0123    4.9926 H   0  0  0  0  0  0  0  0  0  0  0  0
  1  2  1  0
  1 35  1  0
  1 36  1  0
  1 37  1  0
  2  3  1  0
  2 38  1  0
  2 39  1  0
  3  4  1  0
  4  5  2  0
  4  6  1  0
  6 17  1  0
  6 44  1  1
  6  7  1  0
  7  8  1  0
  7  9  2  0
  8 40  1  0
  8 41  1  0
  8 42  1  0
  9 10  1  0
 10 16  1  0
 10 11  2  0
 11 12  1  0
 11 43  1  0
 12 13  1  0
 12 45  1  0
 12 46  1  0
 13 14  1  0
 13 47  1  0
 13 48  1  0
 14 15  2  0
 14 16  1  0
 16 17  1  0
 16 49  1  6
 17 18  1  0
 17 50  1  1
 18 28  1  0
 18 19  2  0
 19 20  1  0
 19 51  1  0
 20 21  1  0
 20 27  1  0
 21 26  1  0
 21 22  2  0
 22 23  1  0
 22 52  1  0
 23 24  2  0
 23 53  1  0
 24 25  1  0
 24 54  1  0
 25 26  2  0
 25 55  1  0
 26 56  1  0
 27 28  2  0
 28 29  1  0
 29 34  1  0
 29 30  2  0
 30 31  1  0
 30 57  1  0
 31 32  2  0
 31 58  1  0
 32 33  1  0
 32 59  1  0
 33 34  2  0
 33 60  1  0
 34 61  1  0
M  END
>  <i_m_ct_stereo_status>  (277) 
1

>  <s_m_source_file>  (277) 
/var/tmp/pbs.5076255.sched01/tmpoq50wh_d/842pmd5wfz.sdf

>  <i_m_source_file_index>  (277) 
21

>  <i_lp_mmshare_version>  (277) 
48012

>  <i_f3d_flags>  (277) 
0

>  <s_epik_input>  (277) 
W0NIM11bQ0gyXU9DKD1PKUMoPUMoTj0xKVtDSDNdKVtDQEBIXShbQ0BIXShDMTIpQyg9TylbQ0gyXVtDSDJdW0NIMl0yKWMzW2NIXW4oLWM0W2NIXVtjSF1bY0hdW2NIXVtjSF00KW5jMy1jNVtjSF1bY0hdW2NIXVtjSF1bY0hdNQ==

>  <s_epik_cmdline>  (277) 
J2VwaWtfcHl0aG9uJywgJy1waHQnLCAnMi4wJywgJy1waCcsICc3LjAnLCAnLXRuJywgJzgnLCAnLW1hJywgJzIwMCcsICctaW1hZScsICc8aW5maWxlLm1hZT4nLCAnLW9tYWUnLCAnPG91dGZpbGUubWFlPic=

>  <r_lp_tautomer_probability>  (277) 
0.499981

>  <r_epik_Ionization_Penalty>  (277) 
4.11468e-06

>  <r_epik_Ionization_Penalty_Charging>  (277) 
0

>  <r_epik_Ionization_Penalty_Neutral>  (277) 
4.11468e-06

>  <r_epik_State_Penalty>  (277) 
0.41068

>  <r_epik_Charging_Adjusted_Penalty>  (277) 
0.41068

>  <i_epik_Tot_Q>  (277) 
0

>  <i_epik_Tot_abs_Q>  (277) 
0

>  <s_epik_Chemistry_Notes>  (277) 
This compound has an ester and may undergo hydrolysis at high or low pH. This compound has an imine and may undergo hydrolysis.

>  <s_lp_Force_Field>  (277) 
OPLS3e

>  <r_lp_Energy>  (277) 
33.647

>  <b_lp_Chiralities_Consistent>  (277) 
1

>  <s_lp_Variant>  (277) 
79:0-2

>  <s_i_glide_gridfile>  (277) 
pfpi4k_grid

>  <i_i_glide_lignum>  (277) 
21

>  <i_i_glide_rotatable_bonds>  (277) 
6

>  <r_i_docking_score>  (277) 
-2.53656

>  <r_i_glide_ligand_efficiency>  (277) 
-0.0746048

>  <r_i_glide_ligand_efficiency_sa>  (277) 
-0.241691

>  <r_i_glide_ligand_efficiency_ln>  (277) 
-0.560398

>  <r_i_glide_gscore>  (277) 
-2.53656

>  <r_i_glide_lipo>  (277) 
-0.676091

>  <r_i_glide_hbond>  (277) 
0

>  <r_i_glide_metal>  (277) 
-0

>  <r_i_glide_rewards>  (277) 
-0.424053

>  <r_i_glide_evdw>  (277) 
-36.0484

>  <r_i_glide_ecoul>  (277) 
-0.346934

>  <r_i_glide_erotb>  (277) 
0.487961

>  <r_i_glide_esite>  (277) 
-0.0699208

>  <r_i_glide_emodel>  (277) 
-37.1664

>  <r_i_glide_energy>  (277) 
-36.3953

>  <r_i_glide_einternal>  (277) 
6.38289

>  <r_i_glide_intrahb_reward>  (277) 
-0

>  <i_i_glide_confnum>  (277) 
4

>  <i_i_glide_posenum>  (277) 
4

>  <r_i_glide_eff_state_penalty>  (277) 
0

>  <ligand_id>  (277) 
79

>  <original_smiles>  (277) 
CCOC(=O)C1=C(C)N=C2CCCC(=O)C2C1c1cn(-c2ccccc2)nc1-c1ccccc1

>  <smiles>  (277) 
[H]C1=C2N=C(C([H])([H])[H])C([H])(C(=O)OC([H])([H])C([H])([H])[H])C([H])(c3c(-c4c([H])c([H])c([H])c([H])c4[H])nn(-c4c([H])c([H])c([H])c([H])c4[H])c3[H])C2([H])C(=O)C([H])([H])C1([H])[H]

$$$$
79:1:1
     RDKit          3D

 61 65  0  0  1  0  0  0  0  0999 V2000
    5.5810   -2.8222    2.1668 C   0  0  0  0  0  0  0  0  0  0  0  0
    5.2138   -3.7022    3.3841 C   0  0  0  0  0  0  0  0  0  0  0  0
    4.5956   -2.9533    4.4312 O   0  0  0  0  0  0  0  0  0  0  0  0
    3.3742   -2.3820    4.2405 C   0  0  0  0  0  0  0  0  0  0  0  0
    2.7465   -2.3813    3.1906 O   0  0  0  0  0  0  0  0  0  0  0  0
    2.8144   -1.6922    5.4941 C   0  0  1  0  0  0  0  0  0  0  0  0
    3.3543   -0.2532    5.5063 C   0  0  0  0  0  0  0  0  0  0  0  0
    4.8211   -0.0811    5.8462 C   0  0  0  0  0  0  0  0  0  0  0  0
    2.6494    0.7653    5.2330 N   0  0  0  0  0  0  0  0  0  0  0  0
    1.2981    0.6792    4.8593 C   0  0  0  0  0  0  0  0  0  0  0  0
    0.6553    1.8564    4.7856 C   0  0  0  0  0  0  0  0  0  0  0  0
   -0.8305    2.0198    4.5306 C   0  0  0  0  0  0  0  0  0  0  0  0
   -1.5112    0.6929    4.1637 C   0  0  0  0  0  0  0  0  0  0  0  0
   -0.9143   -0.4890    4.9112 C   0  0  0  0  0  0  0  0  0  0  0  0
   -1.6018   -1.1715    5.6776 O   0  0  0  0  0  0  0  0  0  0  0  0
    0.5918   -0.6910    4.6562 C   0  0  2  0  0  0  0  0  0  0  0  0
    1.2474   -1.7207    5.6166 C   0  0  1  0  0  0  0  0  0  0  0  0
    0.6920   -3.1584    5.5632 C   0  0  0  0  0  0  0  0  0  0  0  0
    0.6123   -3.9959    4.4706 C   0  0  0  0  0  0  0  0  0  0  0  0
    0.1294   -5.2090    4.8961 N   0  0  0  0  0  0  0  0  0  0  0  0
   -0.0659   -6.3836    4.1151 C   0  0  0  0  0  0  0  0  0  0  0  0
   -1.1362   -7.2540    4.3985 C   0  0  0  0  0  0  0  0  0  0  0  0
   -1.3492   -8.3993    3.5982 C   0  0  0  0  0  0  0  0  0  0  0  0
   -0.4856   -8.6775    2.5311 C   0  0  0  0  0  0  0  0  0  0  0  0
    0.5767   -7.8088    2.2290 C   0  0  0  0  0  0  0  0  0  0  0  0
    0.7828   -6.6603    3.0292 C   0  0  0  0  0  0  0  0  0  0  0  0
   -0.2175   -5.1521    6.2011 N   0  0  0  0  0  0  0  0  0  0  0  0
    0.1163   -3.9435    6.6267 C   0  0  0  0  0  0  0  0  0  0  0  0
   -0.1332   -3.6149    8.0492 C   0  0  0  0  0  0  0  0  0  0  0  0
   -1.1730   -4.2504    8.7674 C   0  0  0  0  0  0  0  0  0  0  0  0
   -1.4236   -3.9394   10.1215 C   0  0  0  0  0  0  0  0  0  0  0  0
   -0.6607   -2.9419   10.7621 C   0  0  0  0  0  0  0  0  0  0  0  0
    0.3725   -2.2969   10.0568 C   0  0  0  0  0  0  0  0  0  0  0  0
    0.6732   -2.6605    8.7288 C   0  0  0  0  0  0  0  0  0  0  0  0
    6.0613   -3.4166    1.3969 H   0  0  0  0  0  0  0  0  0  0  0  0
    6.2418   -2.0114    2.4581 H   0  0  0  0  0  0  0  0  0  0  0  0
    4.7219   -2.3626    1.6833 H   0  0  0  0  0  0  0  0  0  0  0  0
    4.5225   -4.4958    3.0905 H   0  0  0  0  0  0  0  0  0  0  0  0
    6.1100   -4.2007    3.7859 H   0  0  0  0  0  0  0  0  0  0  0  0
    5.0363   -0.4643    6.8407 H   0  0  0  0  0  0  0  0  0  0  0  0
    5.0791    0.9761    5.8192 H   0  0  0  0  0  0  0  0  0  0  0  0
    5.4681   -0.5808    5.1252 H   0  0  0  0  0  0  0  0  0  0  0  0
    1.1924    2.7853    4.9660 H   0  0  0  0  0  0  0  0  0  0  0  0
    3.2269   -2.2120    6.3621 H   0  0  0  0  0  0  0  0  0  0  0  0
   -0.9560    2.7389    3.7200 H   0  0  0  0  0  0  0  0  0  0  0  0
   -1.2920    2.4477    5.4239 H   0  0  0  0  0  0  0  0  0  0  0  0
   -2.5856    0.7653    4.3324 H   0  0  0  0  0  0  0  0  0  0  0  0
   -1.3553    0.4928    3.1059 H   0  0  0  0  0  0  0  0  0  0  0  0
    0.7101   -0.9728    3.6123 H   0  0  0  0  0  0  0  0  0  0  0  0
    1.0326   -1.3004    6.5986 H   0  0  0  0  0  0  0  0  0  0  0  0
    0.8681   -3.8351    3.4277 H   0  0  0  0  0  0  0  0  0  0  0  0
   -1.8020   -7.0317    5.2075 H   0  0  0  0  0  0  0  0  0  0  0  0
   -2.1654   -9.0599    3.8430 H   0  0  0  0  0  0  0  0  0  0  0  0
   -0.6233   -9.5793    1.9530 H   0  0  0  0  0  0  0  0  0  0  0  0
    1.2415   -8.0294    1.4110 H   0  0  0  0  0  0  0  0  0  0  0  0
    1.5991   -6.0004    2.7906 H   0  0  0  0  0  0  0  0  0  0  0  0
   -1.7777   -5.0031    8.2887 H   0  0  0  0  0  0  0  0  0  0  0  0
   -2.1877   -4.4838   10.6615 H   0  0  0  0  0  0  0  0  0  0  0  0
   -0.8396   -2.7020   11.7927 H   0  0  0  0  0  0  0  0  0  0  0  0
    0.9676   -1.5345   10.5368 H   0  0  0  0  0  0  0  0  0  0  0  0
    1.5367   -2.2098    8.2351 H   0  0  0  0  0  0  0  0  0  0  0  0
  1  2  1  0
  1 35  1  0
  1 36  1  0
  1 37  1  0
  2  3  1  0
  2 38  1  0
  2 39  1  0
  3  4  1  0
  4  5  2  0
  4  6  1  0
  6 17  1  0
  6 44  1  1
  6  7  1  0
  7  8  1  0
  7  9  2  0
  8 40  1  0
  8 41  1  0
  8 42  1  0
  9 10  1  0
 10 16  1  0
 10 11  2  0
 11 12  1  0
 11 43  1  0
 12 13  1  0
 12 45  1  0
 12 46  1  0
 13 14  1  0
 13 47  1  0
 13 48  1  0
 14 15  2  0
 14 16  1  0
 16 17  1  0
 16 49  1  6
 17 18  1  0
 17 50  1  1
 18 28  1  0
 18 19  2  0
 19 20  1  0
 19 51  1  0
 20 21  1  0
 20 27  1  0
 21 26  1  0
 21 22  2  0
 22 23  1  0
 22 52  1  0
 23 24  2  0
 23 53  1  0
 24 25  1  0
 24 54  1  0
 25 26  2  0
 25 55  1  0
 26 56  1  0
 27 28  2  0
 28 29  1  0
 29 34  1  0
 29 30  2  0
 30 31  1  0
 30 57  1  0
 31 32  2  0
 31 58  1  0
 32 33  1  0
 32 59  1  0
 33 34  2  0
 33 60  1  0
 34 61  1  0
M  END
>  <i_m_ct_stereo_status>  (278) 
1

>  <s_m_source_file>  (278) 
/var/tmp/pbs.5076255.sched01/tmpoq50wh_d/842pmd5wfz.sdf

>  <i_m_source_file_index>  (278) 
21

>  <i_lp_mmshare_version>  (278) 
48012

>  <i_f3d_flags>  (278) 
0

>  <s_epik_input>  (278) 
W0NIM11bQ0gyXU9DKD1PKUMoPUMoTj0xKVtDSDNdKVtDQEBIXShbQ0BIXShDMTIpQyg9TylbQ0gyXVtDSDJdW0NIMl0yKWMzW2NIXW4oLWM0W2NIXVtjSF1bY0hdW2NIXVtjSF00KW5jMy1jNVtjSF1bY0hdW2NIXVtjSF1bY0hdNQ==

>  <s_epik_cmdline>  (278) 
J2VwaWtfcHl0aG9uJywgJy1waHQnLCAnMi4wJywgJy1waCcsICc3LjAnLCAnLXRuJywgJzgnLCAnLW1hJywgJzIwMCcsICctaW1hZScsICc8aW5maWxlLm1hZT4nLCAnLW9tYWUnLCAnPG91dGZpbGUubWFlPic=

>  <r_lp_tautomer_probability>  (278) 
0.499981

>  <r_epik_Ionization_Penalty>  (278) 
4.11468e-06

>  <r_epik_Ionization_Penalty_Charging>  (278) 
0

>  <r_epik_Ionization_Penalty_Neutral>  (278) 
4.11468e-06

>  <r_epik_State_Penalty>  (278) 
0.41068

>  <r_epik_Charging_Adjusted_Penalty>  (278) 
0.41068

>  <i_epik_Tot_Q>  (278) 
0

>  <i_epik_Tot_abs_Q>  (278) 
0

>  <s_epik_Chemistry_Notes>  (278) 
This compound has an ester and may undergo hydrolysis at high or low pH. This compound has an imine and may undergo hydrolysis.

>  <s_lp_Force_Field>  (278) 
OPLS3e

>  <r_lp_Energy>  (278) 
33.647

>  <b_lp_Chiralities_Consistent>  (278) 
1

>  <s_lp_Variant>  (278) 
79:0-2

>  <s_i_glide_gridfile>  (278) 
pfpi4k_grid

>  <i_i_glide_lignum>  (278) 
21

>  <i_i_glide_rotatable_bonds>  (278) 
6

>  <r_i_docking_score>  (278) 
-2.15666

>  <r_i_glide_ligand_efficiency>  (278) 
-0.0634311

>  <r_i_glide_ligand_efficiency_sa>  (278) 
-0.205492

>  <r_i_glide_ligand_efficiency_ln>  (278) 
-0.476466

>  <r_i_glide_gscore>  (278) 
-2.15666

>  <r_i_glide_lipo>  (278) 
-0.0907257

>  <r_i_glide_hbond>  (278) 
-0.00598347

>  <r_i_glide_metal>  (278) 
-0

>  <r_i_glide_rewards>  (278) 
-0.316825

>  <r_i_glide_evdw>  (278) 
-27.8451

>  <r_i_glide_ecoul>  (278) 
-5.29633

>  <r_i_glide_erotb>  (278) 
0.487961

>  <r_i_glide_esite>  (278) 
-0.0443757

>  <r_i_glide_emodel>  (278) 
-36.1211

>  <r_i_glide_energy>  (278) 
-33.1415

>  <r_i_glide_einternal>  (278) 
1.89798

>  <r_i_glide_intrahb_reward>  (278) 
-0

>  <i_i_glide_confnum>  (278) 
4

>  <i_i_glide_posenum>  (278) 
16

>  <r_i_glide_eff_state_penalty>  (278) 
0

>  <ligand_id>  (278) 
79

>  <original_smiles>  (278) 
CCOC(=O)C1=C(C)N=C2CCCC(=O)C2C1c1cn(-c2ccccc2)nc1-c1ccccc1

>  <smiles>  (278) 
[H]C1=C2N=C(C([H])([H])[H])C([H])(C(=O)OC([H])([H])C([H])([H])[H])C([H])(c3c(-c4c([H])c([H])c([H])c([H])c4[H])nn(-c4c([H])c([H])c([H])c([H])c4[H])c3[H])C2([H])C(=O)C([H])([H])C1([H])[H]

$$$$
79:1:2
     RDKit          3D

 61 65  0  0  1  0  0  0  0  0999 V2000
    6.1789   -4.8436    5.0821 C   0  0  0  0  0  0  0  0  0  0  0  0
    5.2497   -3.9281    4.2888 C   0  0  0  0  0  0  0  0  0  0  0  0
    4.5701   -3.0873    5.2059 O   0  0  0  0  0  0  0  0  0  0  0  0
    3.4611   -2.4271    4.8155 C   0  0  0  0  0  0  0  0  0  0  0  0
    3.0156   -2.4117    3.6680 O   0  0  0  0  0  0  0  0  0  0  0  0
    2.7603   -1.6930    5.9841 C   0  0  1  0  0  0  0  0  0  0  0  0
    3.3191   -0.2645    6.0610 C   0  0  0  0  0  0  0  0  0  0  0  0
    4.7321   -0.1081    6.5846 C   0  0  0  0  0  0  0  0  0  0  0  0
    2.6698    0.7719    5.7163 N   0  0  0  0  0  0  0  0  0  0  0  0
    1.3701    0.7145    5.2007 C   0  0  0  0  0  0  0  0  0  0  0  0
    0.7643    1.9097    5.0349 C   0  0  0  0  0  0  0  0  0  0  0  0
   -0.6743    2.0858    4.5875 C   0  0  0  0  0  0  0  0  0  0  0  0
   -1.3383    0.7706    4.1330 C   0  0  0  0  0  0  0  0  0  0  0  0
   -0.8630   -0.4148    4.9675 C   0  0  0  0  0  0  0  0  0  0  0  0
   -1.6507   -1.0935    5.6352 O   0  0  0  0  0  0  0  0  0  0  0  0
    0.6670   -0.6359    4.9260 C   0  0  2  0  0  0  0  0  0  0  0  0
    1.1895   -1.6875    5.9450 C   0  0  1  0  0  0  0  0  0  0  0  0
    0.6211   -3.1057    5.7938 C   0  0  0  0  0  0  0  0  0  0  0  0
    0.6123   -3.9044    4.6762 C   0  0  0  0  0  0  0  0  0  0  0  0
    0.0764   -5.1282    5.0097 N   0  0  0  0  0  0  0  0  0  0  0  0
   -0.0930   -6.2606    4.1762 C   0  0  0  0  0  0  0  0  0  0  0  0
    0.7533   -6.4507    3.0599 C   0  0  0  0  0  0  0  0  0  0  0  0
    0.5873   -7.5624    2.2102 C   0  0  0  0  0  0  0  0  0  0  0  0
   -0.4256   -8.5039    2.4869 C   0  0  0  0  0  0  0  0  0  0  0  0
   -1.2708   -8.3221    3.5979 C   0  0  0  0  0  0  0  0  0  0  0  0
   -1.1065   -7.2087    4.4294 C   0  0  0  0  0  0  0  0  0  0  0  0
   -0.3473   -5.1154    6.2919 N   0  0  0  0  0  0  0  0  0  0  0  0
   -0.0174   -3.9259    6.7875 C   0  0  0  0  0  0  0  0  0  0  0  0
   -0.3155   -3.6404    8.2017 C   0  0  0  0  0  0  0  0  0  0  0  0
   -1.4187   -4.2612    8.8403 C   0  0  0  0  0  0  0  0  0  0  0  0
   -1.7159   -3.9917   10.1907 C   0  0  0  0  0  0  0  0  0  0  0  0
   -0.9384   -3.0625   10.9067 C   0  0  0  0  0  0  0  0  0  0  0  0
    0.1539   -2.4327   10.2785 C   0  0  0  0  0  0  0  0  0  0  0  0
    0.4848   -2.7429    8.9471 C   0  0  0  0  0  0  0  0  0  0  0  0
    6.7178   -5.5183    4.4176 H   0  0  0  0  0  0  0  0  0  0  0  0
    5.6068   -5.4438    5.7898 H   0  0  0  0  0  0  0  0  0  0  0  0
    6.9037   -4.2563    5.6457 H   0  0  0  0  0  0  0  0  0  0  0  0
    5.8009   -3.3291    3.5653 H   0  0  0  0  0  0  0  0  0  0  0  0
    4.5313   -4.5259    3.7295 H   0  0  0  0  0  0  0  0  0  0  0  0
    4.8151   -0.4857    7.6003 H   0  0  0  0  0  0  0  0  0  0  0  0
    5.0115    0.9458    6.5931 H   0  0  0  0  0  0  0  0  0  0  0  0
    5.4524   -0.6251    5.9527 H   0  0  0  0  0  0  0  0  0  0  0  0
    1.3000    2.8216    5.2674 H   0  0  0  0  0  0  0  0  0  0  0  0
    3.0588   -2.2099    6.9002 H   0  0  0  0  0  0  0  0  0  0  0  0
   -0.6866    2.8093    3.7694 H   0  0  0  0  0  0  0  0  0  0  0  0
   -1.2382    2.5248    5.4133 H   0  0  0  0  0  0  0  0  0  0  0  0
   -2.4228    0.8601    4.1461 H   0  0  0  0  0  0  0  0  0  0  0  0
   -1.0350    0.5601    3.1077 H   0  0  0  0  0  0  0  0  0  0  0  0
    0.9204   -0.9318    3.9067 H   0  0  0  0  0  0  0  0  0  0  0  0
    0.8639   -1.2841    6.8968 H   0  0  0  0  0  0  0  0  0  0  0  0
    0.9497   -3.7083    3.6651 H   0  0  0  0  0  0  0  0  0  0  0  0
    1.5436   -5.7437    2.8362 H   0  0  0  0  0  0  0  0  0  0  0  0
    1.2398   -7.7064    1.3600 H   0  0  0  0  0  0  0  0  0  0  0  0
   -0.5424   -9.3720    1.8538 H   0  0  0  0  0  0  0  0  0  0  0  0
   -2.0316   -9.0536    3.8117 H   0  0  0  0  0  0  0  0  0  0  0  0
   -1.7697   -7.0640    5.2705 H   0  0  0  0  0  0  0  0  0  0  0  0
   -2.0289   -4.9690    8.3013 H   0  0  0  0  0  0  0  0  0  0  0  0
   -2.5346   -4.5062   10.6701 H   0  0  0  0  0  0  0  0  0  0  0  0
   -1.1569   -2.8508   11.9381 H   0  0  0  0  0  0  0  0  0  0  0  0
    0.7570   -1.7237   10.8183 H   0  0  0  0  0  0  0  0  0  0  0  0
    1.3598   -2.2892    8.5082 H   0  0  0  0  0  0  0  0  0  0  0  0
  1  2  1  0
  1 35  1  0
  1 36  1  0
  1 37  1  0
  2  3  1  0
  2 38  1  0
  2 39  1  0
  3  4  1  0
  4  5  2  0
  4  6  1  0
  6 17  1  0
  6 44  1  1
  6  7  1  0
  7  8  1  0
  7  9  2  0
  8 40  1  0
  8 41  1  0
  8 42  1  0
  9 10  1  0
 10 16  1  0
 10 11  2  0
 11 12  1  0
 11 43  1  0
 12 13  1  0
 12 45  1  0
 12 46  1  0
 13 14  1  0
 13 47  1  0
 13 48  1  0
 14 15  2  0
 14 16  1  0
 16 17  1  0
 16 49  1  6
 17 18  1  0
 17 50  1  1
 18 28  1  0
 18 19  2  0
 19 20  1  0
 19 51  1  0
 20 21  1  0
 20 27  1  0
 21 26  1  0
 21 22  2  0
 22 23  1  0
 22 52  1  0
 23 24  2  0
 23 53  1  0
 24 25  1  0
 24 54  1  0
 25 26  2  0
 25 55  1  0
 26 56  1  0
 27 28  2  0
 28 29  1  0
 29 34  1  0
 29 30  2  0
 30 31  1  0
 30 57  1  0
 31 32  2  0
 31 58  1  0
 32 33  1  0
 32 59  1  0
 33 34  2  0
 33 60  1  0
 34 61  1  0
M  END
>  <i_m_ct_stereo_status>  (279) 
1

>  <s_m_source_file>  (279) 
/var/tmp/pbs.5076255.sched01/tmpoq50wh_d/842pmd5wfz.sdf

>  <i_m_source_file_index>  (279) 
21

>  <i_lp_mmshare_version>  (279) 
48012

>  <i_f3d_flags>  (279) 
0

>  <s_epik_input>  (279) 
W0NIM11bQ0gyXU9DKD1PKUMoPUMoTj0xKVtDSDNdKVtDQEBIXShbQ0BIXShDMTIpQyg9TylbQ0gyXVtDSDJdW0NIMl0yKWMzW2NIXW4oLWM0W2NIXVtjSF1bY0hdW2NIXVtjSF00KW5jMy1jNVtjSF1bY0hdW2NIXVtjSF1bY0hdNQ==

>  <s_epik_cmdline>  (279) 
J2VwaWtfcHl0aG9uJywgJy1waHQnLCAnMi4wJywgJy1waCcsICc3LjAnLCAnLXRuJywgJzgnLCAnLW1hJywgJzIwMCcsICctaW1hZScsICc8aW5maWxlLm1hZT4nLCAnLW9tYWUnLCAnPG91dGZpbGUubWFlPic=

>  <r_lp_tautomer_probability>  (279) 
0.499981

>  <r_epik_Ionization_Penalty>  (279) 
4.11468e-06

>  <r_epik_Ionization_Penalty_Charging>  (279) 
0

>  <r_epik_Ionization_Penalty_Neutral>  (279) 
4.11468e-06

>  <r_epik_State_Penalty>  (279) 
0.41068

>  <r_epik_Charging_Adjusted_Penalty>  (279) 
0.41068

>  <i_epik_Tot_Q>  (279) 
0

>  <i_epik_Tot_abs_Q>  (279) 
0

>  <s_epik_Chemistry_Notes>  (279) 
This compound has an ester and may undergo hydrolysis at high or low pH. This compound has an imine and may undergo hydrolysis.

>  <s_lp_Force_Field>  (279) 
OPLS3e

>  <r_lp_Energy>  (279) 
33.647

>  <b_lp_Chiralities_Consistent>  (279) 
1

>  <s_lp_Variant>  (279) 
79:0-2

>  <s_i_glide_gridfile>  (279) 
pfpi4k_grid

>  <i_i_glide_lignum>  (279) 
21

>  <i_i_glide_rotatable_bonds>  (279) 
6

>  <r_i_docking_score>  (279) 
-2.0746

>  <r_i_glide_ligand_efficiency>  (279) 
-0.0610177

>  <r_i_glide_ligand_efficiency_sa>  (279) 
-0.197674

>  <r_i_glide_ligand_efficiency_ln>  (279) 
-0.458338

>  <r_i_glide_gscore>  (279) 
-2.0746

>  <r_i_glide_lipo>  (279) 
-0.0218611

>  <r_i_glide_hbond>  (279) 
-0.00592994

>  <r_i_glide_metal>  (279) 
-0

>  <r_i_glide_rewards>  (279) 
-0.316825

>  <r_i_glide_evdw>  (279) 
-26.5661

>  <r_i_glide_ecoul>  (279) 
-5.65841

>  <r_i_glide_erotb>  (279) 
0.487961

>  <r_i_glide_esite>  (279) 
-0.0408788

>  <r_i_glide_emodel>  (279) 
-35.2515

>  <r_i_glide_energy>  (279) 
-32.2245

>  <r_i_glide_einternal>  (279) 
1.90164

>  <r_i_glide_intrahb_reward>  (279) 
-0

>  <i_i_glide_confnum>  (279) 
6

>  <i_i_glide_posenum>  (279) 
11

>  <r_i_glide_eff_state_penalty>  (279) 
0

>  <ligand_id>  (279) 
79

>  <original_smiles>  (279) 
CCOC(=O)C1=C(C)N=C2CCCC(=O)C2C1c1cn(-c2ccccc2)nc1-c1ccccc1

>  <smiles>  (279) 
[H]C1=C2N=C(C([H])([H])[H])C([H])(C(=O)OC([H])([H])C([H])([H])[H])C([H])(c3c(-c4c([H])c([H])c([H])c([H])c4[H])nn(-c4c([H])c([H])c([H])c([H])c4[H])c3[H])C2([H])C(=O)C([H])([H])C1([H])[H]

$$$$
79:2:0
     RDKit          3D

 61 65  0  0  1  0  0  0  0  0999 V2000
    7.1348   -5.3058    5.6981 C   0  0  0  0  0  0  0  0  0  0  0  0
    5.9291   -5.7977    6.4960 C   0  0  0  0  0  0  0  0  0  0  0  0
    4.7489   -5.3135    5.8717 O   0  0  0  0  0  0  0  0  0  0  0  0
    4.0717   -6.1107    5.0268 C   0  0  0  0  0  0  0  0  0  0  0  0
    4.4286   -7.2498    4.7277 O   0  0  0  0  0  0  0  0  0  0  0  0
    2.7887   -5.4749    4.4434 C   0  0  2  0  0  0  0  0  0  0  0  0
    1.6805   -5.3437    5.5242 C   0  0  0  0  0  0  0  0  0  0  0  0
    2.0286   -4.6134    6.8054 C   0  0  0  0  0  0  0  0  0  0  0  0
    0.4875   -5.7532    5.3837 N   0  0  0  0  0  0  0  0  0  0  0  0
    0.0657   -6.3462    4.2078 C   0  0  0  0  0  0  0  0  0  0  0  0
   -0.9875   -7.1905    4.2791 C   0  0  0  0  0  0  0  0  0  0  0  0
   -1.5504   -7.9501    3.0976 C   0  0  0  0  0  0  0  0  0  0  0  0
   -0.5048   -8.1167    1.9874 C   0  0  0  0  0  0  0  0  0  0  0  0
    0.2246   -6.8011    1.7053 C   0  0  0  0  0  0  0  0  0  0  0  0
    0.2881   -6.3393    0.5648 O   0  0  0  0  0  0  0  0  0  0  0  0
    0.8026   -6.0211    2.9105 C   0  0  2  0  0  0  0  0  0  0  0  0
    2.3226   -6.2117    3.1329 C   0  0  1  0  0  0  0  0  0  0  0  0
    3.1370   -5.7438    1.9323 C   0  0  0  0  0  0  0  0  0  0  0  0
    2.9523   -4.6273    1.1637 C   0  0  0  0  0  0  0  0  0  0  0  0
    3.9390   -4.5760    0.2014 N   0  0  0  0  0  0  0  0  0  0  0  0
    4.1543   -3.6095   -0.8185 C   0  0  0  0  0  0  0  0  0  0  0  0
    3.3440   -2.4563   -0.9030 C   0  0  0  0  0  0  0  0  0  0  0  0
    3.5227   -1.5103   -1.9309 C   0  0  0  0  0  0  0  0  0  0  0  0
    4.5422   -1.6988   -2.8797 C   0  0  0  0  0  0  0  0  0  0  0  0
    5.3733   -2.8366   -2.7995 C   0  0  0  0  0  0  0  0  0  0  0  0
    5.1698   -3.7749   -1.7815 C   0  0  0  0  0  0  0  0  0  0  0  0
    4.7571   -5.6401    0.3320 N   0  0  0  0  0  0  0  0  0  0  0  0
    4.2892   -6.3479    1.3415 C   0  0  0  0  0  0  0  0  0  0  0  0
    4.9785   -7.5741    1.7166 C   0  0  0  0  0  0  0  0  0  0  0  0
    6.3688   -7.5542    1.9450 C   0  0  0  0  0  0  0  0  0  0  0  0
    7.0420   -8.7145    2.3681 C   0  0  0  0  0  0  0  0  0  0  0  0
    6.3202   -9.9084    2.5545 C   0  0  0  0  0  0  0  0  0  0  0  0
    4.9328   -9.9397    2.3231 C   0  0  0  0  0  0  0  0  0  0  0  0
    4.2677   -8.7755    1.9019 C   0  0  0  0  0  0  0  0  0  0  0  0
    8.0636   -5.6467    6.1459 H   0  0  0  0  0  0  0  0  0  0  0  0
    7.1386   -4.2192    5.6814 H   0  0  0  0  0  0  0  0  0  0  0  0
    7.1056   -5.6579    4.6650 H   0  0  0  0  0  0  0  0  0  0  0  0
    5.9312   -6.8866    6.5664 H   0  0  0  0  0  0  0  0  0  0  0  0
    5.9571   -5.4291    7.5214 H   0  0  0  0  0  0  0  0  0  0  0  0
    2.3822   -3.6050    6.5817 H   0  0  0  0  0  0  0  0  0  0  0  0
    2.7862   -5.1381    7.3887 H   0  0  0  0  0  0  0  0  0  0  0  0
    1.1508   -4.5344    7.4447 H   0  0  0  0  0  0  0  0  0  0  0  0
   -1.4715   -7.3727    5.2281 H   0  0  0  0  0  0  0  0  0  0  0  0
    3.0315   -4.4516    4.1608 H   0  0  0  0  0  0  0  0  0  0  0  0
   -2.4377   -7.4285    2.7294 H   0  0  0  0  0  0  0  0  0  0  0  0
   -1.8843   -8.9336    3.4463 H   0  0  0  0  0  0  0  0  0  0  0  0
    0.2182   -8.8855    2.2761 H   0  0  0  0  0  0  0  0  0  0  0  0
   -0.9986   -8.4581    1.0868 H   0  0  0  0  0  0  0  0  0  0  0  0
    0.6259   -4.9605    2.7261 H   0  0  0  0  0  0  0  0  0  0  0  0
    2.4340   -7.2941    3.2619 H   0  0  0  0  0  0  0  0  0  0  0  0
    2.1820   -3.8744    1.2376 H   0  0  0  0  0  0  0  0  0  0  0  0
    2.5618   -2.2798   -0.1889 H   0  0  0  0  0  0  0  0  0  0  0  0
    2.8678   -0.6582   -1.9710 H   0  0  0  0  0  0  0  0  0  0  0  0
    4.6645   -0.9694   -3.6592 H   0  0  0  0  0  0  0  0  0  0  0  0
    6.1613   -3.0011   -3.5286 H   0  0  0  0  0  0  0  0  0  0  0  0
    5.8098   -4.6488   -1.7441 H   0  0  0  0  0  0  0  0  0  0  0  0
    6.9200   -6.6430    1.8148 H   0  0  0  0  0  0  0  0  0  0  0  0
    8.1014   -8.6702    2.5574 H   0  0  0  0  0  0  0  0  0  0  0  0
    6.8263  -10.7985    2.8861 H   0  0  0  0  0  0  0  0  0  0  0  0
    4.3770  -10.8537    2.4750 H   0  0  0  0  0  0  0  0  0  0  0  0
    3.2102   -8.8083    1.7256 H   0  0  0  0  0  0  0  0  0  0  0  0
  1  2  1  0
  1 35  1  0
  1 36  1  0
  1 37  1  0
  2  3  1  0
  2 38  1  0
  2 39  1  0
  3  4  1  0
  4  5  2  0
  4  6  1  0
  6 17  1  0
  6 44  1  6
  6  7  1  0
  7  8  1  0
  7  9  2  0
  8 40  1  0
  8 41  1  0
  8 42  1  0
  9 10  1  0
 10 16  1  0
 10 11  2  0
 11 12  1  0
 11 43  1  0
 12 13  1  0
 12 45  1  0
 12 46  1  0
 13 14  1  0
 13 47  1  0
 13 48  1  0
 14 15  2  0
 14 16  1  0
 16 17  1  0
 16 49  1  6
 17 18  1  0
 17 50  1  1
 18 28  1  0
 18 19  2  0
 19 20  1  0
 19 51  1  0
 20 21  1  0
 20 27  1  0
 21 26  1  0
 21 22  2  0
 22 23  1  0
 22 52  1  0
 23 24  2  0
 23 53  1  0
 24 25  1  0
 24 54  1  0
 25 26  2  0
 25 55  1  0
 26 56  1  0
 27 28  2  0
 28 29  1  0
 29 34  1  0
 29 30  2  0
 30 31  1  0
 30 57  1  0
 31 32  2  0
 31 58  1  0
 32 33  1  0
 32 59  1  0
 33 34  2  0
 33 60  1  0
 34 61  1  0
M  END
>  <i_m_ct_stereo_status>  (280) 
1

>  <s_m_source_file>  (280) 
/var/tmp/pbs.5076255.sched01/tmpoq50wh_d/842pmd5wfz.sdf

>  <i_m_source_file_index>  (280) 
22

>  <i_lp_mmshare_version>  (280) 
48012

>  <i_f3d_flags>  (280) 
0

>  <s_epik_input>  (280) 
W0NIM11bQ0gyXU9DKD1PKUMoPUMoTj0xKVtDSDNdKVtDQEBIXShbQ0BIXShDMTIpQyg9TylbQ0gyXVtDSDJdW0NIMl0yKWMzW2NIXW4oLWM0W2NIXVtjSF1bY0hdW2NIXVtjSF00KW5jMy1jNVtjSF1bY0hdW2NIXVtjSF1bY0hdNQ==

>  <s_epik_cmdline>  (280) 
J2VwaWtfcHl0aG9uJywgJy1waHQnLCAnMi4wJywgJy1waCcsICc3LjAnLCAnLXRuJywgJzgnLCAnLW1hJywgJzIwMCcsICctaW1hZScsICc8aW5maWxlLm1hZT4nLCAnLW9tYWUnLCAnPG91dGZpbGUubWFlPic=

>  <r_lp_tautomer_probability>  (280) 
0.499981

>  <r_epik_Ionization_Penalty>  (280) 
4.11468e-06

>  <r_epik_Ionization_Penalty_Charging>  (280) 
0

>  <r_epik_Ionization_Penalty_Neutral>  (280) 
4.11468e-06

>  <r_epik_State_Penalty>  (280) 
0.41068

>  <r_epik_Charging_Adjusted_Penalty>  (280) 
0.41068

>  <i_epik_Tot_Q>  (280) 
0

>  <i_epik_Tot_abs_Q>  (280) 
0

>  <s_epik_Chemistry_Notes>  (280) 
This compound has an ester and may undergo hydrolysis at high or low pH. This compound has an imine and may undergo hydrolysis.

>  <s_lp_Force_Field>  (280) 
OPLS3e

>  <r_lp_Energy>  (280) 
32.2478

>  <b_lp_Chiralities_Consistent>  (280) 
1

>  <s_lp_Variant>  (280) 
79:0-3

>  <s_i_glide_gridfile>  (280) 
pfpi4k_grid

>  <i_i_glide_lignum>  (280) 
22

>  <i_i_glide_rotatable_bonds>  (280) 
6

>  <r_i_docking_score>  (280) 
-2.91778

>  <r_i_glide_ligand_efficiency>  (280) 
-0.0858172

>  <r_i_glide_ligand_efficiency_sa>  (280) 
-0.278014

>  <r_i_glide_ligand_efficiency_ln>  (280) 
-0.64462

>  <r_i_glide_gscore>  (280) 
-2.91778

>  <r_i_glide_lipo>  (280) 
-0.477778

>  <r_i_glide_hbond>  (280) 
-0.203087

>  <r_i_glide_metal>  (280) 
-0

>  <r_i_glide_rewards>  (280) 
-0.316825

>  <r_i_glide_evdw>  (280) 
-32.029

>  <r_i_glide_ecoul>  (280) 
-4.68972

>  <r_i_glide_erotb>  (280) 
0.487961

>  <r_i_glide_esite>  (280) 
-0.103145

>  <r_i_glide_emodel>  (280) 
-42.4913

>  <r_i_glide_energy>  (280) 
-36.7188

>  <r_i_glide_einternal>  (280) 
1.83087

>  <r_i_glide_intrahb_reward>  (280) 
-0

>  <i_i_glide_confnum>  (280) 
3

>  <i_i_glide_posenum>  (280) 
20

>  <r_i_glide_eff_state_penalty>  (280) 
0

>  <ligand_id>  (280) 
79

>  <original_smiles>  (280) 
CCOC(=O)C1=C(C)N=C2CCCC(=O)C2C1c1cn(-c2ccccc2)nc1-c1ccccc1

>  <smiles>  (280) 
[H]C1=C2N=C(C([H])([H])[H])C([H])(C(=O)OC([H])([H])C([H])([H])[H])C([H])(c3c(-c4c([H])c([H])c([H])c([H])c4[H])nn(-c4c([H])c([H])c([H])c([H])c4[H])c3[H])C2([H])C(=O)C([H])([H])C1([H])[H]

$$$$
79:2:1
     RDKit          3D

 61 65  0  0  1  0  0  0  0  0999 V2000
    5.1283   -1.3482    5.4656 C   0  0  0  0  0  0  0  0  0  0  0  0
    5.4155   -0.7088    4.0917 C   0  0  0  0  0  0  0  0  0  0  0  0
    5.3879   -1.7150    3.0881 O   0  0  0  0  0  0  0  0  0  0  0  0
    5.5675   -1.4006    1.7893 C   0  0  0  0  0  0  0  0  0  0  0  0
    5.8006   -0.2704    1.3565 O   0  0  0  0  0  0  0  0  0  0  0  0
    5.3870   -2.6259    0.8609 C   0  0  2  0  0  0  0  0  0  0  0  0
    6.4383   -2.6417   -0.2774 C   0  0  0  0  0  0  0  0  0  0  0  0
    7.8950   -2.6130    0.1333 C   0  0  0  0  0  0  0  0  0  0  0  0
    6.1668   -2.7237   -1.5210 N   0  0  0  0  0  0  0  0  0  0  0  0
    4.8611   -2.8852   -1.9634 C   0  0  0  0  0  0  0  0  0  0  0  0
    4.5880   -2.5063   -3.2270 C   0  0  0  0  0  0  0  0  0  0  0  0
    3.2057   -2.5438   -3.8454 C   0  0  0  0  0  0  0  0  0  0  0  0
    2.1249   -2.4889   -2.7660 C   0  0  0  0  0  0  0  0  0  0  0  0
    2.3848   -3.4490   -1.6016 C   0  0  0  0  0  0  0  0  0  0  0  0
    1.4951   -4.1817   -1.1697 O   0  0  0  0  0  0  0  0  0  0  0  0
    3.8080   -3.4621   -0.9960 C   0  0  2  0  0  0  0  0  0  0  0  0
    3.9124   -2.6904    0.3471 C   0  0  1  0  0  0  0  0  0  0  0  0
    2.9946   -3.2486    1.4329 C   0  0  0  0  0  0  0  0  0  0  0  0
    2.6709   -4.5652    1.6314 C   0  0  0  0  0  0  0  0  0  0  0  0
    1.8369   -4.6582    2.7271 N   0  0  0  0  0  0  0  0  0  0  0  0
    1.2211   -5.8063    3.2862 C   0  0  0  0  0  0  0  0  0  0  0  0
    1.0687   -6.9859    2.5239 C   0  0  0  0  0  0  0  0  0  0  0  0
    0.4724   -8.1270    3.0818 C   0  0  0  0  0  0  0  0  0  0  0  0
    0.0115   -8.1015    4.4087 C   0  0  0  0  0  0  0  0  0  0  0  0
    0.1494   -6.9328    5.1781 C   0  0  0  0  0  0  0  0  0  0  0  0
    0.7438   -5.7898    4.6194 C   0  0  0  0  0  0  0  0  0  0  0  0
    1.6313   -3.4323    3.2524 N   0  0  0  0  0  0  0  0  0  0  0  0
    2.2767   -2.5711    2.4721 C   0  0  0  0  0  0  0  0  0  0  0  0
    2.1829   -1.1294    2.7900 C   0  0  0  0  0  0  0  0  0  0  0  0
    2.1309   -0.6993    4.1387 C   0  0  0  0  0  0  0  0  0  0  0  0
    2.1852    0.6715    4.4592 C   0  0  0  0  0  0  0  0  0  0  0  0
    2.2181    1.6345    3.4320 C   0  0  0  0  0  0  0  0  0  0  0  0
    2.1964    1.2218    2.0882 C   0  0  0  0  0  0  0  0  0  0  0  0
    2.1931   -0.1464    1.7750 C   0  0  0  0  0  0  0  0  0  0  0  0
    5.0813   -0.5860    6.2457 H   0  0  0  0  0  0  0  0  0  0  0  0
    5.9110   -2.0596    5.7344 H   0  0  0  0  0  0  0  0  0  0  0  0
    4.1821   -1.8953    5.4840 H   0  0  0  0  0  0  0  0  0  0  0  0
    4.6863    0.0650    3.8541 H   0  0  0  0  0  0  0  0  0  0  0  0
    6.3850   -0.2126    4.0919 H   0  0  0  0  0  0  0  0  0  0  0  0
    8.1128   -3.4514    0.7903 H   0  0  0  0  0  0  0  0  0  0  0  0
    8.1513   -1.6869    0.6423 H   0  0  0  0  0  0  0  0  0  0  0  0
    8.5343   -2.6998   -0.7401 H   0  0  0  0  0  0  0  0  0  0  0  0
    5.3834   -2.1345   -3.8560 H   0  0  0  0  0  0  0  0  0  0  0  0
    5.5829   -3.5242    1.4496 H   0  0  0  0  0  0  0  0  0  0  0  0
    3.1073   -3.4419   -4.4516 H   0  0  0  0  0  0  0  0  0  0  0  0
    3.0914   -1.6782   -4.4985 H   0  0  0  0  0  0  0  0  0  0  0  0
    2.1321   -1.4861   -2.3442 H   0  0  0  0  0  0  0  0  0  0  0  0
    1.1486   -2.6846   -3.2033 H   0  0  0  0  0  0  0  0  0  0  0  0
    4.0845   -4.5102   -0.8338 H   0  0  0  0  0  0  0  0  0  0  0  0
    3.6368   -1.6714    0.0805 H   0  0  0  0  0  0  0  0  0  0  0  0
    2.9502   -5.4378    1.0587 H   0  0  0  0  0  0  0  0  0  0  0  0
    1.4182   -7.0246    1.5066 H   0  0  0  0  0  0  0  0  0  0  0  0
    0.3770   -9.0203    2.4895 H   0  0  0  0  0  0  0  0  0  0  0  0
   -0.4373   -8.9793    4.8349 H   0  0  0  0  0  0  0  0  0  0  0  0
   -0.1872   -6.9120    6.2015 H   0  0  0  0  0  0  0  0  0  0  0  0
    0.8512   -4.9013    5.2203 H   0  0  0  0  0  0  0  0  0  0  0  0
    2.1016   -1.4322    4.9303 H   0  0  0  0  0  0  0  0  0  0  0  0
    2.2320    0.9794    5.4913 H   0  0  0  0  0  0  0  0  0  0  0  0
    2.2677    2.6848    3.6612 H   0  0  0  0  0  0  0  0  0  0  0  0
    2.2066    1.9463    1.2916 H   0  0  0  0  0  0  0  0  0  0  0  0
    2.2071   -0.4218    0.7341 H   0  0  0  0  0  0  0  0  0  0  0  0
  1  2  1  0
  1 35  1  0
  1 36  1  0
  1 37  1  0
  2  3  1  0
  2 38  1  0
  2 39  1  0
  3  4  1  0
  4  5  2  0
  4  6  1  0
  6 17  1  0
  6 44  1  1
  6  7  1  0
  7  8  1  0
  7  9  2  0
  8 40  1  0
  8 41  1  0
  8 42  1  0
  9 10  1  0
 10 16  1  0
 10 11  2  0
 11 12  1  0
 11 43  1  0
 12 13  1  0
 12 45  1  0
 12 46  1  0
 13 14  1  0
 13 47  1  0
 13 48  1  0
 14 15  2  0
 14 16  1  0
 16 17  1  0
 16 49  1  1
 17 18  1  0
 17 50  1  6
 18 28  1  0
 18 19  2  0
 19 20  1  0
 19 51  1  0
 20 21  1  0
 20 27  1  0
 21 26  1  0
 21 22  2  0
 22 23  1  0
 22 52  1  0
 23 24  2  0
 23 53  1  0
 24 25  1  0
 24 54  1  0
 25 26  2  0
 25 55  1  0
 26 56  1  0
 27 28  2  0
 28 29  1  0
 29 34  1  0
 29 30  2  0
 30 31  1  0
 30 57  1  0
 31 32  2  0
 31 58  1  0
 32 33  1  0
 32 59  1  0
 33 34  2  0
 33 60  1  0
 34 61  1  0
M  END
>  <i_m_ct_stereo_status>  (281) 
1

>  <s_m_source_file>  (281) 
/var/tmp/pbs.5076255.sched01/tmpoq50wh_d/842pmd5wfz.sdf

>  <i_m_source_file_index>  (281) 
22

>  <i_lp_mmshare_version>  (281) 
48012

>  <i_f3d_flags>  (281) 
0

>  <s_epik_input>  (281) 
W0NIM11bQ0gyXU9DKD1PKUMoPUMoTj0xKVtDSDNdKVtDQEBIXShbQ0BIXShDMTIpQyg9TylbQ0gyXVtDSDJdW0NIMl0yKWMzW2NIXW4oLWM0W2NIXVtjSF1bY0hdW2NIXVtjSF00KW5jMy1jNVtjSF1bY0hdW2NIXVtjSF1bY0hdNQ==

>  <s_epik_cmdline>  (281) 
J2VwaWtfcHl0aG9uJywgJy1waHQnLCAnMi4wJywgJy1waCcsICc3LjAnLCAnLXRuJywgJzgnLCAnLW1hJywgJzIwMCcsICctaW1hZScsICc8aW5maWxlLm1hZT4nLCAnLW9tYWUnLCAnPG91dGZpbGUubWFlPic=

>  <r_lp_tautomer_probability>  (281) 
0.499981

>  <r_epik_Ionization_Penalty>  (281) 
4.11468e-06

>  <r_epik_Ionization_Penalty_Charging>  (281) 
0

>  <r_epik_Ionization_Penalty_Neutral>  (281) 
4.11468e-06

>  <r_epik_State_Penalty>  (281) 
0.41068

>  <r_epik_Charging_Adjusted_Penalty>  (281) 
0.41068

>  <i_epik_Tot_Q>  (281) 
0

>  <i_epik_Tot_abs_Q>  (281) 
0

>  <s_epik_Chemistry_Notes>  (281) 
This compound has an ester and may undergo hydrolysis at high or low pH. This compound has an imine and may undergo hydrolysis.

>  <s_lp_Force_Field>  (281) 
OPLS3e

>  <r_lp_Energy>  (281) 
32.2478

>  <b_lp_Chiralities_Consistent>  (281) 
1

>  <s_lp_Variant>  (281) 
79:0-3

>  <s_i_glide_gridfile>  (281) 
pfpi4k_grid

>  <i_i_glide_lignum>  (281) 
22

>  <i_i_glide_rotatable_bonds>  (281) 
6

>  <r_i_docking_score>  (281) 
-2.83736

>  <r_i_glide_ligand_efficiency>  (281) 
-0.0834517

>  <r_i_glide_ligand_efficiency_sa>  (281) 
-0.270351

>  <r_i_glide_ligand_efficiency_ln>  (281) 
-0.626852

>  <r_i_glide_gscore>  (281) 
-2.83736

>  <r_i_glide_lipo>  (281) 
-0.596388

>  <r_i_glide_hbond>  (281) 
-0.258026

>  <r_i_glide_metal>  (281) 
-0

>  <r_i_glide_rewards>  (281) 
-0.678047

>  <r_i_glide_evdw>  (281) 
-34.0963

>  <r_i_glide_ecoul>  (281) 
-0.504309

>  <r_i_glide_erotb>  (281) 
0.487961

>  <r_i_glide_esite>  (281) 
-0.0123942

>  <r_i_glide_emodel>  (281) 
-40.004

>  <r_i_glide_energy>  (281) 
-34.6006

>  <r_i_glide_einternal>  (281) 
2.11312

>  <r_i_glide_intrahb_reward>  (281) 
-0

>  <i_i_glide_confnum>  (281) 
4

>  <i_i_glide_posenum>  (281) 
18

>  <r_i_glide_eff_state_penalty>  (281) 
0

>  <ligand_id>  (281) 
79

>  <original_smiles>  (281) 
CCOC(=O)C1=C(C)N=C2CCCC(=O)C2C1c1cn(-c2ccccc2)nc1-c1ccccc1

>  <smiles>  (281) 
[H]C1=C2N=C(C([H])([H])[H])C([H])(C(=O)OC([H])([H])C([H])([H])[H])C([H])(c3c(-c4c([H])c([H])c([H])c([H])c4[H])nn(-c4c([H])c([H])c([H])c([H])c4[H])c3[H])C2([H])C(=O)C([H])([H])C1([H])[H]

$$$$
79:2:2
     RDKit          3D

 61 65  0  0  1  0  0  0  0  0999 V2000
    5.8912   -4.5464    6.0461 C   0  0  0  0  0  0  0  0  0  0  0  0
    4.7863   -4.0905    7.0130 C   0  0  0  0  0  0  0  0  0  0  0  0
    3.4893   -4.3846    6.5049 O   0  0  0  0  0  0  0  0  0  0  0  0
    2.9313   -5.5910    6.7168 C   0  0  0  0  0  0  0  0  0  0  0  0
    3.4373   -6.4791    7.4098 O   0  0  0  0  0  0  0  0  0  0  0  0
    1.5935   -5.7639    5.9625 C   0  0  2  0  0  0  0  0  0  0  0  0
    0.7012   -6.8571    6.6043 C   0  0  0  0  0  0  0  0  0  0  0  0
    0.3365   -6.6636    8.0629 C   0  0  0  0  0  0  0  0  0  0  0  0
    0.2181   -7.8474    5.9768 N   0  0  0  0  0  0  0  0  0  0  0  0
    0.3438   -7.9928    4.5984 C   0  0  0  0  0  0  0  0  0  0  0  0
    0.2109   -9.2335    4.0857 C   0  0  0  0  0  0  0  0  0  0  0  0
    0.4122   -9.5932    2.6222 C   0  0  0  0  0  0  0  0  0  0  0  0
    1.2948   -8.5495    1.9382 C   0  0  0  0  0  0  0  0  0  0  0  0
    0.8333   -7.1136    2.2741 C   0  0  0  0  0  0  0  0  0  0  0  0
    0.6027   -6.2866    1.3877 O   0  0  0  0  0  0  0  0  0  0  0  0
    0.6662   -6.7326    3.7712 C   0  0  2  0  0  0  0  0  0  0  0  0
    1.8593   -5.9904    4.4343 C   0  0  1  0  0  0  0  0  0  0  0  0
    2.1973   -4.6865    3.7175 C   0  0  0  0  0  0  0  0  0  0  0  0
    1.5201   -3.5162    3.8137 C   0  0  0  0  0  0  0  0  0  0  0  0
    2.1817   -2.5569    3.0739 N   0  0  0  0  0  0  0  0  0  0  0  0
    1.8669   -1.1723    2.8896 C   0  0  0  0  0  0  0  0  0  0  0  0
    0.6121   -0.6646    3.2759 C   0  0  0  0  0  0  0  0  0  0  0  0
    0.2801    0.6911    3.0672 C   0  0  0  0  0  0  0  0  0  0  0  0
    1.2177    1.5559    2.4864 C   0  0  0  0  0  0  0  0  0  0  0  0
    2.4831    1.0771    2.1208 C   0  0  0  0  0  0  0  0  0  0  0  0
    2.8105   -0.2840    2.3135 C   0  0  0  0  0  0  0  0  0  0  0  0
    3.2765   -3.1045    2.4999 N   0  0  0  0  0  0  0  0  0  0  0  0
    3.3225   -4.3670    2.8738 C   0  0  0  0  0  0  0  0  0  0  0  0
    4.4462   -5.2067    2.3868 C   0  0  0  0  0  0  0  0  0  0  0  0
    5.7196   -4.6739    2.0709 C   0  0  0  0  0  0  0  0  0  0  0  0
    6.7632   -5.5301    1.6107 C   0  0  0  0  0  0  0  0  0  0  0  0
    6.5363   -6.9237    1.4453 C   0  0  0  0  0  0  0  0  0  0  0  0
    5.2711   -7.4407    1.7384 C   0  0  0  0  0  0  0  0  0  0  0  0
    4.2715   -6.5930    2.2212 C   0  0  0  0  0  0  0  0  0  0  0  0
    6.8770   -4.3203    6.4493 H   0  0  0  0  0  0  0  0  0  0  0  0
    5.8088   -4.0414    5.0852 H   0  0  0  0  0  0  0  0  0  0  0  0
    5.8538   -5.6201    5.8640 H   0  0  0  0  0  0  0  0  0  0  0  0
    4.9308   -4.5285    8.0019 H   0  0  0  0  0  0  0  0  0  0  0  0
    4.8503   -3.0120    7.1469 H   0  0  0  0  0  0  0  0  0  0  0  0
   -0.1642   -5.7118    8.2181 H   0  0  0  0  0  0  0  0  0  0  0  0
    1.2043   -6.7273    8.7102 H   0  0  0  0  0  0  0  0  0  0  0  0
   -0.3430   -7.4536    8.3644 H   0  0  0  0  0  0  0  0  0  0  0  0
   -0.0303  -10.0720    4.7414 H   0  0  0  0  0  0  0  0  0  0  0  0
    1.0321   -4.8408    6.0919 H   0  0  0  0  0  0  0  0  0  0  0  0
   -0.5603   -9.6767    2.1382 H   0  0  0  0  0  0  0  0  0  0  0  0
    0.9053  -10.5685    2.5763 H   0  0  0  0  0  0  0  0  0  0  0  0
    2.2906   -8.7583    2.3268 H   0  0  0  0  0  0  0  0  0  0  0  0
    1.3781   -8.6955    0.8625 H   0  0  0  0  0  0  0  0  0  0  0  0
   -0.2203   -6.0933    3.8293 H   0  0  0  0  0  0  0  0  0  0  0  0
    2.7136   -6.6608    4.4287 H   0  0  0  0  0  0  0  0  0  0  0  0
    0.6274   -3.2783    4.3888 H   0  0  0  0  0  0  0  0  0  0  0  0
   -0.1316   -1.3167    3.6980 H   0  0  0  0  0  0  0  0  0  0  0  0
   -0.7028    1.0432    3.3423 H   0  0  0  0  0  0  0  0  0  0  0  0
    0.9579    2.5930    2.3098 H   0  0  0  0  0  0  0  0  0  0  0  0
    3.2106    1.7441    1.6747 H   0  0  0  0  0  0  0  0  0  0  0  0
    3.7855   -0.6325    2.0116 H   0  0  0  0  0  0  0  0  0  0  0  0
    5.8999   -3.6091    2.1984 H   0  0  0  0  0  0  0  0  0  0  0  0
    7.7427   -5.1151    1.3965 H   0  0  0  0  0  0  0  0  0  0  0  0
    7.3242   -7.5900    1.1108 H   0  0  0  0  0  0  0  0  0  0  0  0
    5.0396   -8.4944    1.6280 H   0  0  0  0  0  0  0  0  0  0  0  0
    3.3297   -7.0346    2.4761 H   0  0  0  0  0  0  0  0  0  0  0  0
  1  2  1  0
  1 35  1  0
  1 36  1  0
  1 37  1  0
  2  3  1  0
  2 38  1  0
  2 39  1  0
  3  4  1  0
  4  5  2  0
  4  6  1  0
  6 17  1  0
  6 44  1  6
  6  7  1  0
  7  8  1  0
  7  9  2  0
  8 40  1  0
  8 41  1  0
  8 42  1  0
  9 10  1  0
 10 16  1  0
 10 11  2  0
 11 12  1  0
 11 43  1  0
 12 13  1  0
 12 45  1  0
 12 46  1  0
 13 14  1  0
 13 47  1  0
 13 48  1  0
 14 15  2  0
 14 16  1  0
 16 17  1  0
 16 49  1  6
 17 18  1  0
 17 50  1  1
 18 28  1  0
 18 19  2  0
 19 20  1  0
 19 51  1  0
 20 21  1  0
 20 27  1  0
 21 26  1  0
 21 22  2  0
 22 23  1  0
 22 52  1  0
 23 24  2  0
 23 53  1  0
 24 25  1  0
 24 54  1  0
 25 26  2  0
 25 55  1  0
 26 56  1  0
 27 28  2  0
 28 29  1  0
 29 34  1  0
 29 30  2  0
 30 31  1  0
 30 57  1  0
 31 32  2  0
 31 58  1  0
 32 33  1  0
 32 59  1  0
 33 34  2  0
 33 60  1  0
 34 61  1  0
M  END
>  <i_m_ct_stereo_status>  (282) 
1

>  <s_m_source_file>  (282) 
/var/tmp/pbs.5076255.sched01/tmpoq50wh_d/842pmd5wfz.sdf

>  <i_m_source_file_index>  (282) 
22

>  <i_lp_mmshare_version>  (282) 
48012

>  <i_f3d_flags>  (282) 
0

>  <s_epik_input>  (282) 
W0NIM11bQ0gyXU9DKD1PKUMoPUMoTj0xKVtDSDNdKVtDQEBIXShbQ0BIXShDMTIpQyg9TylbQ0gyXVtDSDJdW0NIMl0yKWMzW2NIXW4oLWM0W2NIXVtjSF1bY0hdW2NIXVtjSF00KW5jMy1jNVtjSF1bY0hdW2NIXVtjSF1bY0hdNQ==

>  <s_epik_cmdline>  (282) 
J2VwaWtfcHl0aG9uJywgJy1waHQnLCAnMi4wJywgJy1waCcsICc3LjAnLCAnLXRuJywgJzgnLCAnLW1hJywgJzIwMCcsICctaW1hZScsICc8aW5maWxlLm1hZT4nLCAnLW9tYWUnLCAnPG91dGZpbGUubWFlPic=

>  <r_lp_tautomer_probability>  (282) 
0.499981

>  <r_epik_Ionization_Penalty>  (282) 
4.11468e-06

>  <r_epik_Ionization_Penalty_Charging>  (282) 
0

>  <r_epik_Ionization_Penalty_Neutral>  (282) 
4.11468e-06

>  <r_epik_State_Penalty>  (282) 
0.41068

>  <r_epik_Charging_Adjusted_Penalty>  (282) 
0.41068

>  <i_epik_Tot_Q>  (282) 
0

>  <i_epik_Tot_abs_Q>  (282) 
0

>  <s_epik_Chemistry_Notes>  (282) 
This compound has an ester and may undergo hydrolysis at high or low pH. This compound has an imine and may undergo hydrolysis.

>  <s_lp_Force_Field>  (282) 
OPLS3e

>  <r_lp_Energy>  (282) 
32.2478

>  <b_lp_Chiralities_Consistent>  (282) 
1

>  <s_lp_Variant>  (282) 
79:0-3

>  <s_i_glide_gridfile>  (282) 
pfpi4k_grid

>  <i_i_glide_lignum>  (282) 
22

>  <i_i_glide_rotatable_bonds>  (282) 
6

>  <r_i_docking_score>  (282) 
-2.28153

>  <r_i_glide_ligand_efficiency>  (282) 
-0.0671037

>  <r_i_glide_ligand_efficiency_sa>  (282) 
-0.21739

>  <r_i_glide_ligand_efficiency_ln>  (282) 
-0.504053

>  <r_i_glide_gscore>  (282) 
-2.28153

>  <r_i_glide_lipo>  (282) 
-0.310381

>  <r_i_glide_hbond>  (282) 
-0.16

>  <r_i_glide_metal>  (282) 
-0

>  <r_i_glide_rewards>  (282) 
-0.316825

>  <r_i_glide_evdw>  (282) 
-27.9335

>  <r_i_glide_ecoul>  (282) 
-3.51386

>  <r_i_glide_erotb>  (282) 
0.487961

>  <r_i_glide_esite>  (282) 
-0.0585252

>  <r_i_glide_emodel>  (282) 
-35.5968

>  <r_i_glide_energy>  (282) 
-31.4474

>  <r_i_glide_einternal>  (282) 
0.716129

>  <r_i_glide_intrahb_reward>  (282) 
-0

>  <i_i_glide_confnum>  (282) 
4

>  <i_i_glide_posenum>  (282) 
6

>  <r_i_glide_eff_state_penalty>  (282) 
0

>  <ligand_id>  (282) 
79

>  <original_smiles>  (282) 
CCOC(=O)C1=C(C)N=C2CCCC(=O)C2C1c1cn(-c2ccccc2)nc1-c1ccccc1

>  <smiles>  (282) 
[H]C1=C2N=C(C([H])([H])[H])C([H])(C(=O)OC([H])([H])C([H])([H])[H])C([H])(c3c(-c4c([H])c([H])c([H])c([H])c4[H])nn(-c4c([H])c([H])c([H])c([H])c4[H])c3[H])C2([H])C(=O)C([H])([H])C1([H])[H]

$$$$
80:0:0
     RDKit          3D

 43 46  0  0  1  0  0  0  0  0999 V2000
    4.5941   -6.0564    3.4675 C   0  0  0  0  0  0  0  0  0  0  0  0
    3.9211   -4.7113    3.2374 C   0  0  0  0  0  0  0  0  0  0  0  0
    2.8056   -4.4649    2.5390 C   0  0  0  0  0  0  0  0  0  0  0  0
    2.6180   -5.0560    1.2087 C   0  0  0  0  0  0  0  0  0  0  0  0
    1.6480   -5.7552    0.9211 O   0  0  0  0  0  0  0  0  0  0  0  0
    3.6690   -4.7028    0.1202 C   0  0  2  0  0  0  0  0  0  0  0  0
    5.0055   -5.4727    0.2733 C   0  0  0  0  0  0  0  0  0  0  0  0
    5.9789   -4.9638    1.1719 O   0  0  0  0  0  0  0  0  0  0  0  0
    6.2439   -3.5718    1.2938 C   0  0  1  0  0  0  0  0  0  0  0  0
    6.2508   -2.6813    0.0197 C   0  0  1  0  0  0  0  0  0  0  0  0
    5.1698   -2.9886   -1.0452 C   0  0  0  0  0  0  0  0  0  0  0  0
    3.7662   -3.2093   -0.4203 C   0  0  1  0  0  0  0  0  0  0  0  0
    2.7323   -3.0669   -1.5652 C   0  0  0  0  0  0  0  0  0  0  0  0
    3.5508   -1.9945    0.5625 C   0  0  1  0  0  0  0  0  0  0  0  0
    2.2455   -1.8551    1.0780 O   0  0  0  0  0  0  0  0  0  0  0  0
    4.7292   -1.6407    1.5430 C   0  0  2  0  0  0  0  0  0  0  0  0
    4.3898   -0.4371    2.4481 C   0  0  0  0  0  0  0  0  0  0  0  0
    5.9143   -1.3061    0.6132 C   0  0  0  0  0  0  0  0  0  0  0  0
    5.4113   -2.7830    2.3415 C   0  0  1  0  0  0  0  0  0  0  0  0
    4.7258   -3.5213    3.5282 C   0  0  0  0  0  0  0  0  0  0  0  0
    4.9182   -3.1182    4.6747 O   0  0  0  0  0  0  0  0  0  0  0  0
    5.6768   -6.0105    3.3571 H   0  0  0  0  0  0  0  0  0  0  0  0
    4.2050   -6.8385    2.8182 H   0  0  0  0  0  0  0  0  0  0  0  0
    4.3999   -6.3625    4.4936 H   0  0  0  0  0  0  0  0  0  0  0  0
    2.3988   -3.4811    2.6282 H   0  0  0  0  0  0  0  0  0  0  0  0
    3.2428   -5.2420   -0.7172 H   0  0  0  0  0  0  0  0  0  0  0  0
    4.7916   -6.4861    0.6095 H   0  0  0  0  0  0  0  0  0  0  0  0
    5.4725   -5.6365   -0.6931 H   0  0  0  0  0  0  0  0  0  0  0  0
    7.2660   -3.5505    1.6763 H   0  0  0  0  0  0  0  0  0  0  0  0
    7.2349   -2.6785   -0.4521 H   0  0  0  0  0  0  0  0  0  0  0  0
    5.1267   -2.1410   -1.7265 H   0  0  0  0  0  0  0  0  0  0  0  0
    5.4661   -3.8091   -1.6949 H   0  0  0  0  0  0  0  0  0  0  0  0
    2.7570   -2.0720   -2.0110 H   0  0  0  0  0  0  0  0  0  0  0  0
    1.7149   -3.2360   -1.2122 H   0  0  0  0  0  0  0  0  0  0  0  0
    2.9186   -3.7812   -2.3688 H   0  0  0  0  0  0  0  0  0  0  0  0
    3.5343   -1.1236   -0.0936 H   0  0  0  0  0  0  0  0  0  0  0  0
    1.6955   -1.4717    0.3827 H   0  0  0  0  0  0  0  0  0  0  0  0
    5.2601   -0.1047    3.0191 H   0  0  0  0  0  0  0  0  0  0  0  0
    3.6101   -0.6931    3.1665 H   0  0  0  0  0  0  0  0  0  0  0  0
    4.0359    0.4125    1.8633 H   0  0  0  0  0  0  0  0  0  0  0  0
    6.7658   -0.9178    1.1769 H   0  0  0  0  0  0  0  0  0  0  0  0
    5.6774   -0.5555   -0.1411 H   0  0  0  0  0  0  0  0  0  0  0  0
    6.1882   -2.2498    2.8914 H   0  0  0  0  0  0  0  0  0  0  0  0
  1  2  1  0
  1 22  1  0
  1 23  1  0
  1 24  1  0
  2 20  1  0
  2  3  2  3
  3  4  1  0
  3 25  1  0
  4  5  2  0
  4  6  1  0
  6 12  1  0
  6  7  1  0
  6 26  1  6
  7  8  1  0
  7 27  1  0
  7 28  1  0
  8  9  1  0
  9 19  1  0
  9 10  1  0
  9 29  1  1
 10 18  1  0
 10 11  1  0
 10 30  1  6
 11 12  1  0
 11 31  1  0
 11 32  1  0
 12 13  1  6
 12 14  1  0
 13 33  1  0
 13 34  1  0
 13 35  1  0
 14 15  1  0
 14 16  1  0
 14 36  1  6
 15 37  1  0
 16 17  1  1
 16 18  1  0
 16 19  1  0
 17 38  1  0
 17 39  1  0
 17 40  1  0
 18 41  1  0
 18 42  1  0
 19 20  1  0
 19 43  1  1
 20 21  2  0
M  END
>  <i_m_ct_stereo_status>  (283) 
1

>  <s_m_source_file>  (283) 
/var/tmp/pbs.5076255.sched01/tmpoq50wh_d/842pmd5wfz.sdf

>  <i_m_source_file_index>  (283) 
23

>  <i_lp_mmshare_version>  (283) 
48012

>  <i_f3d_flags>  (283) 
0

>  <s_epik_input>  (283) 
W0NIM11bQ0BAXTEyW0NAQEhdM0MoPU8pXFtDSF09QyhcW0NIM10pQyg9TylbQ0BIXTRbQ0BASF0oT1tDSDJdMylbQ0BASF0oW0NIMl0xKVtDSDJdW0NAQF00KFtDSDNdKVtDQEBIXTJbT0hd

>  <s_epik_cmdline>  (283) 
J2VwaWtfcHl0aG9uJywgJy1waHQnLCAnMi4wJywgJy1waCcsICc3LjAnLCAnLXRuJywgJzgnLCAnLW1hJywgJzIwMCcsICctaW1hZScsICc8aW5maWxlLm1hZT4nLCAnLW9tYWUnLCAnPG91dGZpbGUubWFlPic=

>  <r_lp_tautomer_probability>  (283) 
1

>  <r_epik_Ionization_Penalty>  (283) 
4.42521e-08

>  <r_epik_Ionization_Penalty_Charging>  (283) 
0

>  <r_epik_Ionization_Penalty_Neutral>  (283) 
4.42521e-08

>  <r_epik_State_Penalty>  (283) 
-0

>  <r_epik_Charging_Adjusted_Penalty>  (283) 
0

>  <i_epik_Tot_Q>  (283) 
0

>  <i_epik_Tot_abs_Q>  (283) 
0

>  <s_lp_Force_Field>  (283) 
OPLS3e

>  <r_lp_Energy>  (283) 
94.8563

>  <b_lp_Chiralities_Consistent>  (283) 
1

>  <s_lp_Variant>  (283) 
80:0-1

>  <s_i_glide_gridfile>  (283) 
pfpi4k_grid

>  <i_i_glide_lignum>  (283) 
23

>  <i_i_glide_rotatable_bonds>  (283) 
1

>  <r_i_docking_score>  (283) 
-4.374

>  <r_i_glide_ligand_efficiency>  (283) 
-0.208286

>  <r_i_glide_ligand_efficiency_sa>  (283) 
-0.574645

>  <r_i_glide_ligand_efficiency_ln>  (283) 
-1.08146

>  <r_i_glide_gscore>  (283) 
-4.374

>  <r_i_glide_lipo>  (283) 
-0.54864

>  <r_i_glide_hbond>  (283) 
-0.288056

>  <r_i_glide_metal>  (283) 
-0

>  <r_i_glide_rewards>  (283) 
-1.4637

>  <r_i_glide_evdw>  (283) 
-18.2817

>  <r_i_glide_ecoul>  (283) 
-7.57298

>  <r_i_glide_erotb>  (283) 
0

>  <r_i_glide_esite>  (283) 
-0.023575

>  <r_i_glide_emodel>  (283) 
-33.4285

>  <r_i_glide_energy>  (283) 
-25.8546

>  <r_i_glide_einternal>  (283) 
0.610579

>  <r_i_glide_intrahb_reward>  (283) 
-0

>  <i_i_glide_confnum>  (283) 
2

>  <i_i_glide_posenum>  (283) 
21

>  <r_i_glide_eff_state_penalty>  (283) 
0

>  <ligand_id>  (283) 
80

>  <original_smiles>  (283) 
CC1=CC(=O)C2COC3C4CC2(C)C(O)C(C)(C4)C3C1=O

>  <smiles>  (283) 
[H]OC1([H])C2(C([H])([H])[H])C([H])([H])C3([H])C([H])([H])C1(C([H])([H])[H])C1([H])C(=O)C(C([H])([H])[H])=C([H])C(=O)C2([H])C([H])([H])OC13[H]

$$$$
80:0:1
     RDKit          3D

 43 46  0  0  1  0  0  0  0  0999 V2000
    4.2694   -6.0810    1.7259 C   0  0  0  0  0  0  0  0  0  0  0  0
    3.8951   -4.6178    1.9193 C   0  0  0  0  0  0  0  0  0  0  0  0
    2.9480   -3.9308    1.2738 C   0  0  0  0  0  0  0  0  0  0  0  0
    2.8154   -4.0476   -0.1731 C   0  0  0  0  0  0  0  0  0  0  0  0
    1.8052   -4.4840   -0.7078 O   0  0  0  0  0  0  0  0  0  0  0  0
    3.9958   -3.6052   -1.0601 C   0  0  2  0  0  0  0  0  0  0  0  0
    5.1281   -4.6469   -1.0780 C   0  0  0  0  0  0  0  0  0  0  0  0
    6.0696   -4.6594   -0.0100 O   0  0  0  0  0  0  0  0  0  0  0  0
    6.5929   -3.4641    0.5516 C   0  0  1  0  0  0  0  0  0  0  0  0
    6.9029   -2.2654   -0.3875 C   0  0  1  0  0  0  0  0  0  0  0  0
    5.9114   -2.0130   -1.5505 C   0  0  0  0  0  0  0  0  0  0  0  0
    4.4317   -2.0890   -1.1089 C   0  0  1  0  0  0  0  0  0  0  0  0
    3.6041   -1.4108   -2.2232 C   0  0  0  0  0  0  0  0  0  0  0  0
    4.3235   -1.2007    0.1869 C   0  0  1  0  0  0  0  0  0  0  0  0
    3.0171   -0.9812    0.6802 O   0  0  0  0  0  0  0  0  0  0  0  0
    5.4239   -1.4217    1.2962 C   0  0  2  0  0  0  0  0  0  0  0  0
    5.2073   -0.5106    2.5175 C   0  0  0  0  0  0  0  0  0  0  0  0
    6.7449   -1.0870    0.5804 C   0  0  0  0  0  0  0  0  0  0  0  0
    5.7983   -2.8616    1.7366 C   0  0  1  0  0  0  0  0  0  0  0  0
    4.8666   -3.7632    2.5969 C   0  0  0  0  0  0  0  0  0  0  0  0
    4.9905   -3.7521    3.8222 O   0  0  0  0  0  0  0  0  0  0  0  0
    5.3460   -6.2341    1.6854 H   0  0  0  0  0  0  0  0  0  0  0  0
    3.8122   -6.5262    0.8440 H   0  0  0  0  0  0  0  0  0  0  0  0
    3.9040   -6.6294    2.5911 H   0  0  0  0  0  0  0  0  0  0  0  0
    2.7104   -2.9637    1.6646 H   0  0  0  0  0  0  0  0  0  0  0  0
    3.5778   -3.7735   -2.0552 H   0  0  0  0  0  0  0  0  0  0  0  0
    4.6864   -5.6427   -1.0996 H   0  0  0  0  0  0  0  0  0  0  0  0
    5.6572   -4.6021   -2.0273 H   0  0  0  0  0  0  0  0  0  0  0  0
    7.5478   -3.7761    0.9768 H   0  0  0  0  0  0  0  0  0  0  0  0
    7.9203   -2.3319   -0.7794 H   0  0  0  0  0  0  0  0  0  0  0  0
    6.0920   -1.0096   -1.9235 H   0  0  0  0  0  0  0  0  0  0  0  0
    6.1323   -2.6392   -2.4154 H   0  0  0  0  0  0  0  0  0  0  0  0
    3.8558   -0.3524   -2.3270 H   0  0  0  0  0  0  0  0  0  0  0  0
    2.5464   -1.4794   -1.9930 H   0  0  0  0  0  0  0  0  0  0  0  0
    3.7553   -1.8880   -3.1950 H   0  0  0  0  0  0  0  0  0  0  0  0
    4.5373   -0.1913   -0.1687 H   0  0  0  0  0  0  0  0  0  0  0  0
    2.3846   -0.9329   -0.0381 H   0  0  0  0  0  0  0  0  0  0  0  0
    6.0581   -0.5471    3.2002 H   0  0  0  0  0  0  0  0  0  0  0  0
    4.3206   -0.8057    3.0764 H   0  0  0  0  0  0  0  0  0  0  0  0
    5.0687    0.5221    2.2107 H   0  0  0  0  0  0  0  0  0  0  0  0
    7.5831   -1.0548    1.2796 H   0  0  0  0  0  0  0  0  0  0  0  0
    6.7240   -0.1211    0.0786 H   0  0  0  0  0  0  0  0  0  0  0  0
    6.5872   -2.6906    2.4684 H   0  0  0  0  0  0  0  0  0  0  0  0
  1  2  1  0
  1 22  1  0
  1 23  1  0
  1 24  1  0
  2 20  1  0
  2  3  2  3
  3  4  1  0
  3 25  1  0
  4  5  2  0
  4  6  1  0
  6 12  1  0
  6  7  1  0
  6 26  1  6
  7  8  1  0
  7 27  1  0
  7 28  1  0
  8  9  1  0
  9 19  1  0
  9 10  1  0
  9 29  1  1
 10 18  1  0
 10 11  1  0
 10 30  1  6
 11 12  1  0
 11 31  1  0
 11 32  1  0
 12 13  1  6
 12 14  1  0
 13 33  1  0
 13 34  1  0
 13 35  1  0
 14 15  1  0
 14 16  1  0
 14 36  1  6
 15 37  1  0
 16 17  1  1
 16 18  1  0
 16 19  1  0
 17 38  1  0
 17 39  1  0
 17 40  1  0
 18 41  1  0
 18 42  1  0
 19 20  1  0
 19 43  1  1
 20 21  2  0
M  END
>  <i_m_ct_stereo_status>  (284) 
1

>  <s_m_source_file>  (284) 
/var/tmp/pbs.5076255.sched01/tmpoq50wh_d/842pmd5wfz.sdf

>  <i_m_source_file_index>  (284) 
23

>  <i_lp_mmshare_version>  (284) 
48012

>  <i_f3d_flags>  (284) 
0

>  <s_epik_input>  (284) 
W0NIM11bQ0BAXTEyW0NAQEhdM0MoPU8pXFtDSF09QyhcW0NIM10pQyg9TylbQ0BIXTRbQ0BASF0oT1tDSDJdMylbQ0BASF0oW0NIMl0xKVtDSDJdW0NAQF00KFtDSDNdKVtDQEBIXTJbT0hd

>  <s_epik_cmdline>  (284) 
J2VwaWtfcHl0aG9uJywgJy1waHQnLCAnMi4wJywgJy1waCcsICc3LjAnLCAnLXRuJywgJzgnLCAnLW1hJywgJzIwMCcsICctaW1hZScsICc8aW5maWxlLm1hZT4nLCAnLW9tYWUnLCAnPG91dGZpbGUubWFlPic=

>  <r_lp_tautomer_probability>  (284) 
1

>  <r_epik_Ionization_Penalty>  (284) 
4.42521e-08

>  <r_epik_Ionization_Penalty_Charging>  (284) 
0

>  <r_epik_Ionization_Penalty_Neutral>  (284) 
4.42521e-08

>  <r_epik_State_Penalty>  (284) 
-0

>  <r_epik_Charging_Adjusted_Penalty>  (284) 
0

>  <i_epik_Tot_Q>  (284) 
0

>  <i_epik_Tot_abs_Q>  (284) 
0

>  <s_lp_Force_Field>  (284) 
OPLS3e

>  <r_lp_Energy>  (284) 
94.8563

>  <b_lp_Chiralities_Consistent>  (284) 
1

>  <s_lp_Variant>  (284) 
80:0-1

>  <s_i_glide_gridfile>  (284) 
pfpi4k_grid

>  <i_i_glide_lignum>  (284) 
23

>  <i_i_glide_rotatable_bonds>  (284) 
1

>  <r_i_docking_score>  (284) 
-3.70738

>  <r_i_glide_ligand_efficiency>  (284) 
-0.176542

>  <r_i_glide_ligand_efficiency_sa>  (284) 
-0.487066

>  <r_i_glide_ligand_efficiency_ln>  (284) 
-0.916642

>  <r_i_glide_gscore>  (284) 
-3.70738

>  <r_i_glide_lipo>  (284) 
-0.453069

>  <r_i_glide_hbond>  (284) 
-0.163544

>  <r_i_glide_metal>  (284) 
-0

>  <r_i_glide_rewards>  (284) 
-1.46949

>  <r_i_glide_evdw>  (284) 
-19.1223

>  <r_i_glide_ecoul>  (284) 
-4.20758

>  <r_i_glide_erotb>  (284) 
0

>  <r_i_glide_esite>  (284) 
-0.0340304

>  <r_i_glide_emodel>  (284) 
-29.6844

>  <r_i_glide_energy>  (284) 
-23.3298

>  <r_i_glide_einternal>  (284) 
0.691455

>  <r_i_glide_intrahb_reward>  (284) 
-0

>  <i_i_glide_confnum>  (284) 
1

>  <i_i_glide_posenum>  (284) 
16

>  <r_i_glide_eff_state_penalty>  (284) 
0

>  <ligand_id>  (284) 
80

>  <original_smiles>  (284) 
CC1=CC(=O)C2COC3C4CC2(C)C(O)C(C)(C4)C3C1=O

>  <smiles>  (284) 
[H]OC1([H])C2(C([H])([H])[H])C([H])([H])C3([H])C([H])([H])C1(C([H])([H])[H])C1([H])C(=O)C(C([H])([H])[H])=C([H])C(=O)C2([H])C([H])([H])OC13[H]

$$$$
80:0:2
     RDKit          3D

 43 46  0  0  1  0  0  0  0  0999 V2000
    5.2012   -1.0178   -0.5715 C   0  0  0  0  0  0  0  0  0  0  0  0
    5.4713   -2.5071   -0.6872 C   0  0  0  0  0  0  0  0  0  0  0  0
    4.6563   -3.4449   -1.1829 C   0  0  0  0  0  0  0  0  0  0  0  0
    3.2445   -3.4644   -0.7927 C   0  0  0  0  0  0  0  0  0  0  0  0
    2.3278   -3.4516   -1.6094 O   0  0  0  0  0  0  0  0  0  0  0  0
    2.9111   -3.6349    0.7117 C   0  0  2  0  0  0  0  0  0  0  0  0
    3.1052   -2.3419    1.5444 C   0  0  0  0  0  0  0  0  0  0  0  0
    4.4106   -2.0335    2.0016 O   0  0  0  0  0  0  0  0  0  0  0  0
    5.2953   -3.0340    2.4949 C   0  0  1  0  0  0  0  0  0  0  0  0
    4.7251   -4.1855    3.3750 C   0  0  1  0  0  0  0  0  0  0  0  0
    3.3519   -4.7647    2.9564 C   0  0  0  0  0  0  0  0  0  0  0  0
    3.2592   -5.0088    1.4272 C   0  0  1  0  0  0  0  0  0  0  0  0
    2.0642   -5.9632    1.1901 C   0  0  0  0  0  0  0  0  0  0  0  0
    4.5712   -5.7919    1.0476 C   0  0  1  0  0  0  0  0  0  0  0  0
    4.6137   -6.3638   -0.2419 O   0  0  0  0  0  0  0  0  0  0  0  0
    5.9339   -5.2394    1.6003 C   0  0  2  0  0  0  0  0  0  0  0  0
    7.1365   -6.1008    1.1653 C   0  0  0  0  0  0  0  0  0  0  0  0
    5.7630   -5.2910    3.1350 C   0  0  0  0  0  0  0  0  0  0  0  0
    6.2343   -3.7247    1.4683 C   0  0  1  0  0  0  0  0  0  0  0  0
    6.5762   -3.0306    0.1176 C   0  0  0  0  0  0  0  0  0  0  0  0
    7.7527   -2.8951   -0.2120 O   0  0  0  0  0  0  0  0  0  0  0  0
    5.5164   -0.5991    0.3833 H   0  0  0  0  0  0  0  0  0  0  0  0
    4.1591   -0.7589   -0.7491 H   0  0  0  0  0  0  0  0  0  0  0  0
    5.7860   -0.5211   -1.3408 H   0  0  0  0  0  0  0  0  0  0  0  0
    5.0929   -4.4144   -1.3310 H   0  0  0  0  0  0  0  0  0  0  0  0
    1.8250   -3.6494    0.6590 H   0  0  0  0  0  0  0  0  0  0  0  0
    2.7876   -1.4884    0.9434 H   0  0  0  0  0  0  0  0  0  0  0  0
    2.4224   -2.3042    2.3909 H   0  0  0  0  0  0  0  0  0  0  0  0
    5.9545   -2.4653    3.1499 H   0  0  0  0  0  0  0  0  0  0  0  0
    4.6959   -3.8996    4.4296 H   0  0  0  0  0  0  0  0  0  0  0  0
    3.2221   -5.7124    3.4787 H   0  0  0  0  0  0  0  0  0  0  0  0
    2.5309   -4.1605    3.3367 H   0  0  0  0  0  0  0  0  0  0  0  0
    2.2195   -6.9224    1.6845 H   0  0  0  0  0  0  0  0  0  0  0  0
    1.9102   -6.1655    0.1277 H   0  0  0  0  0  0  0  0  0  0  0  0
    1.1400   -5.5521    1.5977 H   0  0  0  0  0  0  0  0  0  0  0  0
    4.4759   -6.7251    1.6003 H   0  0  0  0  0  0  0  0  0  0  0  0
    4.2636   -5.7627   -0.8845 H   0  0  0  0  0  0  0  0  0  0  0  0
    8.0552   -5.8038    1.6745 H   0  0  0  0  0  0  0  0  0  0  0  0
    7.3105   -6.0056    0.0955 H   0  0  0  0  0  0  0  0  0  0  0  0
    6.9652   -7.1549    1.3826 H   0  0  0  0  0  0  0  0  0  0  0  0
    6.6959   -5.0599    3.6500 H   0  0  0  0  0  0  0  0  0  0  0  0
    5.4453   -6.2666    3.5106 H   0  0  0  0  0  0  0  0  0  0  0  0
    7.2052   -3.6419    1.9529 H   0  0  0  0  0  0  0  0  0  0  0  0
  1  2  1  0
  1 22  1  0
  1 23  1  0
  1 24  1  0
  2 20  1  0
  2  3  2  3
  3  4  1  0
  3 25  1  0
  4  5  2  0
  4  6  1  0
  6 12  1  0
  6  7  1  0
  6 26  1  6
  7  8  1  0
  7 27  1  0
  7 28  1  0
  8  9  1  0
  9 19  1  0
  9 10  1  0
  9 29  1  1
 10 18  1  0
 10 11  1  0
 10 30  1  1
 11 12  1  0
 11 31  1  0
 11 32  1  0
 12 13  1  1
 12 14  1  0
 13 33  1  0
 13 34  1  0
 13 35  1  0
 14 15  1  0
 14 16  1  0
 14 36  1  1
 15 37  1  0
 16 17  1  1
 16 18  1  0
 16 19  1  0
 17 38  1  0
 17 39  1  0
 17 40  1  0
 18 41  1  0
 18 42  1  0
 19 20  1  0
 19 43  1  1
 20 21  2  0
M  END
>  <i_m_ct_stereo_status>  (285) 
1

>  <s_m_source_file>  (285) 
/var/tmp/pbs.5076255.sched01/tmpoq50wh_d/842pmd5wfz.sdf

>  <i_m_source_file_index>  (285) 
23

>  <i_lp_mmshare_version>  (285) 
48012

>  <i_f3d_flags>  (285) 
0

>  <s_epik_input>  (285) 
W0NIM11bQ0BAXTEyW0NAQEhdM0MoPU8pXFtDSF09QyhcW0NIM10pQyg9TylbQ0BIXTRbQ0BASF0oT1tDSDJdMylbQ0BASF0oW0NIMl0xKVtDSDJdW0NAQF00KFtDSDNdKVtDQEBIXTJbT0hd

>  <s_epik_cmdline>  (285) 
J2VwaWtfcHl0aG9uJywgJy1waHQnLCAnMi4wJywgJy1waCcsICc3LjAnLCAnLXRuJywgJzgnLCAnLW1hJywgJzIwMCcsICctaW1hZScsICc8aW5maWxlLm1hZT4nLCAnLW9tYWUnLCAnPG91dGZpbGUubWFlPic=

>  <r_lp_tautomer_probability>  (285) 
1

>  <r_epik_Ionization_Penalty>  (285) 
4.42521e-08

>  <r_epik_Ionization_Penalty_Charging>  (285) 
0

>  <r_epik_Ionization_Penalty_Neutral>  (285) 
4.42521e-08

>  <r_epik_State_Penalty>  (285) 
-0

>  <r_epik_Charging_Adjusted_Penalty>  (285) 
0

>  <i_epik_Tot_Q>  (285) 
0

>  <i_epik_Tot_abs_Q>  (285) 
0

>  <s_lp_Force_Field>  (285) 
OPLS3e

>  <r_lp_Energy>  (285) 
94.8563

>  <b_lp_Chiralities_Consistent>  (285) 
1

>  <s_lp_Variant>  (285) 
80:0-1

>  <s_i_glide_gridfile>  (285) 
pfpi4k_grid

>  <i_i_glide_lignum>  (285) 
23

>  <i_i_glide_rotatable_bonds>  (285) 
1

>  <r_i_docking_score>  (285) 
-3.48292

>  <r_i_glide_ligand_efficiency>  (285) 
-0.165853

>  <r_i_glide_ligand_efficiency_sa>  (285) 
-0.457577

>  <r_i_glide_ligand_efficiency_ln>  (285) 
-0.861146

>  <r_i_glide_gscore>  (285) 
-3.48292

>  <r_i_glide_lipo>  (285) 
-0.378148

>  <r_i_glide_hbond>  (285) 
-0.125271

>  <r_i_glide_metal>  (285) 
-0

>  <r_i_glide_rewards>  (285) 
-1.62443

>  <r_i_glide_evdw>  (285) 
-22.198

>  <r_i_glide_ecoul>  (285) 
-1.63449

>  <r_i_glide_erotb>  (285) 
0

>  <r_i_glide_esite>  (285) 
0

>  <r_i_glide_emodel>  (285) 
-29.7782

>  <r_i_glide_energy>  (285) 
-23.8325

>  <r_i_glide_einternal>  (285) 
0.432766

>  <r_i_glide_intrahb_reward>  (285) 
-0

>  <i_i_glide_confnum>  (285) 
2

>  <i_i_glide_posenum>  (285) 
2

>  <r_i_glide_eff_state_penalty>  (285) 
0

>  <ligand_id>  (285) 
80

>  <original_smiles>  (285) 
CC1=CC(=O)C2COC3C4CC2(C)C(O)C(C)(C4)C3C1=O

>  <smiles>  (285) 
[H]OC1([H])C2(C([H])([H])[H])C([H])([H])C3([H])C([H])([H])C1(C([H])([H])[H])C1([H])C(=O)C(C([H])([H])[H])=C([H])C(=O)C2([H])C([H])([H])OC13[H]

$$$$
81:0:0
     RDKit          3D

 67 70  0  0  1  0  0  0  0  0999 V2000
    3.4873   -1.1231   -0.9843 C   0  0  0  0  0  0  0  0  0  0  0  0
    4.4088   -2.0747   -1.1701 C   0  0  0  0  0  0  0  0  0  0  0  0
    4.4579   -2.6582   -2.5368 C   0  0  0  0  0  0  0  0  0  0  0  0
    5.3260   -3.4482   -2.9204 O   0  0  0  0  0  0  0  0  0  0  0  0
    5.3331   -2.5168   -0.0351 C   0  0  2  0  0  0  0  0  0  0  0  0
    6.7727   -2.8256   -0.4456 C   0  0  0  0  0  0  0  0  0  0  0  0
    7.4355   -2.2582   -1.3178 O   0  0  0  0  0  0  0  0  0  0  0  0
    7.3203   -3.9213    0.4132 C   0  0  0  0  0  0  0  0  0  0  0  0
    8.4546   -4.4055    0.2313 O   0  0  0  0  0  0  0  0  0  0  0  0
    6.2588   -4.2807    1.4741 C   0  0  1  0  0  0  0  0  0  0  0  0
    4.9386   -3.8058    0.7724 C   0  0  1  0  0  0  0  0  0  0  0  0
    3.8086   -3.4166    1.7544 C   0  0  0  0  0  0  0  0  0  0  0  0
    4.4883   -4.9335   -0.1711 C   0  0  0  0  0  0  0  0  0  0  0  0
    4.2836   -6.2666    0.5326 C   0  0  0  0  0  0  0  0  0  0  0  0
    5.5260   -6.8296    1.2959 C   0  0  1  0  0  0  0  0  0  0  0  0
    6.3057   -5.7214    2.1248 C   0  0  1  0  0  0  0  0  0  0  0  0
    7.8101   -6.0967    2.3519 C   0  0  0  0  0  0  0  0  0  0  0  0
    5.6767   -5.6351    3.5333 C   0  0  0  0  0  0  0  0  0  0  0  0
    5.5287   -6.9822    4.2608 C   0  0  0  0  0  0  0  0  0  0  0  0
    4.6600   -8.0593    3.5370 C   0  0  2  0  0  0  0  0  0  0  0  0
    3.1987   -7.5133    3.5644 C   0  0  0  0  0  0  0  0  0  0  0  0
    4.6934   -9.4145    4.4155 C   0  0  0  0  0  0  0  0  0  0  0  0
    4.5630   -9.1464    5.9443 C   0  0  0  0  0  0  0  0  0  0  0  0
    3.5465  -10.4235    4.1080 C   0  0  0  0  0  0  0  0  0  0  0  0
    6.0450  -10.1576    4.2548 C   0  0  0  0  0  0  0  0  0  0  0  0
    6.4381  -10.4128    2.8029 C   0  0  0  0  0  0  0  0  0  0  0  0
    6.5300   -9.0860    2.0431 C   0  0  0  0  0  0  0  0  0  0  0  0
    5.2220   -8.2332    2.0324 C   0  0  2  0  0  0  0  0  0  0  0  0
    4.2595   -9.0368    1.1039 C   0  0  0  0  0  0  0  0  0  0  0  0
    2.8390   -0.8134   -1.7961 H   0  0  0  0  0  0  0  0  0  0  0  0
    3.3651   -0.6287   -0.0309 H   0  0  0  0  0  0  0  0  0  0  0  0
    3.6535   -2.3144   -3.2068 H   0  0  0  0  0  0  0  0  0  0  0  0
    5.3911   -1.6938    0.6796 H   0  0  0  0  0  0  0  0  0  0  0  0
    6.4721   -3.5746    2.2687 H   0  0  0  0  0  0  0  0  0  0  0  0
    3.3172   -4.2803    2.1992 H   0  0  0  0  0  0  0  0  0  0  0  0
    3.0130   -2.8683    1.2453 H   0  0  0  0  0  0  0  0  0  0  0  0
    4.1742   -2.7865    2.5659 H   0  0  0  0  0  0  0  0  0  0  0  0
    3.5526   -4.6609   -0.6672 H   0  0  0  0  0  0  0  0  0  0  0  0
    5.2148   -5.0999   -0.9665 H   0  0  0  0  0  0  0  0  0  0  0  0
    3.3924   -6.2177    1.1443 H   0  0  0  0  0  0  0  0  0  0  0  0
    4.0293   -6.9353   -0.2809 H   0  0  0  0  0  0  0  0  0  0  0  0
    6.2041   -7.0523    0.4773 H   0  0  0  0  0  0  0  0  0  0  0  0
    8.0001   -6.7433    3.1988 H   0  0  0  0  0  0  0  0  0  0  0  0
    8.3994   -5.2118    2.5803 H   0  0  0  0  0  0  0  0  0  0  0  0
    8.2409   -6.5712    1.4703 H   0  0  0  0  0  0  0  0  0  0  0  0
    6.2836   -4.9734    4.1495 H   0  0  0  0  0  0  0  0  0  0  0  0
    4.7070   -5.1520    3.5008 H   0  0  0  0  0  0  0  0  0  0  0  0
    6.5060   -7.3885    4.4909 H   0  0  0  0  0  0  0  0  0  0  0  0
    5.0933   -6.7341    5.2239 H   0  0  0  0  0  0  0  0  0  0  0  0
    2.4922   -8.1520    3.0389 H   0  0  0  0  0  0  0  0  0  0  0  0
    3.1022   -6.5248    3.1446 H   0  0  0  0  0  0  0  0  0  0  0  0
    2.8280   -7.4149    4.5814 H   0  0  0  0  0  0  0  0  0  0  0  0
    4.5011  -10.0804    6.4997 H   0  0  0  0  0  0  0  0  0  0  0  0
    3.6716   -8.5759    6.1956 H   0  0  0  0  0  0  0  0  0  0  0  0
    5.4274   -8.6199    6.3503 H   0  0  0  0  0  0  0  0  0  0  0  0
    3.6047  -11.2834    4.7745 H   0  0  0  0  0  0  0  0  0  0  0  0
    3.5734  -10.8406    3.1114 H   0  0  0  0  0  0  0  0  0  0  0  0
    2.5608   -9.9928    4.2669 H   0  0  0  0  0  0  0  0  0  0  0  0
    6.8489   -9.5927    4.7328 H   0  0  0  0  0  0  0  0  0  0  0  0
    6.0130  -11.1072    4.7855 H   0  0  0  0  0  0  0  0  0  0  0  0
    7.4133  -10.8987    2.7854 H   0  0  0  0  0  0  0  0  0  0  0  0
    5.7552  -11.1189    2.3319 H   0  0  0  0  0  0  0  0  0  0  0  0
    7.3461   -8.5579    2.5104 H   0  0  0  0  0  0  0  0  0  0  0  0
    6.8587   -9.2808    1.0219 H   0  0  0  0  0  0  0  0  0  0  0  0
    4.1886  -10.0851    1.3491 H   0  0  0  0  0  0  0  0  0  0  0  0
    4.6209   -9.0281    0.0797 H   0  0  0  0  0  0  0  0  0  0  0  0
    3.2414   -8.6541    1.0862 H   0  0  0  0  0  0  0  0  0  0  0  0
  1  2  2  0
  1 30  1  0
  1 31  1  0
  2  3  1  0
  2  5  1  0
  3  4  2  0
  3 32  1  0
  5 11  1  0
  5  6  1  0
  5 33  1  1
  6  7  2  0
  6  8  1  0
  8  9  2  0
  8 10  1  0
 10 16  1  0
 10 11  1  0
 10 34  1  1
 11 12  1  1
 11 13  1  0
 12 35  1  0
 12 36  1  0
 12 37  1  0
 13 14  1  0
 13 38  1  0
 13 39  1  0
 14 15  1  0
 14 40  1  0
 14 41  1  0
 15 28  1  0
 15 16  1  0
 15 42  1  6
 16 17  1  1
 16 18  1  0
 17 43  1  0
 17 44  1  0
 17 45  1  0
 18 19  1  0
 18 46  1  0
 18 47  1  0
 19 20  1  0
 19 48  1  0
 19 49  1  0
 20 28  1  0
 20 21  1  6
 20 22  1  0
 21 50  1  0
 21 51  1  0
 21 52  1  0
 22 23  1  0
 22 24  1  0
 22 25  1  0
 23 53  1  0
 23 54  1  0
 23 55  1  0
 24 56  1  0
 24 57  1  0
 24 58  1  0
 25 26  1  0
 25 59  1  0
 25 60  1  0
 26 27  1  0
 26 61  1  0
 26 62  1  0
 27 28  1  0
 27 63  1  0
 27 64  1  0
 28 29  1  6
 29 65  1  0
 29 66  1  0
 29 67  1  0
M  END
>  <i_m_ct_stereo_status>  (286) 
1

>  <s_m_source_file>  (286) 
/var/tmp/pbs.5076255.sched01/tmpoq50wh_d/842pmd5wfz.sdf

>  <i_m_source_file_index>  (286) 
24

>  <i_lp_mmshare_version>  (286) 
48012

>  <i_f3d_flags>  (286) 
0

>  <s_epik_input>  (286) 
Tz1bQ0hdQyg9W0NIMl0pW0NAQEhdMUMoPU8pQyg9TylbQ0BASF0oW0NAQF0xMltDSDNdKVtDQF0zKFtDSDNdKVtDQEhdKFtDSDJdW0NIMl0yKVtDQF00KFtDSDNdKVtDQF0oW0NIM10pKFtDSDJdW0NIMl0zKUMoW0NIM10pKFtDSDNdKVtDSDJdW0NIMl1bQ0gyXTQ=

>  <s_epik_cmdline>  (286) 
J2VwaWtfcHl0aG9uJywgJy1waHQnLCAnMi4wJywgJy1waCcsICc3LjAnLCAnLXRuJywgJzgnLCAnLW1hJywgJzIwMCcsICctaW1hZScsICc8aW5maWxlLm1hZT4nLCAnLW9tYWUnLCAnPG91dGZpbGUubWFlPic=

>  <r_lp_tautomer_probability>  (286) 
1

>  <r_epik_Ionization_Penalty>  (286) 
0

>  <r_epik_Ionization_Penalty_Charging>  (286) 
0

>  <r_epik_Ionization_Penalty_Neutral>  (286) 
0

>  <r_epik_State_Penalty>  (286) 
-0

>  <r_epik_Charging_Adjusted_Penalty>  (286) 
0

>  <i_epik_Tot_Q>  (286) 
0

>  <i_epik_Tot_abs_Q>  (286) 
0

>  <s_lp_Force_Field>  (286) 
OPLS3e

>  <r_lp_Energy>  (286) 
94.0497

>  <b_lp_Chiralities_Consistent>  (286) 
1

>  <s_lp_Variant>  (286) 
81:0-1

>  <s_i_glide_gridfile>  (286) 
pfpi4k_grid

>  <i_i_glide_lignum>  (286) 
24

>  <i_i_glide_rotatable_bonds>  (286) 
2

>  <r_i_docking_score>  (286) 
-3.60166

>  <r_i_glide_ligand_efficiency>  (286) 
-0.124195

>  <r_i_glide_ligand_efficiency_sa>  (286) 
-0.381567

>  <r_i_glide_ligand_efficiency_ln>  (286) 
-0.824689

>  <r_i_glide_gscore>  (286) 
-3.60166

>  <r_i_glide_lipo>  (286) 
-0.477402

>  <r_i_glide_hbond>  (286) 
-0.16

>  <r_i_glide_metal>  (286) 
-0

>  <r_i_glide_rewards>  (286) 
-1.032

>  <r_i_glide_evdw>  (286) 
-31.6465

>  <r_i_glide_ecoul>  (286) 
-3.97675

>  <r_i_glide_erotb>  (286) 
0.246575

>  <r_i_glide_esite>  (286) 
0

>  <r_i_glide_emodel>  (286) 
-41.0805

>  <r_i_glide_energy>  (286) 
-35.6232

>  <r_i_glide_einternal>  (286) 
5.357

>  <r_i_glide_intrahb_reward>  (286) 
-0

>  <i_i_glide_confnum>  (286) 
5

>  <i_i_glide_posenum>  (286) 
29

>  <r_i_glide_eff_state_penalty>  (286) 
0

>  <ligand_id>  (286) 
81

>  <original_smiles>  (286) 
C=C(C=O)C1C(=O)C(=O)C2C1(C)CCC1C2(C)CCC2(C)C(C)(C)CCCC12C

>  <smiles>  (286) 
[H]C(=O)C(=C([H])[H])C1([H])C(=O)C(=O)C2([H])C1(C([H])([H])[H])C([H])([H])C([H])([H])C1([H])C2(C([H])([H])[H])C([H])([H])C([H])([H])C2(C([H])([H])[H])C(C([H])([H])[H])(C([H])([H])[H])C([H])([H])C([H])([H])C([H])([H])C12C([H])([H])[H]

$$$$
81:0:1
     RDKit          3D

 67 70  0  0  1  0  0  0  0  0999 V2000
    5.9379   -2.8166   -2.4812 C   0  0  0  0  0  0  0  0  0  0  0  0
    4.7674   -2.2618   -2.1099 C   0  0  0  0  0  0  0  0  0  0  0  0
    3.9174   -1.6044   -3.1273 C   0  0  0  0  0  0  0  0  0  0  0  0
    4.2088   -1.5066   -4.3192 O   0  0  0  0  0  0  0  0  0  0  0  0
    4.2176   -2.2344   -0.6776 C   0  0  2  0  0  0  0  0  0  0  0  0
    5.2160   -1.7364    0.3470 C   0  0  0  0  0  0  0  0  0  0  0  0
    6.1258   -0.9276    0.1511 O   0  0  0  0  0  0  0  0  0  0  0  0
    4.8980   -2.4154    1.6586 C   0  0  0  0  0  0  0  0  0  0  0  0
    5.5453   -2.2358    2.6882 O   0  0  0  0  0  0  0  0  0  0  0  0
    3.6464   -3.3098    1.4686 C   0  0  1  0  0  0  0  0  0  0  0  0
    3.6883   -3.5765   -0.0764 C   0  0  1  0  0  0  0  0  0  0  0  0
    2.3191   -3.8540   -0.7242 C   0  0  0  0  0  0  0  0  0  0  0  0
    4.6652   -4.7481   -0.3085 C   0  0  0  0  0  0  0  0  0  0  0  0
    4.2730   -6.0093    0.4539 C   0  0  0  0  0  0  0  0  0  0  0  0
    4.1472   -5.8782    2.0061 C   0  0  1  0  0  0  0  0  0  0  0  0
    3.4002   -4.5502    2.4512 C   0  0  1  0  0  0  0  0  0  0  0  0
    3.7956   -4.0964    3.8905 C   0  0  0  0  0  0  0  0  0  0  0  0
    1.8837   -4.8329    2.5202 C   0  0  0  0  0  0  0  0  0  0  0  0
    1.4823   -6.0840    3.3247 C   0  0  0  0  0  0  0  0  0  0  0  0
    2.0839   -7.4338    2.8284 C   0  0  2  0  0  0  0  0  0  0  0  0
    1.4159   -7.7096    1.4511 C   0  0  0  0  0  0  0  0  0  0  0  0
    1.6193   -8.6015    3.8390 C   0  0  0  0  0  0  0  0  0  0  0  0
    0.1232   -8.4821    4.2567 C   0  0  0  0  0  0  0  0  0  0  0  0
    1.7315  -10.0466    3.2669 C   0  0  0  0  0  0  0  0  0  0  0  0
    2.4081   -8.5456    5.1694 C   0  0  0  0  0  0  0  0  0  0  0  0
    3.9219   -8.5249    4.9832 C   0  0  0  0  0  0  0  0  0  0  0  0
    4.3310   -7.3196    4.1294 C   0  0  0  0  0  0  0  0  0  0  0  0
    3.6847   -7.2531    2.7101 C   0  0  2  0  0  0  0  0  0  0  0  0
    4.3815   -8.4173    1.9325 C   0  0  0  0  0  0  0  0  0  0  0  0
    6.2612   -2.8154   -3.5129 H   0  0  0  0  0  0  0  0  0  0  0  0
    6.5993   -3.2810   -1.7638 H   0  0  0  0  0  0  0  0  0  0  0  0
    2.9803   -1.1948   -2.7439 H   0  0  0  0  0  0  0  0  0  0  0  0
    3.4110   -1.4980   -0.6403 H   0  0  0  0  0  0  0  0  0  0  0  0
    2.8275   -2.6152    1.6549 H   0  0  0  0  0  0  0  0  0  0  0  0
    1.9327   -4.8468   -0.5180 H   0  0  0  0  0  0  0  0  0  0  0  0
    2.3662   -3.7797   -1.8131 H   0  0  0  0  0  0  0  0  0  0  0  0
    1.5932   -3.1153   -0.3901 H   0  0  0  0  0  0  0  0  0  0  0  0
    4.7098   -4.9881   -1.3716 H   0  0  0  0  0  0  0  0  0  0  0  0
    5.6824   -4.4860   -0.0130 H   0  0  0  0  0  0  0  0  0  0  0  0
    3.3843   -6.4217   -0.0015 H   0  0  0  0  0  0  0  0  0  0  0  0
    5.0634   -6.7122    0.2016 H   0  0  0  0  0  0  0  0  0  0  0  0
    5.1859   -5.7260    2.3038 H   0  0  0  0  0  0  0  0  0  0  0  0
    3.2479   -4.5807    4.6949 H   0  0  0  0  0  0  0  0  0  0  0  0
    3.5791   -3.0397    4.0495 H   0  0  0  0  0  0  0  0  0  0  0  0
    4.8582   -4.2591    4.0812 H   0  0  0  0  0  0  0  0  0  0  0  0
    1.3744   -3.9674    2.9490 H   0  0  0  0  0  0  0  0  0  0  0  0
    1.4658   -4.9291    1.5290 H   0  0  0  0  0  0  0  0  0  0  0  0
    1.7057   -5.9403    4.3776 H   0  0  0  0  0  0  0  0  0  0  0  0
    0.3945   -6.1189    3.2770 H   0  0  0  0  0  0  0  0  0  0  0  0
    1.8012   -8.6044    0.9658 H   0  0  0  0  0  0  0  0  0  0  0  0
    1.5310   -6.9007    0.7423 H   0  0  0  0  0  0  0  0  0  0  0  0
    0.3397   -7.8504    1.5358 H   0  0  0  0  0  0  0  0  0  0  0  0
   -0.1831   -9.3329    4.8694 H   0  0  0  0  0  0  0  0  0  0  0  0
   -0.5545   -8.4585    3.4049 H   0  0  0  0  0  0  0  0  0  0  0  0
   -0.0697   -7.6000    4.8685 H   0  0  0  0  0  0  0  0  0  0  0  0
    1.3531  -10.7773    3.9848 H   0  0  0  0  0  0  0  0  0  0  0  0
    2.7449  -10.3663    3.0549 H   0  0  0  0  0  0  0  0  0  0  0  0
    1.1425  -10.1898    2.3609 H   0  0  0  0  0  0  0  0  0  0  0  0
    2.1245   -7.6644    5.7445 H   0  0  0  0  0  0  0  0  0  0  0  0
    2.1430   -9.3939    5.8012 H   0  0  0  0  0  0  0  0  0  0  0  0
    4.3958   -8.4405    5.9623 H   0  0  0  0  0  0  0  0  0  0  0  0
    4.2785   -9.4688    4.5720 H   0  0  0  0  0  0  0  0  0  0  0  0
    4.0663   -6.4594    4.7254 H   0  0  0  0  0  0  0  0  0  0  0  0
    5.4193   -7.2913    4.0496 H   0  0  0  0  0  0  0  0  0  0  0  0
    4.3917   -9.3646    2.4523 H   0  0  0  0  0  0  0  0  0  0  0  0
    5.4400   -8.1955    1.7829 H   0  0  0  0  0  0  0  0  0  0  0  0
    3.9544   -8.6097    0.9489 H   0  0  0  0  0  0  0  0  0  0  0  0
  1  2  2  0
  1 30  1  0
  1 31  1  0
  2  3  1  0
  2  5  1  0
  3  4  2  0
  3 32  1  0
  5 11  1  0
  5  6  1  0
  5 33  1  6
  6  7  2  0
  6  8  1  0
  8  9  2  0
  8 10  1  0
 10 16  1  0
 10 11  1  0
 10 34  1  6
 11 12  1  6
 11 13  1  0
 12 35  1  0
 12 36  1  0
 12 37  1  0
 13 14  1  0
 13 38  1  0
 13 39  1  0
 14 15  1  0
 14 40  1  0
 14 41  1  0
 15 28  1  0
 15 16  1  0
 15 42  1  1
 16 17  1  1
 16 18  1  0
 17 43  1  0
 17 44  1  0
 17 45  1  0
 18 19  1  0
 18 46  1  0
 18 47  1  0
 19 20  1  0
 19 48  1  0
 19 49  1  0
 20 28  1  0
 20 21  1  6
 20 22  1  0
 21 50  1  0
 21 51  1  0
 21 52  1  0
 22 23  1  0
 22 24  1  0
 22 25  1  0
 23 53  1  0
 23 54  1  0
 23 55  1  0
 24 56  1  0
 24 57  1  0
 24 58  1  0
 25 26  1  0
 25 59  1  0
 25 60  1  0
 26 27  1  0
 26 61  1  0
 26 62  1  0
 27 28  1  0
 27 63  1  0
 27 64  1  0
 28 29  1  6
 29 65  1  0
 29 66  1  0
 29 67  1  0
M  END
>  <i_m_ct_stereo_status>  (287) 
1

>  <s_m_source_file>  (287) 
/var/tmp/pbs.5076255.sched01/tmpoq50wh_d/842pmd5wfz.sdf

>  <i_m_source_file_index>  (287) 
24

>  <i_lp_mmshare_version>  (287) 
48012

>  <i_f3d_flags>  (287) 
0

>  <s_epik_input>  (287) 
Tz1bQ0hdQyg9W0NIMl0pW0NAQEhdMUMoPU8pQyg9TylbQ0BASF0oW0NAQF0xMltDSDNdKVtDQF0zKFtDSDNdKVtDQEhdKFtDSDJdW0NIMl0yKVtDQF00KFtDSDNdKVtDQF0oW0NIM10pKFtDSDJdW0NIMl0zKUMoW0NIM10pKFtDSDNdKVtDSDJdW0NIMl1bQ0gyXTQ=

>  <s_epik_cmdline>  (287) 
J2VwaWtfcHl0aG9uJywgJy1waHQnLCAnMi4wJywgJy1waCcsICc3LjAnLCAnLXRuJywgJzgnLCAnLW1hJywgJzIwMCcsICctaW1hZScsICc8aW5maWxlLm1hZT4nLCAnLW9tYWUnLCAnPG91dGZpbGUubWFlPic=

>  <r_lp_tautomer_probability>  (287) 
1

>  <r_epik_Ionization_Penalty>  (287) 
0

>  <r_epik_Ionization_Penalty_Charging>  (287) 
0

>  <r_epik_Ionization_Penalty_Neutral>  (287) 
0

>  <r_epik_State_Penalty>  (287) 
-0

>  <r_epik_Charging_Adjusted_Penalty>  (287) 
0

>  <i_epik_Tot_Q>  (287) 
0

>  <i_epik_Tot_abs_Q>  (287) 
0

>  <s_lp_Force_Field>  (287) 
OPLS3e

>  <r_lp_Energy>  (287) 
94.0497

>  <b_lp_Chiralities_Consistent>  (287) 
1

>  <s_lp_Variant>  (287) 
81:0-1

>  <s_i_glide_gridfile>  (287) 
pfpi4k_grid

>  <i_i_glide_lignum>  (287) 
24

>  <i_i_glide_rotatable_bonds>  (287) 
2

>  <r_i_docking_score>  (287) 
-3.55229

>  <r_i_glide_ligand_efficiency>  (287) 
-0.122493

>  <r_i_glide_ligand_efficiency_sa>  (287) 
-0.376337

>  <r_i_glide_ligand_efficiency_ln>  (287) 
-0.813385

>  <r_i_glide_gscore>  (287) 
-3.55229

>  <r_i_glide_lipo>  (287) 
-0.326597

>  <r_i_glide_hbond>  (287) 
-0.318303

>  <r_i_glide_metal>  (287) 
-0

>  <r_i_glide_rewards>  (287) 
-0.901

>  <r_i_glide_evdw>  (287) 
-32.595

>  <r_i_glide_ecoul>  (287) 
-4.15481

>  <r_i_glide_erotb>  (287) 
0.246575

>  <r_i_glide_esite>  (287) 
0

>  <r_i_glide_emodel>  (287) 
-43.1298

>  <r_i_glide_energy>  (287) 
-36.7498

>  <r_i_glide_einternal>  (287) 
3.59571

>  <r_i_glide_intrahb_reward>  (287) 
-0

>  <i_i_glide_confnum>  (287) 
5

>  <i_i_glide_posenum>  (287) 
8

>  <r_i_glide_eff_state_penalty>  (287) 
0

>  <ligand_id>  (287) 
81

>  <original_smiles>  (287) 
C=C(C=O)C1C(=O)C(=O)C2C1(C)CCC1C2(C)CCC2(C)C(C)(C)CCCC12C

>  <smiles>  (287) 
[H]C(=O)C(=C([H])[H])C1([H])C(=O)C(=O)C2([H])C1(C([H])([H])[H])C([H])([H])C([H])([H])C1([H])C2(C([H])([H])[H])C([H])([H])C([H])([H])C2(C([H])([H])[H])C(C([H])([H])[H])(C([H])([H])[H])C([H])([H])C([H])([H])C([H])([H])C12C([H])([H])[H]

$$$$
81:0:2
     RDKit          3D

 67 70  0  0  1  0  0  0  0  0999 V2000
    2.5521   -2.5584   -1.8865 C   0  0  0  0  0  0  0  0  0  0  0  0
    3.8023   -2.2771   -1.4698 C   0  0  0  0  0  0  0  0  0  0  0  0
    4.6105   -1.4099   -2.3587 C   0  0  0  0  0  0  0  0  0  0  0  0
    4.2688   -1.0459   -3.4761 O   0  0  0  0  0  0  0  0  0  0  0  0
    4.4660   -2.7235   -0.1429 C   0  0  2  0  0  0  0  0  0  0  0  0
    5.8028   -3.4583   -0.3137 C   0  0  0  0  0  0  0  0  0  0  0  0
    6.6357   -3.2860   -1.2011 O   0  0  0  0  0  0  0  0  0  0  0  0
    5.9730   -4.4246    0.8396 C   0  0  0  0  0  0  0  0  0  0  0  0
    6.9367   -5.1881    0.9427 O   0  0  0  0  0  0  0  0  0  0  0  0
    4.7730   -4.2477    1.8058 C   0  0  1  0  0  0  0  0  0  0  0  0
    3.6747   -3.6685    0.8402 C   0  0  1  0  0  0  0  0  0  0  0  0
    2.6221   -2.7900    1.5588 C   0  0  0  0  0  0  0  0  0  0  0  0
    3.0596   -4.8946    0.1053 C   0  0  0  0  0  0  0  0  0  0  0  0
    2.4448   -5.8959    1.0628 C   0  0  0  0  0  0  0  0  0  0  0  0
    3.4066   -6.5287    2.1041 C   0  0  1  0  0  0  0  0  0  0  0  0
    4.3683   -5.4587    2.7758 C   0  0  1  0  0  0  0  0  0  0  0  0
    5.6895   -6.1084    3.2968 C   0  0  0  0  0  0  0  0  0  0  0  0
    3.6642   -4.8714    4.0213 C   0  0  0  0  0  0  0  0  0  0  0  0
    3.0951   -5.9250    4.9882 C   0  0  0  0  0  0  0  0  0  0  0  0
    2.0304   -6.9067    4.3977 C   0  0  2  0  0  0  0  0  0  0  0  0
    0.7766   -6.0305    4.0845 C   0  0  0  0  0  0  0  0  0  0  0  0
    1.6184   -7.9707    5.5387 C   0  0  0  0  0  0  0  0  0  0  0  0
    1.4327   -7.3102    6.9349 C   0  0  0  0  0  0  0  0  0  0  0  0
    0.2743   -8.7132    5.2791 C   0  0  0  0  0  0  0  0  0  0  0  0
    2.7256   -9.0346    5.7462 C   0  0  0  0  0  0  0  0  0  0  0  0
    3.1634   -9.7289    4.4605 C   0  0  0  0  0  0  0  0  0  0  0  0
    3.6787   -8.6923    3.4583 C   0  0  0  0  0  0  0  0  0  0  0  0
    2.6581   -7.5757    3.0686 C   0  0  2  0  0  0  0  0  0  0  0  0
    1.5962   -8.3312    2.2005 C   0  0  0  0  0  0  0  0  0  0  0  0
    2.2113   -2.2424   -2.8643 H   0  0  0  0  0  0  0  0  0  0  0  0
    1.8345   -3.0472   -1.2797 H   0  0  0  0  0  0  0  0  0  0  0  0
    5.5674   -1.0998   -1.9396 H   0  0  0  0  0  0  0  0  0  0  0  0
    4.7310   -1.8085    0.4005 H   0  0  0  0  0  0  0  0  0  0  0  0
    5.1050   -3.4320    2.4573 H   0  0  0  0  0  0  0  0  0  0  0  0
    1.8790   -3.3650    2.1029 H   0  0  0  0  0  0  0  0  0  0  0  0
    2.0519   -2.1871    0.8561 H   0  0  0  0  0  0  0  0  0  0  0  0
    3.0767   -2.0893    2.2591 H   0  0  0  0  0  0  0  0  0  0  0  0
    2.2474   -4.6858   -0.5477 H   0  0  0  0  0  0  0  0  0  0  0  0
    3.8168   -5.4004   -0.5080 H   0  0  0  0  0  0  0  0  0  0  0  0
    1.5590   -5.4568    1.5053 H   0  0  0  0  0  0  0  0  0  0  0  0
    2.0527   -6.6580    0.4060 H   0  0  0  0  0  0  0  0  0  0  0  0
    4.0606   -7.1240    1.4607 H   0  0  0  0  0  0  0  0  0  0  0  0
    5.6240   -6.5554    4.2766 H   0  0  0  0  0  0  0  0  0  0  0  0
    6.4832   -5.3675    3.4137 H   0  0  0  0  0  0  0  0  0  0  0  0
    6.0498   -6.8795    2.6150 H   0  0  0  0  0  0  0  0  0  0  0  0
    4.3666   -4.2338    4.5615 H   0  0  0  0  0  0  0  0  0  0  0  0
    2.8656   -4.1977    3.7466 H   0  0  0  0  0  0  0  0  0  0  0  0
    3.9054   -6.4885    5.4415 H   0  0  0  0  0  0  0  0  0  0  0  0
    2.6701   -5.3539    5.8126 H   0  0  0  0  0  0  0  0  0  0  0  0
   -0.0277   -6.5835    3.6053 H   0  0  0  0  0  0  0  0  0  0  0  0
    0.9871   -5.1792    3.4488 H   0  0  0  0  0  0  0  0  0  0  0  0
    0.3526   -5.5924    4.9861 H   0  0  0  0  0  0  0  0  0  0  0  0
    1.0753   -8.0316    7.6720 H   0  0  0  0  0  0  0  0  0  0  0  0
    0.7152   -6.4908    6.9306 H   0  0  0  0  0  0  0  0  0  0  0  0
    2.3669   -6.9276    7.3442 H   0  0  0  0  0  0  0  0  0  0  0  0
    0.0297   -9.3826    6.1065 H   0  0  0  0  0  0  0  0  0  0  0  0
    0.2743   -9.3579    4.4110 H   0  0  0  0  0  0  0  0  0  0  0  0
   -0.5775   -8.0396    5.1836 H   0  0  0  0  0  0  0  0  0  0  0  0
    3.6063   -8.5799    6.1996 H   0  0  0  0  0  0  0  0  0  0  0  0
    2.3970   -9.7902    6.4619 H   0  0  0  0  0  0  0  0  0  0  0  0
    3.9685  -10.4263    4.6893 H   0  0  0  0  0  0  0  0  0  0  0  0
    2.3660  -10.3437    4.0492 H   0  0  0  0  0  0  0  0  0  0  0  0
    4.5591   -8.2751    3.9191 H   0  0  0  0  0  0  0  0  0  0  0  0
    4.0385   -9.2013    2.5614 H   0  0  0  0  0  0  0  0  0  0  0  0
    1.2179   -9.2494    2.6277 H   0  0  0  0  0  0  0  0  0  0  0  0
    2.0357   -8.6649    1.2581 H   0  0  0  0  0  0  0  0  0  0  0  0
    0.7219   -7.7340    1.9415 H   0  0  0  0  0  0  0  0  0  0  0  0
  1  2  2  0
  1 30  1  0
  1 31  1  0
  2  3  1  0
  2  5  1  0
  3  4  2  0
  3 32  1  0
  5 11  1  0
  5  6  1  0
  5 33  1  1
  6  7  2  0
  6  8  1  0
  8  9  2  0
  8 10  1  0
 10 16  1  0
 10 11  1  0
 10 34  1  1
 11 12  1  1
 11 13  1  0
 12 35  1  0
 12 36  1  0
 12 37  1  0
 13 14  1  0
 13 38  1  0
 13 39  1  0
 14 15  1  0
 14 40  1  0
 14 41  1  0
 15 28  1  0
 15 16  1  0
 15 42  1  6
 16 17  1  1
 16 18  1  0
 17 43  1  0
 17 44  1  0
 17 45  1  0
 18 19  1  0
 18 46  1  0
 18 47  1  0
 19 20  1  0
 19 48  1  0
 19 49  1  0
 20 28  1  0
 20 21  1  6
 20 22  1  0
 21 50  1  0
 21 51  1  0
 21 52  1  0
 22 23  1  0
 22 24  1  0
 22 25  1  0
 23 53  1  0
 23 54  1  0
 23 55  1  0
 24 56  1  0
 24 57  1  0
 24 58  1  0
 25 26  1  0
 25 59  1  0
 25 60  1  0
 26 27  1  0
 26 61  1  0
 26 62  1  0
 27 28  1  0
 27 63  1  0
 27 64  1  0
 28 29  1  6
 29 65  1  0
 29 66  1  0
 29 67  1  0
M  END
>  <i_m_ct_stereo_status>  (288) 
1

>  <s_m_source_file>  (288) 
/var/tmp/pbs.5076255.sched01/tmpoq50wh_d/842pmd5wfz.sdf

>  <i_m_source_file_index>  (288) 
24

>  <i_lp_mmshare_version>  (288) 
48012

>  <i_f3d_flags>  (288) 
0

>  <s_epik_input>  (288) 
Tz1bQ0hdQyg9W0NIMl0pW0NAQEhdMUMoPU8pQyg9TylbQ0BASF0oW0NAQF0xMltDSDNdKVtDQF0zKFtDSDNdKVtDQEhdKFtDSDJdW0NIMl0yKVtDQF00KFtDSDNdKVtDQF0oW0NIM10pKFtDSDJdW0NIMl0zKUMoW0NIM10pKFtDSDNdKVtDSDJdW0NIMl1bQ0gyXTQ=

>  <s_epik_cmdline>  (288) 
J2VwaWtfcHl0aG9uJywgJy1waHQnLCAnMi4wJywgJy1waCcsICc3LjAnLCAnLXRuJywgJzgnLCAnLW1hJywgJzIwMCcsICctaW1hZScsICc8aW5maWxlLm1hZT4nLCAnLW9tYWUnLCAnPG91dGZpbGUubWFlPic=

>  <r_lp_tautomer_probability>  (288) 
1

>  <r_epik_Ionization_Penalty>  (288) 
0

>  <r_epik_Ionization_Penalty_Charging>  (288) 
0

>  <r_epik_Ionization_Penalty_Neutral>  (288) 
0

>  <r_epik_State_Penalty>  (288) 
-0

>  <r_epik_Charging_Adjusted_Penalty>  (288) 
0

>  <i_epik_Tot_Q>  (288) 
0

>  <i_epik_Tot_abs_Q>  (288) 
0

>  <s_lp_Force_Field>  (288) 
OPLS3e

>  <r_lp_Energy>  (288) 
94.0497

>  <b_lp_Chiralities_Consistent>  (288) 
1

>  <s_lp_Variant>  (288) 
81:0-1

>  <s_i_glide_gridfile>  (288) 
pfpi4k_grid

>  <i_i_glide_lignum>  (288) 
24

>  <i_i_glide_rotatable_bonds>  (288) 
2

>  <r_i_docking_score>  (288) 
-2.52534

>  <r_i_glide_ligand_efficiency>  (288) 
-0.0870807

>  <r_i_glide_ligand_efficiency_sa>  (288) 
-0.267539

>  <r_i_glide_ligand_efficiency_ln>  (288) 
-0.578239

>  <r_i_glide_gscore>  (288) 
-2.52534

>  <r_i_glide_lipo>  (288) 
-0.0442372

>  <r_i_glide_hbond>  (288) 
0

>  <r_i_glide_metal>  (288) 
-0

>  <r_i_glide_rewards>  (288) 
-0.903636

>  <r_i_glide_evdw>  (288) 
-29.9161

>  <r_i_glide_ecoul>  (288) 
-1.92397

>  <r_i_glide_erotb>  (288) 
0.246575

>  <r_i_glide_esite>  (288) 
-0.0396422

>  <r_i_glide_emodel>  (288) 
-31.42

>  <r_i_glide_energy>  (288) 
-31.84

>  <r_i_glide_einternal>  (288) 
10.8591

>  <r_i_glide_intrahb_reward>  (288) 
-0

>  <i_i_glide_confnum>  (288) 
5

>  <i_i_glide_posenum>  (288) 
25

>  <r_i_glide_eff_state_penalty>  (288) 
0

>  <ligand_id>  (288) 
81

>  <original_smiles>  (288) 
C=C(C=O)C1C(=O)C(=O)C2C1(C)CCC1C2(C)CCC2(C)C(C)(C)CCCC12C

>  <smiles>  (288) 
[H]C(=O)C(=C([H])[H])C1([H])C(=O)C(=O)C2([H])C1(C([H])([H])[H])C([H])([H])C([H])([H])C1([H])C2(C([H])([H])[H])C([H])([H])C([H])([H])C2(C([H])([H])[H])C(C([H])([H])[H])(C([H])([H])[H])C([H])([H])C([H])([H])C([H])([H])C12C([H])([H])[H]

$$$$
82:0:0
     RDKit          3D

 41 44  0  0  1  0  0  0  0  0999 V2000
    2.1756   -5.8125    1.6481 C   0  0  0  0  0  0  0  0  0  0  0  0
    3.0846   -5.2149    0.5625 C   0  0  2  0  0  0  0  0  0  0  0  0
    4.5684   -5.2564    0.9514 C   0  0  0  0  0  0  0  0  0  0  0  0
    5.4640   -4.7849   -0.2162 C   0  0  0  0  0  0  0  0  0  0  0  0
    5.0637   -3.4545   -0.8902 C   0  0  2  0  0  0  0  0  0  0  0  0
    5.7254   -3.4419   -2.1580 O   0  0  0  0  0  0  0  0  0  0  0  0
    5.0071   -2.5504   -3.1859 O   0  0  0  0  0  0  0  0  0  0  0  0
    4.0530   -1.6723   -2.5850 C   0  0  2  0  0  0  0  0  0  0  0  0
    3.3907   -0.9583   -3.7633 C   0  0  0  0  0  0  0  0  0  0  0  0
    4.6258   -0.7028   -1.7470 O   0  0  0  0  0  0  0  0  0  0  0  0
    5.8898   -1.2188   -1.1316 O   0  0  0  0  0  0  0  0  0  0  0  0
    5.6677   -2.2353   -0.1700 C   0  0  1  0  0  0  0  0  0  0  0  0
    5.0282   -1.7847    1.1602 C   0  0  1  0  0  0  0  0  0  0  0  0
    5.8093   -0.6550    1.8391 C   0  0  0  0  0  0  0  0  0  0  0  0
    3.5203   -1.4859    1.1146 C   0  0  0  0  0  0  0  0  0  0  0  0
    2.6205   -2.7246    1.2011 C   0  0  0  0  0  0  0  0  0  0  0  0
    2.6808   -3.8012    0.0725 C   0  0  1  0  0  0  0  0  0  0  0  0
    3.5370   -3.4476   -1.1641 C   0  0  1  0  0  0  0  0  0  0  0  0
    3.0288   -2.3519   -1.8915 O   0  0  0  0  0  0  0  0  0  0  0  0
    2.2824   -5.3112    2.6113 H   0  0  0  0  0  0  0  0  0  0  0  0
    2.4201   -6.8642    1.8044 H   0  0  0  0  0  0  0  0  0  0  0  0
    1.1278   -5.7696    1.3522 H   0  0  0  0  0  0  0  0  0  0  0  0
    2.9811   -5.8815   -0.2980 H   0  0  0  0  0  0  0  0  0  0  0  0
    4.7478   -4.6814    1.8551 H   0  0  0  0  0  0  0  0  0  0  0  0
    4.8464   -6.2751    1.2128 H   0  0  0  0  0  0  0  0  0  0  0  0
    6.5058   -4.7599    0.1032 H   0  0  0  0  0  0  0  0  0  0  0  0
    5.3946   -5.5588   -0.9832 H   0  0  0  0  0  0  0  0  0  0  0  0
    2.6551   -0.2284   -3.4104 H   0  0  0  0  0  0  0  0  0  0  0  0
    2.8757   -1.6924   -4.3884 H   0  0  0  0  0  0  0  0  0  0  0  0
    4.1301   -0.4434   -4.3926 H   0  0  0  0  0  0  0  0  0  0  0  0
    6.6947   -2.5043    0.0879 H   0  0  0  0  0  0  0  0  0  0  0  0
    5.1536   -2.6145    1.8416 H   0  0  0  0  0  0  0  0  0  0  0  0
    5.7015    0.2683    1.2736 H   0  0  0  0  0  0  0  0  0  0  0  0
    6.8692   -0.9049    1.9124 H   0  0  0  0  0  0  0  0  0  0  0  0
    5.4479   -0.4886    2.8583 H   0  0  0  0  0  0  0  0  0  0  0  0
    3.2665   -0.8718    1.9853 H   0  0  0  0  0  0  0  0  0  0  0  0
    3.2633   -0.8701    0.2580 H   0  0  0  0  0  0  0  0  0  0  0  0
    2.7682   -3.1861    2.1729 H   0  0  0  0  0  0  0  0  0  0  0  0
    1.6068   -2.3399    1.2240 H   0  0  0  0  0  0  0  0  0  0  0  0
    1.6750   -3.8979   -0.3303 H   0  0  0  0  0  0  0  0  0  0  0  0
    3.3964   -4.2234   -1.8895 H   0  0  0  0  0  0  0  0  0  0  0  0
  1  2  1  0
  1 20  1  0
  1 21  1  0
  1 22  1  0
  2 17  1  0
  2  3  1  0
  2 23  1  6
  3  4  1  0
  3 24  1  0
  3 25  1  0
  5  4  1  1
  4 26  1  0
  4 27  1  0
  5 12  1  0
  5 18  1  0
  5  6  1  0
  6  7  1  0
  7  8  1  0
  8 19  1  0
  8  9  1  6
  8 10  1  0
  9 28  1  0
  9 29  1  0
  9 30  1  0
 10 11  1  0
 11 12  1  0
 12 13  1  0
 12 31  1  1
 13 14  1  0
 13 15  1  0
 13 32  1  1
 14 33  1  0
 14 34  1  0
 14 35  1  0
 15 16  1  0
 15 36  1  0
 15 37  1  0
 16 17  1  0
 16 38  1  0
 16 39  1  0
 17 18  1  0
 17 40  1  6
 18 19  1  0
 18 41  1  6
M  END
>  <i_m_ct_stereo_status>  (289) 
1

>  <s_m_source_file>  (289) 
/var/tmp/pbs.5076255.sched01/tmpoq50wh_d/842pmd5wfz.sdf

>  <i_m_source_file_index>  (289) 
25

>  <i_lp_mmshare_version>  (289) 
48012

>  <i_f3d_flags>  (289) 
0

>  <s_epik_input>  (289) 
W0NIM11bQ0BIXTFbQ0gyXVtDSDJdW0NIXShbQ0BIXShbQ0gzXSlbQ0gyXVtDSDJdMilbQ0BIXTNPW0NAQF0oT080KShbQ0gzXSlPT1tDQEBIXTFbQ0BAXTIzNA==

>  <s_epik_cmdline>  (289) 
J2VwaWtfcHl0aG9uJywgJy1waHQnLCAnMi4wJywgJy1waCcsICc3LjAnLCAnLXRuJywgJzgnLCAnLW1hJywgJzIwMCcsICctaW1hZScsICc8aW5maWxlLm1hZT4nLCAnLW9tYWUnLCAnPG91dGZpbGUubWFlPic=

>  <r_lp_tautomer_probability>  (289) 
1

>  <r_epik_Ionization_Penalty>  (289) 
0

>  <r_epik_Ionization_Penalty_Charging>  (289) 
0

>  <r_epik_Ionization_Penalty_Neutral>  (289) 
0

>  <r_epik_State_Penalty>  (289) 
-0

>  <r_epik_Charging_Adjusted_Penalty>  (289) 
0

>  <i_epik_Tot_Q>  (289) 
0

>  <i_epik_Tot_abs_Q>  (289) 
0

>  <s_lp_Force_Field>  (289) 
OPLS3e

>  <r_lp_Energy>  (289) 
27.8177

>  <b_lp_Chiralities_Consistent>  (289) 
1

>  <s_lp_Variant>  (289) 
82:0-1

>  <s_i_glide_gridfile>  (289) 
pfpi4k_grid

>  <i_i_glide_lignum>  (289) 
25

>  <i_i_glide_rotatable_bonds>  (289) 
0

>  <r_i_docking_score>  (289) 
-3.42041

>  <r_i_glide_ligand_efficiency>  (289) 
-0.180022

>  <r_i_glide_ligand_efficiency_sa>  (289) 
-0.48037

>  <r_i_glide_ligand_efficiency_ln>  (289) 
-0.867148

>  <r_i_glide_gscore>  (289) 
-3.42041

>  <r_i_glide_lipo>  (289) 
-0.51147

>  <r_i_glide_hbond>  (289) 
-0.0851237

>  <r_i_glide_metal>  (289) 
-0

>  <r_i_glide_rewards>  (289) 
-1.56599

>  <r_i_glide_evdw>  (289) 
-24.028

>  <r_i_glide_ecoul>  (289) 
-0.234357

>  <r_i_glide_erotb>  (289) 
0

>  <r_i_glide_esite>  (289) 
-0.0212743

>  <r_i_glide_emodel>  (289) 
-28.7357

>  <r_i_glide_energy>  (289) 
-24.2624

>  <r_i_glide_einternal>  (289) 
0

>  <r_i_glide_intrahb_reward>  (289) 
-0

>  <i_i_glide_confnum>  (289) 
2

>  <i_i_glide_posenum>  (289) 
38

>  <r_i_glide_eff_state_penalty>  (289) 
0

>  <ligand_id>  (289) 
82

>  <original_smiles>  (289) 
CC1CCC23OOC4(C)OOC2C(C)CCC1C3O4

>  <smiles>  (289) 
[H]C([H])([H])C12OOC3([H])C([H])(C([H])([H])[H])C([H])([H])C([H])([H])C4([H])C([H])(O1)C3(OO2)C([H])([H])C([H])([H])C4([H])C([H])([H])[H]

$$$$
82:0:1
     RDKit          3D

 41 44  0  0  1  0  0  0  0  0999 V2000
    3.6921   -2.0732   -3.8657 C   0  0  0  0  0  0  0  0  0  0  0  0
    3.7024   -2.5474   -2.4043 C   0  0  2  0  0  0  0  0  0  0  0  0
    3.7950   -1.3873   -1.4119 C   0  0  0  0  0  0  0  0  0  0  0  0
    3.6341   -1.8851    0.0403 C   0  0  0  0  0  0  0  0  0  0  0  0
    4.5182   -3.0766    0.4380 C   0  0  2  0  0  0  0  0  0  0  0  0
    3.9393   -3.6066    1.6179 O   0  0  0  0  0  0  0  0  0  0  0  0
    4.3028   -5.0711    1.8280 O   0  0  0  0  0  0  0  0  0  0  0  0
    5.4170   -5.5188    1.0113 C   0  0  2  0  0  0  0  0  0  0  0  0
    5.5148   -6.9863    1.2968 C   0  0  0  0  0  0  0  0  0  0  0  0
    6.6441   -4.8601    1.3304 O   0  0  0  0  0  0  0  0  0  0  0  0
    6.3541   -3.5595    1.9372 O   0  0  0  0  0  0  0  0  0  0  0  0
    5.9189   -2.6325    0.9409 C   0  0  1  0  0  0  0  0  0  0  0  0
    6.9335   -2.1479   -0.1172 C   0  0  1  0  0  0  0  0  0  0  0  0
    8.2350   -1.6045    0.4698 C   0  0  0  0  0  0  0  0  0  0  0  0
    7.2449   -3.1394   -1.2273 C   0  0  0  0  0  0  0  0  0  0  0  0
    6.1992   -3.2091   -2.3400 C   0  0  0  0  0  0  0  0  0  0  0  0
    4.7457   -3.6373   -2.0594 C   0  0  1  0  0  0  0  0  0  0  0  0
    4.4326   -4.1781   -0.6528 C   0  0  1  0  0  0  0  0  0  0  0  0
    5.1295   -5.3665   -0.3629 O   0  0  0  0  0  0  0  0  0  0  0  0
    4.5614   -1.4668   -4.1229 H   0  0  0  0  0  0  0  0  0  0  0  0
    2.8092   -1.4577   -4.0580 H   0  0  0  0  0  0  0  0  0  0  0  0
    3.6396   -2.9236   -4.5464 H   0  0  0  0  0  0  0  0  0  0  0  0
    2.7169   -2.9933   -2.2593 H   0  0  0  0  0  0  0  0  0  0  0  0
    4.7072   -0.8058   -1.5565 H   0  0  0  0  0  0  0  0  0  0  0  0
    2.9943   -0.6856   -1.6264 H   0  0  0  0  0  0  0  0  0  0  0  0
    3.7713   -1.0554    0.7188 H   0  0  0  0  0  0  0  0  0  0  0  0
    2.5933   -2.1981    0.1854 H   0  0  0  0  0  0  0  0  0  0  0  0
    6.3734   -7.4240    0.7947 H   0  0  0  0  0  0  0  0  0  0  0  0
    4.6164   -7.5184    0.9542 H   0  0  0  0  0  0  0  0  0  0  0  0
    5.6416   -7.2195    2.3546 H   0  0  0  0  0  0  0  0  0  0  0  0
    5.7395   -1.7583    1.5486 H   0  0  0  0  0  0  0  0  0  0  0  0
    6.4770   -1.2789   -0.5877 H   0  0  0  0  0  0  0  0  0  0  0  0
    8.8339   -2.4188    0.8697 H   0  0  0  0  0  0  0  0  0  0  0  0
    8.0179   -0.8930    1.2645 H   0  0  0  0  0  0  0  0  0  0  0  0
    8.8558   -1.0954   -0.2594 H   0  0  0  0  0  0  0  0  0  0  0  0
    8.1824   -2.8582   -1.7090 H   0  0  0  0  0  0  0  0  0  0  0  0
    7.4363   -4.1090   -0.7701 H   0  0  0  0  0  0  0  0  0  0  0  0
    6.1821   -2.2773   -2.8675 H   0  0  0  0  0  0  0  0  0  0  0  0
    6.5984   -3.8556   -3.1006 H   0  0  0  0  0  0  0  0  0  0  0  0
    4.5830   -4.4608   -2.7496 H   0  0  0  0  0  0  0  0  0  0  0  0
    3.3796   -4.5028   -0.6515 H   0  0  0  0  0  0  0  0  0  0  0  0
  1  2  1  0
  1 20  1  0
  1 21  1  0
  1 22  1  0
  2 17  1  0
  2  3  1  0
  2 23  1  1
  3  4  1  0
  3 24  1  0
  3 25  1  0
  5  4  1  6
  4 26  1  0
  4 27  1  0
  5 12  1  0
  5 18  1  0
  5  6  1  0
  6  7  1  0
  7  8  1  0
  8 19  1  0
  8  9  1  6
  8 10  1  0
  9 28  1  0
  9 29  1  0
  9 30  1  0
 10 11  1  0
 11 12  1  0
 12 13  1  0
 12 31  1  1
 13 14  1  0
 13 15  1  0
 13 32  1  6
 14 33  1  0
 14 34  1  0
 14 35  1  0
 15 16  1  0
 15 36  1  0
 15 37  1  0
 16 17  1  0
 16 38  1  0
 16 39  1  0
 17 18  1  0
 17 40  1  6
 18 19  1  0
 18 41  1  6
M  END
>  <i_m_ct_stereo_status>  (290) 
1

>  <s_m_source_file>  (290) 
/var/tmp/pbs.5076255.sched01/tmpoq50wh_d/842pmd5wfz.sdf

>  <i_m_source_file_index>  (290) 
25

>  <i_lp_mmshare_version>  (290) 
48012

>  <i_f3d_flags>  (290) 
0

>  <s_epik_input>  (290) 
W0NIM11bQ0BIXTFbQ0gyXVtDSDJdW0NIXShbQ0BIXShbQ0gzXSlbQ0gyXVtDSDJdMilbQ0BIXTNPW0NAQF0oT080KShbQ0gzXSlPT1tDQEBIXTFbQ0BAXTIzNA==

>  <s_epik_cmdline>  (290) 
J2VwaWtfcHl0aG9uJywgJy1waHQnLCAnMi4wJywgJy1waCcsICc3LjAnLCAnLXRuJywgJzgnLCAnLW1hJywgJzIwMCcsICctaW1hZScsICc8aW5maWxlLm1hZT4nLCAnLW9tYWUnLCAnPG91dGZpbGUubWFlPic=

>  <r_lp_tautomer_probability>  (290) 
1

>  <r_epik_Ionization_Penalty>  (290) 
0

>  <r_epik_Ionization_Penalty_Charging>  (290) 
0

>  <r_epik_Ionization_Penalty_Neutral>  (290) 
0

>  <r_epik_State_Penalty>  (290) 
-0

>  <r_epik_Charging_Adjusted_Penalty>  (290) 
0

>  <i_epik_Tot_Q>  (290) 
0

>  <i_epik_Tot_abs_Q>  (290) 
0

>  <s_lp_Force_Field>  (290) 
OPLS3e

>  <r_lp_Energy>  (290) 
27.8177

>  <b_lp_Chiralities_Consistent>  (290) 
1

>  <s_lp_Variant>  (290) 
82:0-1

>  <s_i_glide_gridfile>  (290) 
pfpi4k_grid

>  <i_i_glide_lignum>  (290) 
25

>  <i_i_glide_rotatable_bonds>  (290) 
0

>  <r_i_docking_score>  (290) 
-3.29842

>  <r_i_glide_ligand_efficiency>  (290) 
-0.173601

>  <r_i_glide_ligand_efficiency_sa>  (290) 
-0.463238

>  <r_i_glide_ligand_efficiency_ln>  (290) 
-0.836221

>  <r_i_glide_gscore>  (290) 
-3.29842

>  <r_i_glide_lipo>  (290) 
-0.541829

>  <r_i_glide_hbond>  (290) 
0

>  <r_i_glide_metal>  (290) 
-0

>  <r_i_glide_rewards>  (290) 
-1.67568

>  <r_i_glide_evdw>  (290) 
-20.2827

>  <r_i_glide_ecoul>  (290) 
-0.445175

>  <r_i_glide_erotb>  (290) 
0

>  <r_i_glide_esite>  (290) 
0

>  <r_i_glide_emodel>  (290) 
-24.9528

>  <r_i_glide_energy>  (290) 
-20.7279

>  <r_i_glide_einternal>  (290) 
0

>  <r_i_glide_intrahb_reward>  (290) 
-0

>  <i_i_glide_confnum>  (290) 
1

>  <i_i_glide_posenum>  (290) 
11

>  <r_i_glide_eff_state_penalty>  (290) 
0

>  <ligand_id>  (290) 
82

>  <original_smiles>  (290) 
CC1CCC23OOC4(C)OOC2C(C)CCC1C3O4

>  <smiles>  (290) 
[H]C([H])([H])C12OOC3([H])C([H])(C([H])([H])[H])C([H])([H])C([H])([H])C4([H])C([H])(O1)C3(OO2)C([H])([H])C([H])([H])C4([H])C([H])([H])[H]

$$$$
82:0:2
     RDKit          3D

 41 44  0  0  1  0  0  0  0  0999 V2000
    2.3780   -5.0406    2.4634 C   0  0  0  0  0  0  0  0  0  0  0  0
    3.0441   -4.8396    1.0886 C   0  0  2  0  0  0  0  0  0  0  0  0
    4.5150   -5.2842    1.0828 C   0  0  0  0  0  0  0  0  0  0  0  0
    5.1227   -5.2057   -0.3355 C   0  0  0  0  0  0  0  0  0  0  0  0
    4.8857   -3.8794   -1.0995 C   0  0  2  0  0  0  0  0  0  0  0  0
    5.0879   -4.1967   -2.4826 O   0  0  0  0  0  0  0  0  0  0  0  0
    4.4330   -3.1775   -3.4383 O   0  0  0  0  0  0  0  0  0  0  0  0
    3.9522   -2.0155   -2.7449 C   0  0  2  0  0  0  0  0  0  0  0  0
    3.1605   -1.2494   -3.8110 C   0  0  0  0  0  0  0  0  0  0  0  0
    4.9670   -1.1655   -2.2679 O   0  0  0  0  0  0  0  0  0  0  0  0
    6.1955   -1.9677   -1.9015 O   0  0  0  0  0  0  0  0  0  0  0  0
    5.9736   -2.8264   -0.7837 C   0  0  1  0  0  0  0  0  0  0  0  0
    5.8847   -2.1111    0.5824 C   0  0  1  0  0  0  0  0  0  0  0  0
    7.0903   -1.2095    0.8314 C   0  0  0  0  0  0  0  0  0  0  0  0
    4.5675   -1.3750    0.8797 C   0  0  0  0  0  0  0  0  0  0  0  0
    3.4323   -2.2759    1.3985 C   0  0  0  0  0  0  0  0  0  0  0  0
    2.8872   -3.4152    0.4920 C   0  0  1  0  0  0  0  0  0  0  0  0
    3.4041   -3.4570   -0.9644 C   0  0  1  0  0  0  0  0  0  0  0  0
    3.0373   -2.3252   -1.7195 O   0  0  0  0  0  0  0  0  0  0  0  0
    2.8992   -4.5166    3.2645 H   0  0  0  0  0  0  0  0  0  0  0  0
    2.3705   -6.0989    2.7264 H   0  0  0  0  0  0  0  0  0  0  0  0
    1.3442   -4.6996    2.4551 H   0  0  0  0  0  0  0  0  0  0  0  0
    2.5215   -5.5217    0.4145 H   0  0  0  0  0  0  0  0  0  0  0  0
    5.0923   -4.7117    1.8027 H   0  0  0  0  0  0  0  0  0  0  0  0
    4.5833   -6.3145    1.4350 H   0  0  0  0  0  0  0  0  0  0  0  0
    6.1862   -5.4457   -0.2917 H   0  0  0  0  0  0  0  0  0  0  0  0
    4.6545   -6.0043   -0.9111 H   0  0  0  0  0  0  0  0  0  0  0  0
    2.7612   -0.3078   -3.4112 H   0  0  0  0  0  0  0  0  0  0  0  0
    2.3125   -1.8482   -4.1548 H   0  0  0  0  0  0  0  0  0  0  0  0
    3.7702   -1.0176   -4.6932 H   0  0  0  0  0  0  0  0  0  0  0  0
    6.9220   -3.3721   -0.7604 H   0  0  0  0  0  0  0  0  0  0  0  0
    5.9959   -2.8792    1.3365 H   0  0  0  0  0  0  0  0  0  0  0  0
    7.0595   -0.3275    0.1955 H   0  0  0  0  0  0  0  0  0  0  0  0
    8.0318   -1.7328    0.6675 H   0  0  0  0  0  0  0  0  0  0  0  0
    7.0883   -0.8714    1.8690 H   0  0  0  0  0  0  0  0  0  0  0  0
    4.7567   -0.6466    1.6723 H   0  0  0  0  0  0  0  0  0  0  0  0
    4.2443   -0.7776    0.0318 H   0  0  0  0  0  0  0  0  0  0  0  0
    3.7376   -2.6700    2.3649 H   0  0  0  0  0  0  0  0  0  0  0  0
    2.5955   -1.6187    1.6271 H   0  0  0  0  0  0  0  0  0  0  0  0
    1.8183   -3.2288    0.4055 H   0  0  0  0  0  0  0  0  0  0  0  0
    2.8328   -4.2429   -1.4603 H   0  0  0  0  0  0  0  0  0  0  0  0
  1  2  1  0
  1 20  1  0
  1 21  1  0
  1 22  1  0
  2 17  1  0
  2  3  1  0
  2 23  1  6
  3  4  1  0
  3 24  1  0
  3 25  1  0
  5  4  1  1
  4 26  1  0
  4 27  1  0
  5 12  1  0
  5 18  1  0
  5  6  1  0
  6  7  1  0
  7  8  1  0
  8 19  1  0
  8  9  1  6
  8 10  1  0
  9 28  1  0
  9 29  1  0
  9 30  1  0
 10 11  1  0
 11 12  1  0
 12 13  1  0
 12 31  1  1
 13 14  1  0
 13 15  1  0
 13 32  1  1
 14 33  1  0
 14 34  1  0
 14 35  1  0
 15 16  1  0
 15 36  1  0
 15 37  1  0
 16 17  1  0
 16 38  1  0
 16 39  1  0
 17 18  1  0
 17 40  1  6
 18 19  1  0
 18 41  1  6
M  END
>  <i_m_ct_stereo_status>  (291) 
1

>  <s_m_source_file>  (291) 
/var/tmp/pbs.5076255.sched01/tmpoq50wh_d/842pmd5wfz.sdf

>  <i_m_source_file_index>  (291) 
25

>  <i_lp_mmshare_version>  (291) 
48012

>  <i_f3d_flags>  (291) 
0

>  <s_epik_input>  (291) 
W0NIM11bQ0BIXTFbQ0gyXVtDSDJdW0NIXShbQ0BIXShbQ0gzXSlbQ0gyXVtDSDJdMilbQ0BIXTNPW0NAQF0oT080KShbQ0gzXSlPT1tDQEBIXTFbQ0BAXTIzNA==

>  <s_epik_cmdline>  (291) 
J2VwaWtfcHl0aG9uJywgJy1waHQnLCAnMi4wJywgJy1waCcsICc3LjAnLCAnLXRuJywgJzgnLCAnLW1hJywgJzIwMCcsICctaW1hZScsICc8aW5maWxlLm1hZT4nLCAnLW9tYWUnLCAnPG91dGZpbGUubWFlPic=

>  <r_lp_tautomer_probability>  (291) 
1

>  <r_epik_Ionization_Penalty>  (291) 
0

>  <r_epik_Ionization_Penalty_Charging>  (291) 
0

>  <r_epik_Ionization_Penalty_Neutral>  (291) 
0

>  <r_epik_State_Penalty>  (291) 
-0

>  <r_epik_Charging_Adjusted_Penalty>  (291) 
0

>  <i_epik_Tot_Q>  (291) 
0

>  <i_epik_Tot_abs_Q>  (291) 
0

>  <s_lp_Force_Field>  (291) 
OPLS3e

>  <r_lp_Energy>  (291) 
27.8177

>  <b_lp_Chiralities_Consistent>  (291) 
1

>  <s_lp_Variant>  (291) 
82:0-1

>  <s_i_glide_gridfile>  (291) 
pfpi4k_grid

>  <i_i_glide_lignum>  (291) 
25

>  <i_i_glide_rotatable_bonds>  (291) 
0

>  <r_i_docking_score>  (291) 
-3.28924

>  <r_i_glide_ligand_efficiency>  (291) 
-0.173118

>  <r_i_glide_ligand_efficiency_sa>  (291) 
-0.461948

>  <r_i_glide_ligand_efficiency_ln>  (291) 
-0.833892

>  <r_i_glide_gscore>  (291) 
-3.28924

>  <r_i_glide_lipo>  (291) 
-0.346544

>  <r_i_glide_hbond>  (291) 
-0.123721

>  <r_i_glide_metal>  (291) 
-0

>  <r_i_glide_rewards>  (291) 
-1.60073

>  <r_i_glide_evdw>  (291) 
-23.2102

>  <r_i_glide_ecoul>  (291) 
-0.384874

>  <r_i_glide_erotb>  (291) 
0

>  <r_i_glide_esite>  (291) 
0

>  <r_i_glide_emodel>  (291) 
-28.0242

>  <r_i_glide_energy>  (291) 
-23.5951

>  <r_i_glide_einternal>  (291) 
0

>  <r_i_glide_intrahb_reward>  (291) 
-0

>  <i_i_glide_confnum>  (291) 
1

>  <i_i_glide_posenum>  (291) 
20

>  <r_i_glide_eff_state_penalty>  (291) 
0

>  <ligand_id>  (291) 
82

>  <original_smiles>  (291) 
CC1CCC23OOC4(C)OOC2C(C)CCC1C3O4

>  <smiles>  (291) 
[H]C([H])([H])C12OOC3([H])C([H])(C([H])([H])[H])C([H])([H])C([H])([H])C4([H])C([H])(O1)C3(OO2)C([H])([H])C([H])([H])C4([H])C([H])([H])[H]

$$$$
82:1:0
     RDKit          3D

 41 44  0  0  1  0  0  0  0  0999 V2000
    2.5272   -3.0503   -3.4424 C   0  0  0  0  0  0  0  0  0  0  0  0
    3.3421   -2.1644   -2.4866 C   0  0  2  0  0  0  0  0  0  0  0  0
    4.8255   -1.9768   -2.9748 C   0  0  0  0  0  0  0  0  0  0  0  0
    5.9481   -2.7427   -2.1537 C   0  0  0  0  0  0  0  0  0  0  0  0
    5.8192   -2.6295   -0.5869 C   0  0  2  0  0  0  0  0  0  0  0  0
    6.8789   -1.7819   -0.1256 O   0  0  0  0  0  0  0  0  0  0  0  0
    6.5229   -1.0732    1.2002 O   0  0  0  0  0  0  0  0  0  0  0  0
    5.4169   -1.6991    1.8733 C   0  0  2  0  0  0  0  0  0  0  0  0
    5.1372   -0.8104    3.0900 C   0  0  0  0  0  0  0  0  0  0  0  0
    5.6809   -2.9949    2.3630 O   0  0  0  0  0  0  0  0  0  0  0  0
    6.5831   -3.7563    1.4229 O   0  0  0  0  0  0  0  0  0  0  0  0
    5.9678   -4.0011    0.1657 C   0  0  1  0  0  0  0  0  0  0  0  0
    4.7630   -5.0325    0.2242 C   0  0  1  0  0  0  0  0  0  0  0  0
    5.1554   -6.3250    0.9611 C   0  0  0  0  0  0  0  0  0  0  0  0
    3.3458   -4.5327    0.7052 C   0  0  0  0  0  0  0  0  0  0  0  0
    2.5246   -3.6007   -0.2507 C   0  0  0  0  0  0  0  0  0  0  0  0
    3.4567   -2.7258   -1.0651 C   0  0  2  0  0  0  0  0  0  0  0  0
    4.5023   -1.9271   -0.2723 C   0  0  1  0  0  0  0  0  0  0  0  0
    4.2355   -1.7028    1.0918 O   0  0  0  0  0  0  0  0  0  0  0  0
    2.9498   -4.0509   -3.5461 H   0  0  0  0  0  0  0  0  0  0  0  0
    2.4824   -2.6118   -4.4344 H   0  0  0  0  0  0  0  0  0  0  0  0
    1.5028   -3.1474   -3.0853 H   0  0  0  0  0  0  0  0  0  0  0  0
    2.8527   -1.1867   -2.4435 H   0  0  0  0  0  0  0  0  0  0  0  0
    4.9156   -2.2166   -4.0312 H   0  0  0  0  0  0  0  0  0  0  0  0
    5.0445   -0.9137   -2.9096 H   0  0  0  0  0  0  0  0  0  0  0  0
    5.8779   -3.7938   -2.4339 H   0  0  0  0  0  0  0  0  0  0  0  0
    6.9493   -2.4543   -2.4768 H   0  0  0  0  0  0  0  0  0  0  0  0
    4.3158   -1.2058    3.6997 H   0  0  0  0  0  0  0  0  0  0  0  0
    4.8594    0.1974    2.7722 H   0  0  0  0  0  0  0  0  0  0  0  0
    6.0184   -0.7083    3.7359 H   0  0  0  0  0  0  0  0  0  0  0  0
    6.7793   -4.5337   -0.3377 H   0  0  0  0  0  0  0  0  0  0  0  0
    4.6437   -5.3929   -0.7956 H   0  0  0  0  0  0  0  0  0  0  0  0
    5.2416   -6.1618    2.0336 H   0  0  0  0  0  0  0  0  0  0  0  0
    6.1042   -6.7111    0.5918 H   0  0  0  0  0  0  0  0  0  0  0  0
    4.4067   -7.1034    0.7945 H   0  0  0  0  0  0  0  0  0  0  0  0
    2.7192   -5.4059    0.8954 H   0  0  0  0  0  0  0  0  0  0  0  0
    3.4579   -4.0571    1.6777 H   0  0  0  0  0  0  0  0  0  0  0  0
    1.9199   -4.2102   -0.9241 H   0  0  0  0  0  0  0  0  0  0  0  0
    1.8378   -2.9822    0.3195 H   0  0  0  0  0  0  0  0  0  0  0  0
    3.8847   -3.6177   -1.4741 H   0  0  0  0  0  0  0  0  0  0  0  0
    4.5521   -0.9085   -0.6572 H   0  0  0  0  0  0  0  0  0  0  0  0
  1  2  1  0
  1 20  1  0
  1 21  1  0
  1 22  1  0
  2 17  1  0
  2  3  1  0
  2 23  1  1
  3  4  1  0
  3 24  1  0
  3 25  1  0
  5  4  1  6
  4 26  1  0
  4 27  1  0
  5 12  1  0
  5 18  1  0
  5  6  1  0
  6  7  1  0
  7  8  1  0
  8 19  1  0
  8  9  1  1
  8 10  1  0
  9 28  1  0
  9 29  1  0
  9 30  1  0
 10 11  1  0
 11 12  1  0
 12 13  1  0
 12 31  1  6
 13 14  1  0
 13 15  1  0
 13 32  1  6
 14 33  1  0
 14 34  1  0
 14 35  1  0
 15 16  1  0
 15 36  1  0
 15 37  1  0
 16 17  1  0
 16 38  1  0
 16 39  1  0
 17 18  1  0
 17 40  1  6
 18 19  1  0
 18 41  1  6
M  END
>  <i_m_ct_stereo_status>  (292) 
1

>  <s_m_source_file>  (292) 
/var/tmp/pbs.5076255.sched01/tmpoq50wh_d/842pmd5wfz.sdf

>  <i_m_source_file_index>  (292) 
26

>  <i_lp_mmshare_version>  (292) 
48012

>  <i_f3d_flags>  (292) 
0

>  <s_epik_input>  (292) 
W0NIM11bQ0BIXTFbQ0gyXVtDSDJdW0NIXShbQ0BIXShbQ0gzXSlbQ0gyXVtDSDJdMilbQ0BIXTNPW0NAQF0oT080KShbQ0gzXSlPT1tDQEBIXTFbQ0BAXTIzNA==

>  <s_epik_cmdline>  (292) 
J2VwaWtfcHl0aG9uJywgJy1waHQnLCAnMi4wJywgJy1waCcsICc3LjAnLCAnLXRuJywgJzgnLCAnLW1hJywgJzIwMCcsICctaW1hZScsICc8aW5maWxlLm1hZT4nLCAnLW9tYWUnLCAnPG91dGZpbGUubWFlPic=

>  <r_lp_tautomer_probability>  (292) 
1

>  <r_epik_Ionization_Penalty>  (292) 
0

>  <r_epik_Ionization_Penalty_Charging>  (292) 
0

>  <r_epik_Ionization_Penalty_Neutral>  (292) 
0

>  <r_epik_State_Penalty>  (292) 
-0

>  <r_epik_Charging_Adjusted_Penalty>  (292) 
0

>  <i_epik_Tot_Q>  (292) 
0

>  <i_epik_Tot_abs_Q>  (292) 
0

>  <s_lp_Force_Field>  (292) 
OPLS3e

>  <r_lp_Energy>  (292) 
64.9119

>  <b_lp_Chiralities_Consistent>  (292) 
1

>  <s_lp_Variant>  (292) 
82:0-2

>  <s_i_glide_gridfile>  (292) 
pfpi4k_grid

>  <i_i_glide_lignum>  (292) 
26

>  <i_i_glide_rotatable_bonds>  (292) 
0

>  <r_i_docking_score>  (292) 
-3.72065

>  <r_i_glide_ligand_efficiency>  (292) 
-0.195823

>  <r_i_glide_ligand_efficiency_sa>  (292) 
-0.522536

>  <r_i_glide_ligand_efficiency_ln>  (292) 
-0.943264

>  <r_i_glide_gscore>  (292) 
-3.72065

>  <r_i_glide_lipo>  (292) 
-0.644882

>  <r_i_glide_hbond>  (292) 
-0.100161

>  <r_i_glide_metal>  (292) 
-0

>  <r_i_glide_rewards>  (292) 
-1.70212

>  <r_i_glide_evdw>  (292) 
-23.9752

>  <r_i_glide_ecoul>  (292) 
-0.498129

>  <r_i_glide_erotb>  (292) 
0

>  <r_i_glide_esite>  (292) 
0

>  <r_i_glide_emodel>  (292) 
-29.5097

>  <r_i_glide_energy>  (292) 
-24.4733

>  <r_i_glide_einternal>  (292) 
0

>  <r_i_glide_intrahb_reward>  (292) 
-0

>  <i_i_glide_confnum>  (292) 
1

>  <i_i_glide_posenum>  (292) 
8

>  <r_i_glide_eff_state_penalty>  (292) 
0

>  <ligand_id>  (292) 
82

>  <original_smiles>  (292) 
CC1CCC23OOC4(C)OOC2C(C)CCC1C3O4

>  <smiles>  (292) 
[H]C([H])([H])C12OOC3([H])C([H])(C([H])([H])[H])C([H])([H])C([H])([H])C4([H])C([H])(O1)C3(OO2)C([H])([H])C([H])([H])C4([H])C([H])([H])[H]

$$$$
82:1:1
     RDKit          3D

 41 44  0  0  1  0  0  0  0  0999 V2000
    2.5394   -5.4558    2.6989 C   0  0  0  0  0  0  0  0  0  0  0  0
    2.7152   -5.2034    1.1951 C   0  0  2  0  0  0  0  0  0  0  0  0
    3.9164   -6.0210    0.5889 C   0  0  0  0  0  0  0  0  0  0  0  0
    5.2063   -5.1983    0.1881 C   0  0  0  0  0  0  0  0  0  0  0  0
    4.9279   -3.8624   -0.6097 C   0  0  2  0  0  0  0  0  0  0  0  0
    5.3711   -4.0485   -1.9591 O   0  0  0  0  0  0  0  0  0  0  0  0
    4.6203   -3.1202   -2.9523 O   0  0  0  0  0  0  0  0  0  0  0  0
    3.9593   -2.0500   -2.2869 C   0  0  2  0  0  0  0  0  0  0  0  0
    3.1794   -1.3401   -3.3955 C   0  0  0  0  0  0  0  0  0  0  0  0
    4.8315   -1.1039   -1.7173 O   0  0  0  0  0  0  0  0  0  0  0  0
    6.0517   -1.7975   -1.1701 O   0  0  0  0  0  0  0  0  0  0  0  0
    5.7280   -2.6345   -0.0678 C   0  0  1  0  0  0  0  0  0  0  0  0
    5.2278   -1.8688    1.2232 C   0  0  1  0  0  0  0  0  0  0  0  0
    6.1769   -0.7399    1.6067 C   0  0  0  0  0  0  0  0  0  0  0  0
    3.7378   -1.3667    1.3188 C   0  0  0  0  0  0  0  0  0  0  0  0
    2.6118   -2.4375    1.5281 C   0  0  0  0  0  0  0  0  0  0  0  0
    3.0096   -3.7337    0.8429 C   0  0  2  0  0  0  0  0  0  0  0  0
    3.4281   -3.6303   -0.6272 C   0  0  1  0  0  0  0  0  0  0  0  0
    3.0143   -2.4772   -1.3357 O   0  0  0  0  0  0  0  0  0  0  0  0
    3.4274   -5.1772    3.2671 H   0  0  0  0  0  0  0  0  0  0  0  0
    2.3400   -6.5083    2.8951 H   0  0  0  0  0  0  0  0  0  0  0  0
    1.6993   -4.8860    3.0878 H   0  0  0  0  0  0  0  0  0  0  0  0
    1.7980   -5.5075    0.6886 H   0  0  0  0  0  0  0  0  0  0  0  0
    4.1989   -6.8470    1.2434 H   0  0  0  0  0  0  0  0  0  0  0  0
    3.5556   -6.5143   -0.3188 H   0  0  0  0  0  0  0  0  0  0  0  0
    5.7179   -4.9504    1.1170 H   0  0  0  0  0  0  0  0  0  0  0  0
    5.8927   -5.8384   -0.3578 H   0  0  0  0  0  0  0  0  0  0  0  0
    2.6312   -0.4647   -3.0151 H   0  0  0  0  0  0  0  0  0  0  0  0
    2.4366   -2.0197   -3.8447 H   0  0  0  0  0  0  0  0  0  0  0  0
    3.8340   -1.0011   -4.2144 H   0  0  0  0  0  0  0  0  0  0  0  0
    6.7148   -3.0144    0.1874 H   0  0  0  0  0  0  0  0  0  0  0  0
    5.3827   -2.5635    2.0440 H   0  0  0  0  0  0  0  0  0  0  0  0
    6.0880    0.0926    0.9097 H   0  0  0  0  0  0  0  0  0  0  0  0
    7.2144   -1.0733    1.6167 H   0  0  0  0  0  0  0  0  0  0  0  0
    5.9569   -0.3742    2.6154 H   0  0  0  0  0  0  0  0  0  0  0  0
    3.6503   -0.6770    2.1616 H   0  0  0  0  0  0  0  0  0  0  0  0
    3.5122   -0.7615    0.4419 H   0  0  0  0  0  0  0  0  0  0  0  0
    2.4702   -2.6169    2.5925 H   0  0  0  0  0  0  0  0  0  0  0  0
    1.6651   -2.0632    1.1424 H   0  0  0  0  0  0  0  0  0  0  0  0
    3.8656   -3.7832    1.4838 H   0  0  0  0  0  0  0  0  0  0  0  0
    2.9327   -4.4276   -1.1704 H   0  0  0  0  0  0  0  0  0  0  0  0
  1  2  1  0
  1 20  1  0
  1 21  1  0
  1 22  1  0
  2 17  1  0
  2  3  1  0
  2 23  1  6
  3  4  1  0
  3 24  1  0
  3 25  1  0
  5  4  1  1
  4 26  1  0
  4 27  1  0
  5 12  1  0
  5 18  1  0
  5  6  1  0
  6  7  1  0
  7  8  1  0
  8 19  1  0
  8  9  1  6
  8 10  1  0
  9 28  1  0
  9 29  1  0
  9 30  1  0
 10 11  1  0
 11 12  1  0
 12 13  1  0
 12 31  1  1
 13 14  1  0
 13 15  1  0
 13 32  1  1
 14 33  1  0
 14 34  1  0
 14 35  1  0
 15 16  1  0
 15 36  1  0
 15 37  1  0
 16 17  1  0
 16 38  1  0
 16 39  1  0
 17 18  1  0
 17 40  1  1
 18 19  1  0
 18 41  1  6
M  END
>  <i_m_ct_stereo_status>  (293) 
1

>  <s_m_source_file>  (293) 
/var/tmp/pbs.5076255.sched01/tmpoq50wh_d/842pmd5wfz.sdf

>  <i_m_source_file_index>  (293) 
26

>  <i_lp_mmshare_version>  (293) 
48012

>  <i_f3d_flags>  (293) 
0

>  <s_epik_input>  (293) 
W0NIM11bQ0BIXTFbQ0gyXVtDSDJdW0NIXShbQ0BIXShbQ0gzXSlbQ0gyXVtDSDJdMilbQ0BIXTNPW0NAQF0oT080KShbQ0gzXSlPT1tDQEBIXTFbQ0BAXTIzNA==

>  <s_epik_cmdline>  (293) 
J2VwaWtfcHl0aG9uJywgJy1waHQnLCAnMi4wJywgJy1waCcsICc3LjAnLCAnLXRuJywgJzgnLCAnLW1hJywgJzIwMCcsICctaW1hZScsICc8aW5maWxlLm1hZT4nLCAnLW9tYWUnLCAnPG91dGZpbGUubWFlPic=

>  <r_lp_tautomer_probability>  (293) 
1

>  <r_epik_Ionization_Penalty>  (293) 
0

>  <r_epik_Ionization_Penalty_Charging>  (293) 
0

>  <r_epik_Ionization_Penalty_Neutral>  (293) 
0

>  <r_epik_State_Penalty>  (293) 
-0

>  <r_epik_Charging_Adjusted_Penalty>  (293) 
0

>  <i_epik_Tot_Q>  (293) 
0

>  <i_epik_Tot_abs_Q>  (293) 
0

>  <s_lp_Force_Field>  (293) 
OPLS3e

>  <r_lp_Energy>  (293) 
64.9119

>  <b_lp_Chiralities_Consistent>  (293) 
1

>  <s_lp_Variant>  (293) 
82:0-2

>  <s_i_glide_gridfile>  (293) 
pfpi4k_grid

>  <i_i_glide_lignum>  (293) 
26

>  <i_i_glide_rotatable_bonds>  (293) 
0

>  <r_i_docking_score>  (293) 
-3.26025

>  <r_i_glide_ligand_efficiency>  (293) 
-0.171592

>  <r_i_glide_ligand_efficiency_sa>  (293) 
-0.457877

>  <r_i_glide_ligand_efficiency_ln>  (293) 
-0.826543

>  <r_i_glide_gscore>  (293) 
-3.26025

>  <r_i_glide_lipo>  (293) 
-0.468384

>  <r_i_glide_hbond>  (293) 
-0.0994077

>  <r_i_glide_metal>  (293) 
-0

>  <r_i_glide_rewards>  (293) 
-1.56599

>  <r_i_glide_evdw>  (293) 
-22.202

>  <r_i_glide_ecoul>  (293) 
-0.0284501

>  <r_i_glide_erotb>  (293) 
0

>  <r_i_glide_esite>  (293) 
-0.0121024

>  <r_i_glide_emodel>  (293) 
-26.5814

>  <r_i_glide_energy>  (293) 
-22.2304

>  <r_i_glide_einternal>  (293) 
0

>  <r_i_glide_intrahb_reward>  (293) 
-0

>  <i_i_glide_confnum>  (293) 
1

>  <i_i_glide_posenum>  (293) 
2

>  <r_i_glide_eff_state_penalty>  (293) 
0

>  <ligand_id>  (293) 
82

>  <original_smiles>  (293) 
CC1CCC23OOC4(C)OOC2C(C)CCC1C3O4

>  <smiles>  (293) 
[H]C([H])([H])C12OOC3([H])C([H])(C([H])([H])[H])C([H])([H])C([H])([H])C4([H])C([H])(O1)C3(OO2)C([H])([H])C([H])([H])C4([H])C([H])([H])[H]

$$$$
82:1:2
     RDKit          3D

 41 44  0  0  1  0  0  0  0  0999 V2000
    3.8396   -3.5446   -3.9767 C   0  0  0  0  0  0  0  0  0  0  0  0
    3.2956   -2.8692   -2.7077 C   0  0  2  0  0  0  0  0  0  0  0  0
    3.4591   -1.3096   -2.7786 C   0  0  0  0  0  0  0  0  0  0  0  0
    4.6021   -0.6904   -1.8713 C   0  0  0  0  0  0  0  0  0  0  0  0
    4.6205   -1.2353   -0.3769 C   0  0  2  0  0  0  0  0  0  0  0  0
    4.1771   -0.1815    0.4821 O   0  0  0  0  0  0  0  0  0  0  0  0
    3.5323   -0.7315    1.7762 O   0  0  0  0  0  0  0  0  0  0  0  0
    3.9070   -2.0947    2.0355 C   0  0  2  0  0  0  0  0  0  0  0  0
    3.0972   -2.4896    3.2781 C   0  0  0  0  0  0  0  0  0  0  0  0
    5.2686   -2.3005    2.3329 O   0  0  0  0  0  0  0  0  0  0  0  0
    6.1128   -1.3351    1.5349 O   0  0  0  0  0  0  0  0  0  0  0  0
    6.0397   -1.6295    0.1488 C   0  0  1  0  0  0  0  0  0  0  0  0
    6.7080   -2.9947   -0.3007 C   0  0  1  0  0  0  0  0  0  0  0  0
    8.1393   -3.1456    0.2347 C   0  0  0  0  0  0  0  0  0  0  0  0
    5.8962   -4.3258   -0.0834 C   0  0  0  0  0  0  0  0  0  0  0  0
    4.6803   -4.6074   -1.0229 C   0  0  0  0  0  0  0  0  0  0  0  0
    4.0092   -3.3089   -1.4276 C   0  0  2  0  0  0  0  0  0  0  0  0
    3.6259   -2.3792   -0.2729 C   0  0  1  0  0  0  0  0  0  0  0  0
    3.4868   -2.9720    1.0002 O   0  0  0  0  0  0  0  0  0  0  0  0
    4.9025   -3.3481   -4.1413 H   0  0  0  0  0  0  0  0  0  0  0  0
    3.2897   -3.1863   -4.8443 H   0  0  0  0  0  0  0  0  0  0  0  0
    3.7166   -4.6151   -3.9375 H   0  0  0  0  0  0  0  0  0  0  0  0
    2.2352   -3.1076   -2.6398 H   0  0  0  0  0  0  0  0  0  0  0  0
    3.6102   -0.9756   -3.8065 H   0  0  0  0  0  0  0  0  0  0  0  0
    2.5283   -0.8444   -2.4718 H   0  0  0  0  0  0  0  0  0  0  0  0
    5.5570   -0.9400   -2.3210 H   0  0  0  0  0  0  0  0  0  0  0  0
    4.4972    0.3616   -1.9230 H   0  0  0  0  0  0  0  0  0  0  0  0
    3.3116   -3.5192    3.5820 H   0  0  0  0  0  0  0  0  0  0  0  0
    2.0256   -2.4135    3.0863 H   0  0  0  0  0  0  0  0  0  0  0  0
    3.3197   -1.8346    4.1255 H   0  0  0  0  0  0  0  0  0  0  0  0
    6.7003   -0.8492   -0.2437 H   0  0  0  0  0  0  0  0  0  0  0  0
    6.8972   -2.9008   -1.3711 H   0  0  0  0  0  0  0  0  0  0  0  0
    8.1196   -3.3561    1.2948 H   0  0  0  0  0  0  0  0  0  0  0  0
    8.7373   -2.2497    0.0599 H   0  0  0  0  0  0  0  0  0  0  0  0
    8.6524   -3.9745   -0.2545 H   0  0  0  0  0  0  0  0  0  0  0  0
    6.5727   -5.1679   -0.2107 H   0  0  0  0  0  0  0  0  0  0  0  0
    5.5792   -4.3848    0.9578 H   0  0  0  0  0  0  0  0  0  0  0  0
    5.0342   -5.1044   -1.9230 H   0  0  0  0  0  0  0  0  0  0  0  0
    3.9721   -5.2837   -0.5524 H   0  0  0  0  0  0  0  0  0  0  0  0
    4.9293   -3.0085   -1.8686 H   0  0  0  0  0  0  0  0  0  0  0  0
    2.6255   -1.9745   -0.4492 H   0  0  0  0  0  0  0  0  0  0  0  0
  1  2  1  0
  1 20  1  0
  1 21  1  0
  1 22  1  0
  2 17  1  0
  2  3  1  0
  2 23  1  1
  3  4  1  0
  3 24  1  0
  3 25  1  0
  5  4  1  6
  4 26  1  0
  4 27  1  0
  5 12  1  0
  5 18  1  0
  5  6  1  0
  6  7  1  0
  7  8  1  0
  8 19  1  0
  8  9  1  1
  8 10  1  0
  9 28  1  0
  9 29  1  0
  9 30  1  0
 10 11  1  0
 11 12  1  0
 12 13  1  0
 12 31  1  6
 13 14  1  0
 13 15  1  0
 13 32  1  6
 14 33  1  0
 14 34  1  0
 14 35  1  0
 15 16  1  0
 15 36  1  0
 15 37  1  0
 16 17  1  0
 16 38  1  0
 16 39  1  0
 17 18  1  0
 17 40  1  6
 18 19  1  0
 18 41  1  6
M  END
>  <i_m_ct_stereo_status>  (294) 
1

>  <s_m_source_file>  (294) 
/var/tmp/pbs.5076255.sched01/tmpoq50wh_d/842pmd5wfz.sdf

>  <i_m_source_file_index>  (294) 
26

>  <i_lp_mmshare_version>  (294) 
48012

>  <i_f3d_flags>  (294) 
0

>  <s_epik_input>  (294) 
W0NIM11bQ0BIXTFbQ0gyXVtDSDJdW0NIXShbQ0BIXShbQ0gzXSlbQ0gyXVtDSDJdMilbQ0BIXTNPW0NAQF0oT080KShbQ0gzXSlPT1tDQEBIXTFbQ0BAXTIzNA==

>  <s_epik_cmdline>  (294) 
J2VwaWtfcHl0aG9uJywgJy1waHQnLCAnMi4wJywgJy1waCcsICc3LjAnLCAnLXRuJywgJzgnLCAnLW1hJywgJzIwMCcsICctaW1hZScsICc8aW5maWxlLm1hZT4nLCAnLW9tYWUnLCAnPG91dGZpbGUubWFlPic=

>  <r_lp_tautomer_probability>  (294) 
1

>  <r_epik_Ionization_Penalty>  (294) 
0

>  <r_epik_Ionization_Penalty_Charging>  (294) 
0

>  <r_epik_Ionization_Penalty_Neutral>  (294) 
0

>  <r_epik_State_Penalty>  (294) 
-0

>  <r_epik_Charging_Adjusted_Penalty>  (294) 
0

>  <i_epik_Tot_Q>  (294) 
0

>  <i_epik_Tot_abs_Q>  (294) 
0

>  <s_lp_Force_Field>  (294) 
OPLS3e

>  <r_lp_Energy>  (294) 
64.9119

>  <b_lp_Chiralities_Consistent>  (294) 
1

>  <s_lp_Variant>  (294) 
82:0-2

>  <s_i_glide_gridfile>  (294) 
pfpi4k_grid

>  <i_i_glide_lignum>  (294) 
26

>  <i_i_glide_rotatable_bonds>  (294) 
0

>  <r_i_docking_score>  (294) 
-2.93252

>  <r_i_glide_ligand_efficiency>  (294) 
-0.154343

>  <r_i_glide_ligand_efficiency_sa>  (294) 
-0.41185

>  <r_i_glide_ligand_efficiency_ln>  (294) 
-0.743457

>  <r_i_glide_gscore>  (294) 
-2.93252

>  <r_i_glide_lipo>  (294) 
-0.379441

>  <r_i_glide_hbond>  (294) 
0

>  <r_i_glide_metal>  (294) 
-0

>  <r_i_glide_rewards>  (294) 
-1.56599

>  <r_i_glide_evdw>  (294) 
-21.0138

>  <r_i_glide_ecoul>  (294) 
0.437121

>  <r_i_glide_erotb>  (294) 
0

>  <r_i_glide_esite>  (294) 
-0.00196857

>  <r_i_glide_emodel>  (294) 
-24.2941

>  <r_i_glide_energy>  (294) 
-20.5767

>  <r_i_glide_einternal>  (294) 
0

>  <r_i_glide_intrahb_reward>  (294) 
-0

>  <i_i_glide_confnum>  (294) 
2

>  <i_i_glide_posenum>  (294) 
22

>  <r_i_glide_eff_state_penalty>  (294) 
0

>  <ligand_id>  (294) 
82

>  <original_smiles>  (294) 
CC1CCC23OOC4(C)OOC2C(C)CCC1C3O4

>  <smiles>  (294) 
[H]C([H])([H])C12OOC3([H])C([H])(C([H])([H])[H])C([H])([H])C([H])([H])C4([H])C([H])(O1)C3(OO2)C([H])([H])C([H])([H])C4([H])C([H])([H])[H]

$$$$
84:0:0
     RDKit          3D

 41 44  0  0  1  0  0  0  0  0999 V2000
    2.6638   -2.7452   -2.8866 C   0  0  0  0  0  0  0  0  0  0  0  0
    3.9278   -2.3821   -2.0960 C   0  0  2  0  0  0  0  0  0  0  0  0
    5.1890   -3.0318   -2.7162 C   0  0  0  0  0  0  0  0  0  0  0  0
    6.4835   -3.0015   -1.8487 C   0  0  0  0  0  0  0  0  0  0  0  0
    6.3306   -3.0823   -0.2921 C   0  0  2  0  0  0  0  0  0  0  0  0
    6.4297   -4.5264    0.3221 C   0  0  1  0  0  0  0  0  0  0  0  0
    7.7168   -4.7746    1.1311 C   0  0  0  0  0  0  0  0  0  0  0  0
    5.2094   -5.1056    1.0691 C   0  0  0  0  0  0  0  0  0  0  0  0
    4.8669   -6.2687    0.8504 O   0  0  0  0  0  0  0  0  0  0  0  0
    4.3937   -4.2282    2.0565 C   0  0  2  0  0  0  0  0  0  0  0  0
    4.2786   -4.9830    3.3883 C   0  0  0  0  0  0  0  0  0  0  0  0
    2.9270   -3.9388    1.5092 C   0  0  0  0  0  0  0  0  0  0  0  0
    2.6639   -3.0501    0.2321 C   0  0  0  0  0  0  0  0  0  0  0  0
    3.9106   -2.8764   -0.6449 C   0  0  2  0  0  0  0  0  0  0  0  0
    5.0925   -2.3105    0.1355 C   0  0  2  0  0  0  0  0  0  0  0  0
    5.4718   -0.9269   -0.0160 O   0  0  0  0  0  0  0  0  0  0  0  0
    5.8635   -0.9411    1.4512 O   0  0  0  0  0  0  0  0  0  0  0  0
    4.8710   -1.9629    1.5992 C   0  0  2  0  0  0  0  0  0  0  0  0
    5.1535   -3.0573    2.4218 O   0  0  0  0  0  0  0  0  0  0  0  0
    2.4747   -3.8233   -2.8777 H   0  0  0  0  0  0  0  0  0  0  0  0
    2.7295   -2.4275   -3.9266 H   0  0  0  0  0  0  0  0  0  0  0  0
    1.7896   -2.2574   -2.4558 H   0  0  0  0  0  0  0  0  0  0  0  0
    4.0245   -1.2917   -2.1115 H   0  0  0  0  0  0  0  0  0  0  0  0
    4.9643   -4.0750   -2.9480 H   0  0  0  0  0  0  0  0  0  0  0  0
    5.3926   -2.5646   -3.6759 H   0  0  0  0  0  0  0  0  0  0  0  0
    7.1668   -3.7668   -2.2042 H   0  0  0  0  0  0  0  0  0  0  0  0
    7.0008   -2.0671   -2.0773 H   0  0  0  0  0  0  0  0  0  0  0  0
    7.2083   -2.5684    0.0993 H   0  0  0  0  0  0  0  0  0  0  0  0
    6.4770   -5.1885   -0.5295 H   0  0  0  0  0  0  0  0  0  0  0  0
    7.8347   -5.8356    1.3668 H   0  0  0  0  0  0  0  0  0  0  0  0
    7.6967   -4.2412    2.0737 H   0  0  0  0  0  0  0  0  0  0  0  0
    8.6041   -4.4650    0.5804 H   0  0  0  0  0  0  0  0  0  0  0  0
    3.6982   -5.8996    3.2807 H   0  0  0  0  0  0  0  0  0  0  0  0
    3.7824   -4.3590    4.1340 H   0  0  0  0  0  0  0  0  0  0  0  0
    5.2635   -5.2463    3.7816 H   0  0  0  0  0  0  0  0  0  0  0  0
    2.4809   -4.9142    1.2953 H   0  0  0  0  0  0  0  0  0  0  0  0
    2.3263   -3.5359    2.3265 H   0  0  0  0  0  0  0  0  0  0  0  0
    1.8744   -3.5143   -0.3546 H   0  0  0  0  0  0  0  0  0  0  0  0
    2.2647   -2.0763    0.5257 H   0  0  0  0  0  0  0  0  0  0  0  0
    4.0650   -3.9347   -0.8440 H   0  0  0  0  0  0  0  0  0  0  0  0
    3.9164   -1.4998    1.8313 H   0  0  0  0  0  0  0  0  0  0  0  0
  1  2  1  0
  1 20  1  0
  1 21  1  0
  1 22  1  0
  2 14  1  0
  2  3  1  0
  2 23  1  1
  3  4  1  0
  3 24  1  0
  3 25  1  0
  4  5  1  0
  4 26  1  0
  4 27  1  0
  5 15  1  0
  5  6  1  0
  5 28  1  1
  6  7  1  0
  6  8  1  0
  6 29  1  6
  7 30  1  0
  7 31  1  0
  7 32  1  0
  8  9  2  0
  8 10  1  0
 10 19  1  0
 10 11  1  1
 10 12  1  0
 11 33  1  0
 11 34  1  0
 11 35  1  0
 12 13  1  0
 12 36  1  0
 12 37  1  0
 13 14  1  0
 13 38  1  0
 13 39  1  0
 14 15  1  0
 14 40  1  6
 15 18  1  0
 15 16  1  6
 16 17  1  0
 17 18  1  0
 18 19  1  0
 18 41  1  6
M  END
>  <i_m_ct_stereo_status>  (295) 
1

>  <s_m_source_file>  (295) 
/var/tmp/pbs.5076255.sched01/tmpoq50wh_d/842pmd5wfz.sdf

>  <i_m_source_file_index>  (295) 
28

>  <i_lp_mmshare_version>  (295) 
48012

>  <i_f3d_flags>  (295) 
0

>  <s_epik_input>  (295) 
W0NAQF0xMjNbQ0BASF00W0NIMl1bQ0gyXVtDQEBIXShbQ0gzXSlbQ0BASF0xW0NIMl1bQ0gyXVtDQEBdKFtDSDNdKShDKD1PKVtDQEBIXTRbQ0gzXSlPW0NASF0zT08y

>  <s_epik_cmdline>  (295) 
J2VwaWtfcHl0aG9uJywgJy1waHQnLCAnMi4wJywgJy1waCcsICc3LjAnLCAnLXRuJywgJzgnLCAnLW1hJywgJzIwMCcsICctaW1hZScsICc8aW5maWxlLm1hZT4nLCAnLW9tYWUnLCAnPG91dGZpbGUubWFlPic=

>  <r_lp_tautomer_probability>  (295) 
1

>  <r_epik_Ionization_Penalty>  (295) 
4.65585e-13

>  <r_epik_Ionization_Penalty_Charging>  (295) 
0

>  <r_epik_Ionization_Penalty_Neutral>  (295) 
4.65585e-13

>  <r_epik_State_Penalty>  (295) 
-0

>  <r_epik_Charging_Adjusted_Penalty>  (295) 
0

>  <i_epik_Tot_Q>  (295) 
0

>  <i_epik_Tot_abs_Q>  (295) 
0

>  <s_epik_Chemistry_Notes>  (295) 
This compound contains an acetal/aminal-like group ( X-CH(R)-Y where X, Y are N, S, or O) that may be acid/base labile, releasing an aldehyde.

>  <s_lp_Force_Field>  (295) 
OPLS3e

>  <r_lp_Energy>  (295) 
70.16

>  <b_lp_Chiralities_Consistent>  (295) 
1

>  <s_lp_Variant>  (295) 
84:0-1

>  <s_i_glide_gridfile>  (295) 
pfpi4k_grid

>  <i_i_glide_lignum>  (295) 
28

>  <i_i_glide_rotatable_bonds>  (295) 
0

>  <r_i_docking_score>  (295) 
-3.4613

>  <r_i_glide_ligand_efficiency>  (295) 
-0.182174

>  <r_i_glide_ligand_efficiency_sa>  (295) 
-0.486112

>  <r_i_glide_ligand_efficiency_ln>  (295) 
-0.877513

>  <r_i_glide_gscore>  (295) 
-3.4613

>  <r_i_glide_lipo>  (295) 
-0.556205

>  <r_i_glide_hbond>  (295) 
0

>  <r_i_glide_metal>  (295) 
-0

>  <r_i_glide_rewards>  (295) 
-1.7396

>  <r_i_glide_evdw>  (295) 
-21.8949

>  <r_i_glide_ecoul>  (295) 
-0.471674

>  <r_i_glide_erotb>  (295) 
0

>  <r_i_glide_esite>  (295) 
0

>  <r_i_glide_emodel>  (295) 
-26.6827

>  <r_i_glide_energy>  (295) 
-22.3666

>  <r_i_glide_einternal>  (295) 
0

>  <r_i_glide_intrahb_reward>  (295) 
-0

>  <i_i_glide_confnum>  (295) 
2

>  <i_i_glide_posenum>  (295) 
9

>  <r_i_glide_eff_state_penalty>  (295) 
0

>  <ligand_id>  (295) 
84

>  <original_smiles>  (295) 
CC1CCC2C(C)C(=O)C3(C)CCC1C21OOC1O3

>  <smiles>  (295) 
[H]C([H])([H])C1([H])C(=O)C2(C([H])([H])[H])OC3([H])OOC34C1([H])C([H])([H])C([H])([H])C([H])(C([H])([H])[H])C4([H])C([H])([H])C2([H])[H]

$$$$
84:0:1
     RDKit          3D

 41 44  0  0  1  0  0  0  0  0999 V2000
    3.9606   -1.2952   -3.8232 C   0  0  0  0  0  0  0  0  0  0  0  0
    3.8721   -2.4375   -2.7968 C   0  0  2  0  0  0  0  0  0  0  0  0
    2.3954   -2.7869   -2.4992 C   0  0  0  0  0  0  0  0  0  0  0  0
    2.1164   -3.6228   -1.2160 C   0  0  0  0  0  0  0  0  0  0  0  0
    3.0857   -3.5158    0.0030 C   0  0  2  0  0  0  0  0  0  0  0  0
    2.6395   -2.5225    1.1408 C   0  0  1  0  0  0  0  0  0  0  0  0
    2.2540   -3.2171    2.4600 C   0  0  0  0  0  0  0  0  0  0  0  0
    3.5388   -1.3035    1.4267 C   0  0  0  0  0  0  0  0  0  0  0  0
    3.0312   -0.1968    1.5845 O   0  0  0  0  0  0  0  0  0  0  0  0
    5.0825   -1.4617    1.4984 C   0  0  2  0  0  0  0  0  0  0  0  0
    5.5502   -0.8393    2.8134 C   0  0  0  0  0  0  0  0  0  0  0  0
    5.8152   -0.7139    0.3067 C   0  0  0  0  0  0  0  0  0  0  0  0
    5.6638   -1.1723   -1.1982 C   0  0  0  0  0  0  0  0  0  0  0  0
    4.4642   -2.0831   -1.4303 C   0  0  2  0  0  0  0  0  0  0  0  0
    4.5075   -3.3082   -0.5139 C   0  0  2  0  0  0  0  0  0  0  0  0
    4.9134   -4.5867   -1.0482 O   0  0  0  0  0  0  0  0  0  0  0  0
    5.5271   -4.8781    0.3099 O   0  0  0  0  0  0  0  0  0  0  0  0
    5.6957   -3.4623    0.4166 C   0  0  2  0  0  0  0  0  0  0  0  0
    5.4459   -2.8423    1.6534 O   0  0  0  0  0  0  0  0  0  0  0  0
    3.5183   -0.3716   -3.4422 H   0  0  0  0  0  0  0  0  0  0  0  0
    3.4385   -1.5498   -4.7440 H   0  0  0  0  0  0  0  0  0  0  0  0
    4.9974   -1.0853   -4.0786 H   0  0  0  0  0  0  0  0  0  0  0  0
    4.3592   -3.3211   -3.2145 H   0  0  0  0  0  0  0  0  0  0  0  0
    1.8554   -1.8553   -2.3678 H   0  0  0  0  0  0  0  0  0  0  0  0
    1.9135   -3.2517   -3.3576 H   0  0  0  0  0  0  0  0  0  0  0  0
    1.0879   -3.4418   -0.9286 H   0  0  0  0  0  0  0  0  0  0  0  0
    2.1007   -4.6540   -1.5126 H   0  0  0  0  0  0  0  0  0  0  0  0
    3.0492   -4.4986    0.4712 H   0  0  0  0  0  0  0  0  0  0  0  0
    1.7159   -2.0735    0.7919 H   0  0  0  0  0  0  0  0  0  0  0  0
    1.7750   -2.5016    3.1296 H   0  0  0  0  0  0  0  0  0  0  0  0
    3.1212   -3.6400    2.9706 H   0  0  0  0  0  0  0  0  0  0  0  0
    1.5359   -4.0189    2.2859 H   0  0  0  0  0  0  0  0  0  0  0  0
    5.3635    0.2326    2.8561 H   0  0  0  0  0  0  0  0  0  0  0  0
    6.6226   -0.9892    2.8833 H   0  0  0  0  0  0  0  0  0  0  0  0
    5.0754   -1.3116    3.6760 H   0  0  0  0  0  0  0  0  0  0  0  0
    5.4589    0.3105    0.3733 H   0  0  0  0  0  0  0  0  0  0  0  0
    6.8811   -0.6455    0.5270 H   0  0  0  0  0  0  0  0  0  0  0  0
    5.5420   -0.2824   -1.8180 H   0  0  0  0  0  0  0  0  0  0  0  0
    6.5688   -1.6704   -1.5524 H   0  0  0  0  0  0  0  0  0  0  0  0
    3.6976   -1.3880   -1.0925 H   0  0  0  0  0  0  0  0  0  0  0  0
    6.6626   -3.1904   -0.0032 H   0  0  0  0  0  0  0  0  0  0  0  0
  1  2  1  0
  1 20  1  0
  1 21  1  0
  1 22  1  0
  2 14  1  0
  2  3  1  0
  2 23  1  6
  3  4  1  0
  3 24  1  0
  3 25  1  0
  4  5  1  0
  4 26  1  0
  4 27  1  0
  5 15  1  0
  5  6  1  0
  5 28  1  1
  6  7  1  0
  6  8  1  0
  6 29  1  6
  7 30  1  0
  7 31  1  0
  7 32  1  0
  8  9  2  0
  8 10  1  0
 10 19  1  0
 10 11  1  1
 10 12  1  0
 11 33  1  0
 11 34  1  0
 11 35  1  0
 12 13  1  0
 12 36  1  0
 12 37  1  0
 13 14  1  0
 13 38  1  0
 13 39  1  0
 14 15  1  0
 14 40  1  1
 15 18  1  0
 15 16  1  6
 16 17  1  0
 17 18  1  0
 18 19  1  0
 18 41  1  6
M  END
>  <i_m_ct_stereo_status>  (296) 
1

>  <s_m_source_file>  (296) 
/var/tmp/pbs.5076255.sched01/tmpoq50wh_d/842pmd5wfz.sdf

>  <i_m_source_file_index>  (296) 
28

>  <i_lp_mmshare_version>  (296) 
48012

>  <i_f3d_flags>  (296) 
0

>  <s_epik_input>  (296) 
W0NAQF0xMjNbQ0BASF00W0NIMl1bQ0gyXVtDQEBIXShbQ0gzXSlbQ0BASF0xW0NIMl1bQ0gyXVtDQEBdKFtDSDNdKShDKD1PKVtDQEBIXTRbQ0gzXSlPW0NASF0zT08y

>  <s_epik_cmdline>  (296) 
J2VwaWtfcHl0aG9uJywgJy1waHQnLCAnMi4wJywgJy1waCcsICc3LjAnLCAnLXRuJywgJzgnLCAnLW1hJywgJzIwMCcsICctaW1hZScsICc8aW5maWxlLm1hZT4nLCAnLW9tYWUnLCAnPG91dGZpbGUubWFlPic=

>  <r_lp_tautomer_probability>  (296) 
1

>  <r_epik_Ionization_Penalty>  (296) 
4.65585e-13

>  <r_epik_Ionization_Penalty_Charging>  (296) 
0

>  <r_epik_Ionization_Penalty_Neutral>  (296) 
4.65585e-13

>  <r_epik_State_Penalty>  (296) 
-0

>  <r_epik_Charging_Adjusted_Penalty>  (296) 
0

>  <i_epik_Tot_Q>  (296) 
0

>  <i_epik_Tot_abs_Q>  (296) 
0

>  <s_epik_Chemistry_Notes>  (296) 
This compound contains an acetal/aminal-like group ( X-CH(R)-Y where X, Y are N, S, or O) that may be acid/base labile, releasing an aldehyde.

>  <s_lp_Force_Field>  (296) 
OPLS3e

>  <r_lp_Energy>  (296) 
70.16

>  <b_lp_Chiralities_Consistent>  (296) 
1

>  <s_lp_Variant>  (296) 
84:0-1

>  <s_i_glide_gridfile>  (296) 
pfpi4k_grid

>  <i_i_glide_lignum>  (296) 
28

>  <i_i_glide_rotatable_bonds>  (296) 
0

>  <r_i_docking_score>  (296) 
-3.10239

>  <r_i_glide_ligand_efficiency>  (296) 
-0.163283

>  <r_i_glide_ligand_efficiency_sa>  (296) 
-0.435706

>  <r_i_glide_ligand_efficiency_ln>  (296) 
-0.786521

>  <r_i_glide_gscore>  (296) 
-3.10239

>  <r_i_glide_lipo>  (296) 
-0.545301

>  <r_i_glide_hbond>  (296) 
0

>  <r_i_glide_metal>  (296) 
-0

>  <r_i_glide_rewards>  (296) 
-1.67289

>  <r_i_glide_evdw>  (296) 
-19.1359

>  <r_i_glide_ecoul>  (296) 
0.628494

>  <r_i_glide_erotb>  (296) 
0

>  <r_i_glide_esite>  (296) 
-0.0216762

>  <r_i_glide_emodel>  (296) 
-22.2681

>  <r_i_glide_energy>  (296) 
-18.5074

>  <r_i_glide_einternal>  (296) 
0

>  <r_i_glide_intrahb_reward>  (296) 
-0

>  <i_i_glide_confnum>  (296) 
1

>  <i_i_glide_posenum>  (296) 
2

>  <r_i_glide_eff_state_penalty>  (296) 
0

>  <ligand_id>  (296) 
84

>  <original_smiles>  (296) 
CC1CCC2C(C)C(=O)C3(C)CCC1C21OOC1O3

>  <smiles>  (296) 
[H]C([H])([H])C1([H])C(=O)C2(C([H])([H])[H])OC3([H])OOC34C1([H])C([H])([H])C([H])([H])C([H])(C([H])([H])[H])C4([H])C([H])([H])C2([H])[H]

$$$$
84:0:2
     RDKit          3D

 41 44  0  0  1  0  0  0  0  0999 V2000
    2.5448   -2.6800   -3.8233 C   0  0  0  0  0  0  0  0  0  0  0  0
    3.2768   -2.1314   -2.5948 C   0  0  2  0  0  0  0  0  0  0  0  0
    4.8023   -2.0521   -2.8368 C   0  0  0  0  0  0  0  0  0  0  0  0
    5.6912   -1.8172   -1.5774 C   0  0  0  0  0  0  0  0  0  0  0  0
    5.2229   -2.4266   -0.2184 C   0  0  2  0  0  0  0  0  0  0  0  0
    5.8085   -3.8479    0.1011 C   0  0  1  0  0  0  0  0  0  0  0  0
    6.7993   -3.8304    1.2797 C   0  0  0  0  0  0  0  0  0  0  0  0
    4.8022   -5.0161    0.2983 C   0  0  0  0  0  0  0  0  0  0  0  0
    5.0353   -6.1114   -0.2059 O   0  0  0  0  0  0  0  0  0  0  0  0
    3.4813   -4.8333    1.0733 C   0  0  2  0  0  0  0  0  0  0  0  0
    3.3818   -5.9520    2.1258 C   0  0  0  0  0  0  0  0  0  0  0  0
    2.2325   -4.9531    0.0930 C   0  0  0  0  0  0  0  0  0  0  0  0
    1.9236   -3.8750   -1.0338 C   0  0  0  0  0  0  0  0  0  0  0  0
    3.1367   -3.0178   -1.3604 C   0  0  2  0  0  0  0  0  0  0  0  0
    3.7095   -2.3233   -0.1218 C   0  0  2  0  0  0  0  0  0  0  0  0
    3.4669   -0.9182    0.1114 O   0  0  0  0  0  0  0  0  0  0  0  0
    3.4453   -1.2323    1.5978 O   0  0  0  0  0  0  0  0  0  0  0  0
    3.0020   -2.5372    1.2064 C   0  0  2  0  0  0  0  0  0  0  0  0
    3.5213   -3.6455    1.8808 O   0  0  0  0  0  0  0  0  0  0  0  0
    2.8617   -3.6965   -4.0634 H   0  0  0  0  0  0  0  0  0  0  0  0
    2.7306   -2.0534   -4.7018 H   0  0  0  0  0  0  0  0  0  0  0  0
    1.4656   -2.7053   -3.6641 H   0  0  0  0  0  0  0  0  0  0  0  0
    2.8780   -1.1339   -2.3827 H   0  0  0  0  0  0  0  0  0  0  0  0
    5.1292   -2.9820   -3.3090 H   0  0  0  0  0  0  0  0  0  0  0  0
    5.0040   -1.2722   -3.5657 H   0  0  0  0  0  0  0  0  0  0  0  0
    6.7042   -2.1449   -1.7961 H   0  0  0  0  0  0  0  0  0  0  0  0
    5.7580   -0.7349   -1.4381 H   0  0  0  0  0  0  0  0  0  0  0  0
    5.6546   -1.7703    0.5391 H   0  0  0  0  0  0  0  0  0  0  0  0
    6.3976   -4.1353   -0.7671 H   0  0  0  0  0  0  0  0  0  0  0  0
    7.3141   -4.7894    1.3704 H   0  0  0  0  0  0  0  0  0  0  0  0
    6.2882   -3.6340    2.2206 H   0  0  0  0  0  0  0  0  0  0  0  0
    7.5655   -3.0632    1.1433 H   0  0  0  0  0  0  0  0  0  0  0  0
    3.3163   -6.9372    1.6610 H   0  0  0  0  0  0  0  0  0  0  0  0
    2.4948   -5.8194    2.7449 H   0  0  0  0  0  0  0  0  0  0  0  0
    4.2501   -5.9494    2.7879 H   0  0  0  0  0  0  0  0  0  0  0  0
    2.3284   -5.9184   -0.3972 H   0  0  0  0  0  0  0  0  0  0  0  0
    1.3719   -5.0902    0.7292 H   0  0  0  0  0  0  0  0  0  0  0  0
    1.5675   -4.3903   -1.9227 H   0  0  0  0  0  0  0  0  0  0  0  0
    1.1027   -3.2180   -0.7696 H   0  0  0  0  0  0  0  0  0  0  0  0
    3.7864   -3.8332   -1.6715 H   0  0  0  0  0  0  0  0  0  0  0  0
    1.9154   -2.5434    1.1585 H   0  0  0  0  0  0  0  0  0  0  0  0
  1  2  1  0
  1 20  1  0
  1 21  1  0
  1 22  1  0
  2 14  1  0
  2  3  1  0
  2 23  1  1
  3  4  1  0
  3 24  1  0
  3 25  1  0
  4  5  1  0
  4 26  1  0
  4 27  1  0
  5 15  1  0
  5  6  1  0
  5 28  1  1
  6  7  1  0
  6  8  1  0
  6 29  1  6
  7 30  1  0
  7 31  1  0
  7 32  1  0
  8  9  2  0
  8 10  1  0
 10 19  1  0
 10 11  1  1
 10 12  1  0
 11 33  1  0
 11 34  1  0
 11 35  1  0
 12 13  1  0
 12 36  1  0
 12 37  1  0
 13 14  1  0
 13 38  1  0
 13 39  1  0
 14 15  1  0
 14 40  1  6
 15 18  1  0
 15 16  1  6
 16 17  1  0
 17 18  1  0
 18 19  1  0
 18 41  1  6
M  END
>  <i_m_ct_stereo_status>  (297) 
1

>  <s_m_source_file>  (297) 
/var/tmp/pbs.5076255.sched01/tmpoq50wh_d/842pmd5wfz.sdf

>  <i_m_source_file_index>  (297) 
28

>  <i_lp_mmshare_version>  (297) 
48012

>  <i_f3d_flags>  (297) 
0

>  <s_epik_input>  (297) 
W0NAQF0xMjNbQ0BASF00W0NIMl1bQ0gyXVtDQEBIXShbQ0gzXSlbQ0BASF0xW0NIMl1bQ0gyXVtDQEBdKFtDSDNdKShDKD1PKVtDQEBIXTRbQ0gzXSlPW0NASF0zT08y

>  <s_epik_cmdline>  (297) 
J2VwaWtfcHl0aG9uJywgJy1waHQnLCAnMi4wJywgJy1waCcsICc3LjAnLCAnLXRuJywgJzgnLCAnLW1hJywgJzIwMCcsICctaW1hZScsICc8aW5maWxlLm1hZT4nLCAnLW9tYWUnLCAnPG91dGZpbGUubWFlPic=

>  <r_lp_tautomer_probability>  (297) 
1

>  <r_epik_Ionization_Penalty>  (297) 
4.65585e-13

>  <r_epik_Ionization_Penalty_Charging>  (297) 
0

>  <r_epik_Ionization_Penalty_Neutral>  (297) 
4.65585e-13

>  <r_epik_State_Penalty>  (297) 
-0

>  <r_epik_Charging_Adjusted_Penalty>  (297) 
0

>  <i_epik_Tot_Q>  (297) 
0

>  <i_epik_Tot_abs_Q>  (297) 
0

>  <s_epik_Chemistry_Notes>  (297) 
This compound contains an acetal/aminal-like group ( X-CH(R)-Y where X, Y are N, S, or O) that may be acid/base labile, releasing an aldehyde.

>  <s_lp_Force_Field>  (297) 
OPLS3e

>  <r_lp_Energy>  (297) 
70.16

>  <b_lp_Chiralities_Consistent>  (297) 
1

>  <s_lp_Variant>  (297) 
84:0-1

>  <s_i_glide_gridfile>  (297) 
pfpi4k_grid

>  <i_i_glide_lignum>  (297) 
28

>  <i_i_glide_rotatable_bonds>  (297) 
0

>  <r_i_docking_score>  (297) 
-3.00298

>  <r_i_glide_ligand_efficiency>  (297) 
-0.158052

>  <r_i_glide_ligand_efficiency_sa>  (297) 
-0.421746

>  <r_i_glide_ligand_efficiency_ln>  (297) 
-0.761321

>  <r_i_glide_gscore>  (297) 
-3.00298

>  <r_i_glide_lipo>  (297) 
-0.40829

>  <r_i_glide_hbond>  (297) 
0

>  <r_i_glide_metal>  (297) 
-0

>  <r_i_glide_rewards>  (297) 
-1.67092

>  <r_i_glide_evdw>  (297) 
-19.0861

>  <r_i_glide_ecoul>  (297) 
0.348989

>  <r_i_glide_erotb>  (297) 
0

>  <r_i_glide_esite>  (297) 
-0.0218161

>  <r_i_glide_emodel>  (297) 
-22.4566

>  <r_i_glide_energy>  (297) 
-18.7371

>  <r_i_glide_einternal>  (297) 
0

>  <r_i_glide_intrahb_reward>  (297) 
-0

>  <i_i_glide_confnum>  (297) 
2

>  <i_i_glide_posenum>  (297) 
21

>  <r_i_glide_eff_state_penalty>  (297) 
0

>  <ligand_id>  (297) 
84

>  <original_smiles>  (297) 
CC1CCC2C(C)C(=O)C3(C)CCC1C21OOC1O3

>  <smiles>  (297) 
[H]C([H])([H])C1([H])C(=O)C2(C([H])([H])[H])OC3([H])OOC34C1([H])C([H])([H])C([H])([H])C([H])(C([H])([H])[H])C4([H])C([H])([H])C2([H])[H]

$$$$
85:0:0
     RDKit          3D

 77 81  0  0  1  0  0  0  0  0999 V2000
    3.8035    0.5624    1.5034 C   0  0  0  0  0  0  0  0  0  0  0  0
    4.6451   -0.2125    2.2095 C   0  0  0  0  0  0  0  0  0  0  0  0
    5.0113    0.1273    3.6440 C   0  0  0  0  0  0  0  0  0  0  0  0
    5.2837   -1.4620    1.6174 C   0  0  2  0  0  0  0  0  0  0  0  0
    6.2495   -1.1130    0.4718 C   0  0  0  0  0  0  0  0  0  0  0  0
    5.5475   -1.5380   -0.8181 C   0  0  0  0  0  0  0  0  0  0  0  0
    4.7247   -2.7823   -0.4276 C   0  0  1  0  0  0  0  0  0  0  0  0
    3.5558   -2.9672   -1.4273 C   0  0  0  0  0  0  0  0  0  0  0  0
    2.4872   -3.4552   -1.0012 O   0  0  0  0  0  0  0  0  0  0  0  0
    3.7746   -2.6489   -2.6164 O   0  0  0  0  0  0  0  0  0  0  0  0
    5.6145   -4.0409   -0.4484 C   0  0  0  0  0  0  0  0  0  0  0  0
    4.9501   -5.2506    0.2319 C   0  0  0  0  0  0  0  0  0  0  0  0
    4.6381   -5.0255    1.7414 C   0  0  1  0  0  0  0  0  0  0  0  0
    6.0066   -4.8357    2.4677 C   0  0  0  0  0  0  0  0  0  0  0  0
    3.8131   -3.7083    1.8701 C   0  0  1  0  0  0  0  0  0  0  0  0
    3.5851   -3.3639    3.3479 C   0  0  0  0  0  0  0  0  0  0  0  0
    2.9361   -4.5298    4.0489 C   0  0  0  0  0  0  0  0  0  0  0  0
    2.9387   -5.8090    3.6141 C   0  0  0  0  0  0  0  0  0  0  0  0
    1.8222   -6.7517    4.1562 C   0  0  2  0  0  0  0  0  0  0  0  0
    0.4579   -6.0808    3.8064 C   0  0  0  0  0  0  0  0  0  0  0  0
    1.9565   -6.8809    5.6958 C   0  0  0  0  0  0  0  0  0  0  0  0
    1.0159   -7.9258    6.2953 C   0  0  0  0  0  0  0  0  0  0  0  0
    0.2519   -7.6454    7.2210 O   0  0  0  0  0  0  0  0  0  0  0  0
    1.1086   -9.3294    5.6720 C   0  0  1  0  0  0  0  0  0  0  0  0
    0.2175  -10.2266    6.3225 O   0  0  0  0  0  0  0  0  0  0  0  0
    0.9294   -9.2815    4.1143 C   0  0  0  0  0  0  0  0  0  0  0  0
    1.3515  -10.6645    3.5542 C   0  0  0  0  0  0  0  0  0  0  0  0
   -0.5499   -9.0466    3.7107 C   0  0  0  0  0  0  0  0  0  0  0  0
    1.9018   -8.1843    3.5346 C   0  0  1  0  0  0  0  0  0  0  0  0
    2.0475   -8.1529    1.9853 C   0  0  0  0  0  0  0  0  0  0  0  0
    2.8171   -6.9295    1.4159 C   0  0  0  0  0  0  0  0  0  0  0  0
    3.8193   -6.2611    2.3973 C   0  0  1  0  0  0  0  0  0  0  0  0
    4.8717   -7.3446    2.8045 C   0  0  0  0  0  0  0  0  0  0  0  0
    4.2502   -2.4685    1.0167 C   0  0  1  0  0  0  0  0  0  0  0  0
    3.3629    1.4437    1.9437 H   0  0  0  0  0  0  0  0  0  0  0  0
    3.5453    0.3337    0.4808 H   0  0  0  0  0  0  0  0  0  0  0  0
    4.7164   -0.6746    4.3241 H   0  0  0  0  0  0  0  0  0  0  0  0
    4.5123    1.0428    3.9618 H   0  0  0  0  0  0  0  0  0  0  0  0
    6.0879    0.2799    3.7305 H   0  0  0  0  0  0  0  0  0  0  0  0
    5.8676   -1.9093    2.4184 H   0  0  0  0  0  0  0  0  0  0  0  0
    6.5414   -0.0630    0.4496 H   0  0  0  0  0  0  0  0  0  0  0  0
    7.1646   -1.6950    0.5804 H   0  0  0  0  0  0  0  0  0  0  0  0
    4.8971   -0.7282   -1.1579 H   0  0  0  0  0  0  0  0  0  0  0  0
    6.2399   -1.7438   -1.6362 H   0  0  0  0  0  0  0  0  0  0  0  0
    5.8325   -4.2700   -1.4898 H   0  0  0  0  0  0  0  0  0  0  0  0
    6.5802   -3.8337    0.0103 H   0  0  0  0  0  0  0  0  0  0  0  0
    4.0393   -5.4535   -0.3221 H   0  0  0  0  0  0  0  0  0  0  0  0
    5.5794   -6.1273    0.0983 H   0  0  0  0  0  0  0  0  0  0  0  0
    5.9045   -4.8492    3.5546 H   0  0  0  0  0  0  0  0  0  0  0  0
    6.4835   -3.8995    2.2024 H   0  0  0  0  0  0  0  0  0  0  0  0
    6.7393   -5.5986    2.1999 H   0  0  0  0  0  0  0  0  0  0  0  0
    2.8307   -3.9595    1.4705 H   0  0  0  0  0  0  0  0  0  0  0  0
    4.4953   -3.0793    3.8757 H   0  0  0  0  0  0  0  0  0  0  0  0
    2.8989   -2.5170    3.4017 H   0  0  0  0  0  0  0  0  0  0  0  0
    2.3058   -4.2313    4.8737 H   0  0  0  0  0  0  0  0  0  0  0  0
   -0.3828   -6.5039    4.3425 H   0  0  0  0  0  0  0  0  0  0  0  0
    0.2397   -6.1450    2.7415 H   0  0  0  0  0  0  0  0  0  0  0  0
    0.4189   -5.0253    4.0664 H   0  0  0  0  0  0  0  0  0  0  0  0
    2.9741   -7.1783    5.9506 H   0  0  0  0  0  0  0  0  0  0  0  0
    1.7657   -5.9277    6.1889 H   0  0  0  0  0  0  0  0  0  0  0  0
    2.1185   -9.6811    5.8835 H   0  0  0  0  0  0  0  0  0  0  0  0
    0.6993  -10.9821    6.6611 H   0  0  0  0  0  0  0  0  0  0  0  0
    1.1768  -10.7364    2.4783 H   0  0  0  0  0  0  0  0  0  0  0  0
    0.7876  -11.4752    4.0233 H   0  0  0  0  0  0  0  0  0  0  0  0
    2.4103  -10.8597    3.7387 H   0  0  0  0  0  0  0  0  0  0  0  0
   -0.6749   -8.5608    2.7419 H   0  0  0  0  0  0  0  0  0  0  0  0
   -1.1045   -8.4796    4.4586 H   0  0  0  0  0  0  0  0  0  0  0  0
   -1.0616  -10.0010    3.6382 H   0  0  0  0  0  0  0  0  0  0  0  0
    2.8428   -8.5625    3.9204 H   0  0  0  0  0  0  0  0  0  0  0  0
    2.5880   -9.0506    1.6850 H   0  0  0  0  0  0  0  0  0  0  0  0
    1.0808   -8.2322    1.4868 H   0  0  0  0  0  0  0  0  0  0  0  0
    3.3363   -7.2771    0.5247 H   0  0  0  0  0  0  0  0  0  0  0  0
    2.0948   -6.1806    1.0870 H   0  0  0  0  0  0  0  0  0  0  0  0
    5.6584   -7.4363    2.0576 H   0  0  0  0  0  0  0  0  0  0  0  0
    4.5128   -8.3656    2.8579 H   0  0  0  0  0  0  0  0  0  0  0  0
    5.3347   -7.1143    3.7661 H   0  0  0  0  0  0  0  0  0  0  0  0
    3.3220   -1.9083    0.8912 H   0  0  0  0  0  0  0  0  0  0  0  0
  1  2  2  0
  1 35  1  0
  1 36  1  0
  2  3  1  0
  2  4  1  0
  3 37  1  0
  3 38  1  0
  3 39  1  0
  4 34  1  0
  4  5  1  0
  4 40  1  1
  5  6  1  0
  5 41  1  0
  5 42  1  0
  6  7  1  0
  6 43  1  0
  6 44  1  0
  7 34  1  0
  7  8  1  6
  7 11  1  0
  8  9  2  0
  8 10  1  0
 11 12  1  0
 11 45  1  0
 11 46  1  0
 12 13  1  0
 12 47  1  0
 12 48  1  0
 13 32  1  0
 13 14  1  1
 13 15  1  0
 14 49  1  0
 14 50  1  0
 14 51  1  0
 15 16  1  0
 15 34  1  0
 15 52  1  6
 16 17  1  0
 16 53  1  0
 16 54  1  0
 17 18  2  0
 17 55  1  0
 18 32  1  0
 18 19  1  0
 19 29  1  0
 19 20  1  1
 19 21  1  0
 20 56  1  0
 20 57  1  0
 20 58  1  0
 21 22  1  0
 21 59  1  0
 21 60  1  0
 22 23  2  0
 22 24  1  0
 24 25  1  0
 24 26  1  0
 24 61  1  6
 25 62  1  0
 26 27  1  0
 26 28  1  0
 26 29  1  0
 27 63  1  0
 27 64  1  0
 27 65  1  0
 28 66  1  0
 28 67  1  0
 28 68  1  0
 29 30  1  0
 29 69  1  1
 30 31  1  0
 30 70  1  0
 30 71  1  0
 31 32  1  0
 31 72  1  0
 31 73  1  0
 32 33  1  1
 33 74  1  0
 33 75  1  0
 33 76  1  0
 34 77  1  6
M  CHG  1  10  -1
M  END
>  <i_m_ct_stereo_status>  (298) 
1

>  <s_m_source_file>  (298) 
/var/tmp/pbs.5076255.sched01/tmpoq50wh_d/842pmd5wfz.sdf

>  <i_m_source_file_index>  (298) 
29

>  <i_lp_mmshare_version>  (298) 
48012

>  <i_f3d_flags>  (298) 
0

>  <s_epik_input>  (298) 
W0NIMl09QyhbQ0gzXSlbQ0BIXShbQ0gyXVtDSDJdMSlbQ0BASF0oW0NAQF0xMkMoPU8pW09IXSlbQ0BIXTNbQ0BdKFtDSDNdKShbQ0gyXVtDSDJdMilbQ0BAXTQoW0NIM10pQyg9W0NIXVtDSDJdMylbQ0BAXTUoW0NIM10pW0NASF0oW0NIMl1bQ0gyXTQpQyhbQ0gzXSkoW0NIM10pW0NASF0oW09IXSlDKD1PKVtDSDJdNQ==

>  <s_epik_cmdline>  (298) 
J2VwaWtfcHl0aG9uJywgJy1waHQnLCAnMi4wJywgJy1waCcsICc3LjAnLCAnLXRuJywgJzgnLCAnLW1hJywgJzIwMCcsICctaW1hZScsICc8aW5maWxlLm1hZT4nLCAnLW9tYWUnLCAnPG91dGZpbGUubWFlPic=

>  <r_lp_tautomer_probability>  (298) 
0.99995

>  <r_epik_Ionization_Penalty>  (298) 
0.00697615

>  <r_epik_Ionization_Penalty_Charging>  (298) 
0.0069761

>  <r_epik_Ionization_Penalty_Neutral>  (298) 
4.81027e-08

>  <r_epik_State_Penalty>  (298) 
0.00518846

>  <r_epik_Charging_Adjusted_Penalty>  (298) 
0.0121646

>  <i_epik_Tot_Q>  (298) 
-1

>  <i_epik_Tot_abs_Q>  (298) 
1

>  <s_lp_Force_Field>  (298) 
OPLS3e

>  <r_lp_Energy>  (298) 
86.5176

>  <b_lp_Chiralities_Consistent>  (298) 
1

>  <s_lp_Variant>  (298) 
85:0-1

>  <s_i_glide_gridfile>  (298) 
pfpi4k_grid

>  <i_i_glide_lignum>  (298) 
29

>  <i_i_glide_rotatable_bonds>  (298) 
3

>  <r_i_docking_score>  (298) 
-2.68443

>  <r_i_glide_ligand_efficiency>  (298) 
-0.0789537

>  <r_i_glide_ligand_efficiency_sa>  (298) 
-0.255779

>  <r_i_glide_ligand_efficiency_ln>  (298) 
-0.593065

>  <r_i_glide_gscore>  (298) 
-2.68443

>  <r_i_glide_lipo>  (298) 
-0.687429

>  <r_i_glide_hbond>  (298) 
0

>  <r_i_glide_metal>  (298) 
-0

>  <r_i_glide_rewards>  (298) 
-0.2205

>  <r_i_glide_evdw>  (298) 
-31.5302

>  <r_i_glide_ecoul>  (298) 
-1.76222

>  <r_i_glide_erotb>  (298) 
0.0922885

>  <r_i_glide_esite>  (298) 
-0.027945

>  <r_i_glide_emodel>  (298) 
-35.8763

>  <r_i_glide_energy>  (298) 
-33.2924

>  <r_i_glide_einternal>  (298) 
4.92328

>  <r_i_glide_intrahb_reward>  (298) 
-0

>  <i_i_glide_confnum>  (298) 
3

>  <i_i_glide_posenum>  (298) 
7

>  <r_i_glide_eff_state_penalty>  (298) 
0

>  <ligand_id>  (298) 
85

>  <original_smiles>  (298) 
C=C(C)C1CCC2(C(=O)O)CCC3(C)C(CC=C4C5(C)CC(=O)C(O)C(C)(C)C5CCC43C)C12

>  <smiles>  (298) 
[H]OC1([H])C(=O)C([H])([H])C2(C([H])([H])[H])C3=C([H])C([H])([H])C4([H])C5([H])C([H])(C(=C([H])[H])C([H])([H])[H])C([H])([H])C([H])([H])C5(C(=O)[O-])C([H])([H])C([H])([H])C4(C([H])([H])[H])C3(C([H])([H])[H])C([H])([H])C([H])([H])C2([H])C1(C([H])([H])[H])C([H])([H])[H]

$$$$
85:0:1
     RDKit          3D

 77 81  0  0  1  0  0  0  0  0999 V2000
    3.3518    0.6915    1.5143 C   0  0  0  0  0  0  0  0  0  0  0  0
    4.2161   -0.0446    2.2342 C   0  0  0  0  0  0  0  0  0  0  0  0
    4.5216    0.2981    3.6795 C   0  0  0  0  0  0  0  0  0  0  0  0
    4.9489   -1.2523    1.6517 C   0  0  2  0  0  0  0  0  0  0  0  0
    5.9314   -0.8358    0.5363 C   0  0  0  0  0  0  0  0  0  0  0  0
    5.3146   -1.2984   -0.7810 C   0  0  0  0  0  0  0  0  0  0  0  0
    4.5683   -2.5971   -0.4212 C   0  0  1  0  0  0  0  0  0  0  0  0
    3.4536   -2.8528   -1.4643 C   0  0  0  0  0  0  0  0  0  0  0  0
    2.4177   -3.4605   -1.0826 O   0  0  0  0  0  0  0  0  0  0  0  0
    3.6971   -2.5116   -2.6455 O   0  0  0  0  0  0  0  0  0  0  0  0
    5.5326   -3.7945   -0.4223 C   0  0  0  0  0  0  0  0  0  0  0  0
    4.9200   -5.0478    0.2221 C   0  0  0  0  0  0  0  0  0  0  0  0
    4.5292   -4.8587    1.7179 C   0  0  1  0  0  0  0  0  0  0  0  0
    5.8518   -4.5898    2.4928 C   0  0  0  0  0  0  0  0  0  0  0  0
    3.6267   -3.5950    1.8274 C   0  0  1  0  0  0  0  0  0  0  0  0
    3.3210   -3.2872    3.2997 C   0  0  0  0  0  0  0  0  0  0  0  0
    2.7226   -4.4943    3.9667 C   0  0  0  0  0  0  0  0  0  0  0  0
    2.8263   -5.7652    3.5193 C   0  0  0  0  0  0  0  0  0  0  0  0
    1.7588   -6.7832    4.0018 C   0  0  2  0  0  0  0  0  0  0  0  0
    0.3626   -6.2081    3.6191 C   0  0  0  0  0  0  0  0  0  0  0  0
    1.8570   -6.9187    5.5445 C   0  0  0  0  0  0  0  0  0  0  0  0
    0.9702   -8.0240    6.1135 C   0  0  0  0  0  0  0  0  0  0  0  0
    0.2428   -7.8136    7.0766 O   0  0  0  0  0  0  0  0  0  0  0  0
    1.1129   -9.3993    5.4572 C   0  0  1  0  0  0  0  0  0  0  0  0
    0.2015  -10.2924    6.0376 O   0  0  0  0  0  0  0  0  0  0  0  0
    1.0187   -9.3563    3.9081 C   0  0  0  0  0  0  0  0  0  0  0  0
    1.5548  -10.7028    3.3615 C   0  0  0  0  0  0  0  0  0  0  0  0
   -0.4608   -9.2385    3.4465 C   0  0  0  0  0  0  0  0  0  0  0  0
    1.9528   -8.2011    3.3797 C   0  0  1  0  0  0  0  0  0  0  0  0
    2.1378   -8.1337    1.8385 C   0  0  0  0  0  0  0  0  0  0  0  0
    2.8631   -6.8625    1.3201 C   0  0  0  0  0  0  0  0  0  0  0  0
    3.7761   -6.1417    2.3378 C   0  0  1  0  0  0  0  0  0  0  0  0
    4.8808   -7.1629    2.7679 C   0  0  0  0  0  0  0  0  0  0  0  0
    4.0095   -2.3204    1.0022 C   0  0  1  0  0  0  0  0  0  0  0  0
    2.8475    1.5463    1.9382 H   0  0  0  0  0  0  0  0  0  0  0  0
    3.1423    0.4378    0.4894 H   0  0  0  0  0  0  0  0  0  0  0  0
    4.2562   -0.5247    4.3441 H   0  0  0  0  0  0  0  0  0  0  0  0
    3.9584    1.1831    3.9829 H   0  0  0  0  0  0  0  0  0  0  0  0
    5.5836    0.5255    3.7965 H   0  0  0  0  0  0  0  0  0  0  0  0
    5.5346   -1.6625    2.4709 H   0  0  0  0  0  0  0  0  0  0  0  0
    6.1516    0.2313    0.5169 H   0  0  0  0  0  0  0  0  0  0  0  0
    6.8802   -1.3554    0.6797 H   0  0  0  0  0  0  0  0  0  0  0  0
    4.6200   -0.5294   -1.1309 H   0  0  0  0  0  0  0  0  0  0  0  0
    6.0462   -1.4451   -1.5766 H   0  0  0  0  0  0  0  0  0  0  0  0
    5.8031   -4.0169   -1.4531 H   0  0  0  0  0  0  0  0  0  0  0  0
    6.4621   -3.5244    0.0658 H   0  0  0  0  0  0  0  0  0  0  0  0
    4.0454   -5.2997   -0.3709 H   0  0  0  0  0  0  0  0  0  0  0  0
    5.6081   -5.8820    0.1032 H   0  0  0  0  0  0  0  0  0  0  0  0
    5.7157   -4.6237    3.5770 H   0  0  0  0  0  0  0  0  0  0  0  0
    6.2701   -3.6171    2.2568 H   0  0  0  0  0  0  0  0  0  0  0  0
    6.6461   -5.2972    2.2410 H   0  0  0  0  0  0  0  0  0  0  0  0
    2.6747   -3.9026    1.3971 H   0  0  0  0  0  0  0  0  0  0  0  0
    4.1928   -2.9514    3.8645 H   0  0  0  0  0  0  0  0  0  0  0  0
    2.5828   -2.4828    3.3377 H   0  0  0  0  0  0  0  0  0  0  0  0
    2.0472   -4.2415    4.7740 H   0  0  0  0  0  0  0  0  0  0  0  0
   -0.4667   -6.6919    4.1222 H   0  0  0  0  0  0  0  0  0  0  0  0
    0.1904   -6.2696    2.5469 H   0  0  0  0  0  0  0  0  0  0  0  0
    0.2488   -5.1613    3.8910 H   0  0  0  0  0  0  0  0  0  0  0  0
    2.8858   -7.1505    5.8315 H   0  0  0  0  0  0  0  0  0  0  0  0
    1.5804   -5.9843    6.0411 H   0  0  0  0  0  0  0  0  0  0  0  0
    2.1223   -9.7282    5.7104 H   0  0  0  0  0  0  0  0  0  0  0  0
   -0.6303  -10.3727    5.5412 H   0  0  0  0  0  0  0  0  0  0  0  0
    1.4321  -10.7456    2.2786 H   0  0  0  0  0  0  0  0  0  0  0  0
    1.0317  -11.5624    3.7921 H   0  0  0  0  0  0  0  0  0  0  0  0
    2.6173  -10.8328    3.5825 H   0  0  0  0  0  0  0  0  0  0  0  0
   -0.5847   -8.7536    2.4779 H   0  0  0  0  0  0  0  0  0  0  0  0
   -1.0699   -8.7088    4.1797 H   0  0  0  0  0  0  0  0  0  0  0  0
   -0.9236  -10.2243    3.3592 H   0  0  0  0  0  0  0  0  0  0  0  0
    2.8980   -8.5349    3.7938 H   0  0  0  0  0  0  0  0  0  0  0  0
    2.7527   -8.9879    1.5510 H   0  0  0  0  0  0  0  0  0  0  0  0
    1.1983   -8.2769    1.3004 H   0  0  0  0  0  0  0  0  0  0  0  0
    3.4525   -7.1710    0.4638 H   0  0  0  0  0  0  0  0  0  0  0  0
    2.1099   -6.1624    0.9593 H   0  0  0  0  0  0  0  0  0  0  0  0
    5.6985   -7.1966    2.0464 H   0  0  0  0  0  0  0  0  0  0  0  0
    4.5853   -8.2059    2.7985 H   0  0  0  0  0  0  0  0  0  0  0  0
    5.2958   -6.9176    3.7481 H   0  0  0  0  0  0  0  0  0  0  0  0
    3.0513   -1.8219    0.8358 H   0  0  0  0  0  0  0  0  0  0  0  0
  1  2  2  0
  1 35  1  0
  1 36  1  0
  2  3  1  0
  2  4  1  0
  3 37  1  0
  3 38  1  0
  3 39  1  0
  4 34  1  0
  4  5  1  0
  4 40  1  1
  5  6  1  0
  5 41  1  0
  5 42  1  0
  6  7  1  0
  6 43  1  0
  6 44  1  0
  7 34  1  0
  7  8  1  6
  7 11  1  0
  8  9  2  0
  8 10  1  0
 11 12  1  0
 11 45  1  0
 11 46  1  0
 12 13  1  0
 12 47  1  0
 12 48  1  0
 13 32  1  0
 13 14  1  1
 13 15  1  0
 14 49  1  0
 14 50  1  0
 14 51  1  0
 15 16  1  0
 15 34  1  0
 15 52  1  6
 16 17  1  0
 16 53  1  0
 16 54  1  0
 17 18  2  0
 17 55  1  0
 18 32  1  0
 18 19  1  0
 19 29  1  0
 19 20  1  1
 19 21  1  0
 20 56  1  0
 20 57  1  0
 20 58  1  0
 21 22  1  0
 21 59  1  0
 21 60  1  0
 22 23  2  0
 22 24  1  0
 24 25  1  0
 24 26  1  0
 24 61  1  6
 25 62  1  0
 26 27  1  0
 26 28  1  0
 26 29  1  0
 27 63  1  0
 27 64  1  0
 27 65  1  0
 28 66  1  0
 28 67  1  0
 28 68  1  0
 29 30  1  0
 29 69  1  1
 30 31  1  0
 30 70  1  0
 30 71  1  0
 31 32  1  0
 31 72  1  0
 31 73  1  0
 32 33  1  1
 33 74  1  0
 33 75  1  0
 33 76  1  0
 34 77  1  6
M  CHG  1  10  -1
M  END
>  <i_m_ct_stereo_status>  (299) 
1

>  <s_m_source_file>  (299) 
/var/tmp/pbs.5076255.sched01/tmpoq50wh_d/842pmd5wfz.sdf

>  <i_m_source_file_index>  (299) 
29

>  <i_lp_mmshare_version>  (299) 
48012

>  <i_f3d_flags>  (299) 
0

>  <s_epik_input>  (299) 
W0NIMl09QyhbQ0gzXSlbQ0BIXShbQ0gyXVtDSDJdMSlbQ0BASF0oW0NAQF0xMkMoPU8pW09IXSlbQ0BIXTNbQ0BdKFtDSDNdKShbQ0gyXVtDSDJdMilbQ0BAXTQoW0NIM10pQyg9W0NIXVtDSDJdMylbQ0BAXTUoW0NIM10pW0NASF0oW0NIMl1bQ0gyXTQpQyhbQ0gzXSkoW0NIM10pW0NASF0oW09IXSlDKD1PKVtDSDJdNQ==

>  <s_epik_cmdline>  (299) 
J2VwaWtfcHl0aG9uJywgJy1waHQnLCAnMi4wJywgJy1waCcsICc3LjAnLCAnLXRuJywgJzgnLCAnLW1hJywgJzIwMCcsICctaW1hZScsICc8aW5maWxlLm1hZT4nLCAnLW9tYWUnLCAnPG91dGZpbGUubWFlPic=

>  <r_lp_tautomer_probability>  (299) 
0.99995

>  <r_epik_Ionization_Penalty>  (299) 
0.00697615

>  <r_epik_Ionization_Penalty_Charging>  (299) 
0.0069761

>  <r_epik_Ionization_Penalty_Neutral>  (299) 
4.81027e-08

>  <r_epik_State_Penalty>  (299) 
0.00518846

>  <r_epik_Charging_Adjusted_Penalty>  (299) 
0.0121646

>  <i_epik_Tot_Q>  (299) 
-1

>  <i_epik_Tot_abs_Q>  (299) 
1

>  <s_lp_Force_Field>  (299) 
OPLS3e

>  <r_lp_Energy>  (299) 
86.5176

>  <b_lp_Chiralities_Consistent>  (299) 
1

>  <s_lp_Variant>  (299) 
85:0-1

>  <s_i_glide_gridfile>  (299) 
pfpi4k_grid

>  <i_i_glide_lignum>  (299) 
29

>  <i_i_glide_rotatable_bonds>  (299) 
3

>  <r_i_docking_score>  (299) 
-2.56025

>  <r_i_glide_ligand_efficiency>  (299) 
-0.0753013

>  <r_i_glide_ligand_efficiency_sa>  (299) 
-0.243947

>  <r_i_glide_ligand_efficiency_ln>  (299) 
-0.56563

>  <r_i_glide_gscore>  (299) 
-2.56025

>  <r_i_glide_lipo>  (299) 
-0.715684

>  <r_i_glide_hbond>  (299) 
0

>  <r_i_glide_metal>  (299) 
-0

>  <r_i_glide_rewards>  (299) 
-0.2205

>  <r_i_glide_evdw>  (299) 
-31.5233

>  <r_i_glide_ecoul>  (299) 
-0.689436

>  <r_i_glide_erotb>  (299) 
0.0922885

>  <r_i_glide_esite>  (299) 
-0.0367671

>  <r_i_glide_emodel>  (299) 
-35.2739

>  <r_i_glide_energy>  (299) 
-32.2128

>  <r_i_glide_einternal>  (299) 
4.21421

>  <r_i_glide_intrahb_reward>  (299) 
-0

>  <i_i_glide_confnum>  (299) 
3

>  <i_i_glide_posenum>  (299) 
39

>  <r_i_glide_eff_state_penalty>  (299) 
0

>  <ligand_id>  (299) 
85

>  <original_smiles>  (299) 
C=C(C)C1CCC2(C(=O)O)CCC3(C)C(CC=C4C5(C)CC(=O)C(O)C(C)(C)C5CCC43C)C12

>  <smiles>  (299) 
[H]OC1([H])C(=O)C([H])([H])C2(C([H])([H])[H])C3=C([H])C([H])([H])C4([H])C5([H])C([H])(C(=C([H])[H])C([H])([H])[H])C([H])([H])C([H])([H])C5(C(=O)[O-])C([H])([H])C([H])([H])C4(C([H])([H])[H])C3(C([H])([H])[H])C([H])([H])C([H])([H])C2([H])C1(C([H])([H])[H])C([H])([H])[H]

$$$$
85:0:2
     RDKit          3D

 77 81  0  0  1  0  0  0  0  0999 V2000
    4.1106    0.4548    1.5537 C   0  0  0  0  0  0  0  0  0  0  0  0
    5.0033   -0.3455    2.1624 C   0  0  0  0  0  0  0  0  0  0  0  0
    5.6018    0.0064    3.5144 C   0  0  0  0  0  0  0  0  0  0  0  0
    5.4735   -1.6591    1.5460 C   0  0  2  0  0  0  0  0  0  0  0  0
    6.4060   -1.4207    0.3460 C   0  0  0  0  0  0  0  0  0  0  0  0
    5.5869   -1.7700   -0.8963 C   0  0  0  0  0  0  0  0  0  0  0  0
    4.6633   -2.9249   -0.4512 C   0  0  1  0  0  0  0  0  0  0  0  0
    3.4167   -2.9838   -1.3690 C   0  0  0  0  0  0  0  0  0  0  0  0
    2.3586   -3.4516   -0.8919 O   0  0  0  0  0  0  0  0  0  0  0  0
    3.5615   -2.5928   -2.5503 O   0  0  0  0  0  0  0  0  0  0  0  0
    5.4043   -4.2738   -0.5129 C   0  0  0  0  0  0  0  0  0  0  0  0
    4.6618   -5.3997    0.2233 C   0  0  0  0  0  0  0  0  0  0  0  0
    4.4682   -5.1345    1.7467 C   0  0  1  0  0  0  0  0  0  0  0  0
    5.8938   -5.0875    2.3847 C   0  0  0  0  0  0  0  0  0  0  0  0
    3.7983   -3.7396    1.9127 C   0  0  1  0  0  0  0  0  0  0  0  0
    3.6995   -3.3668    3.3990 C   0  0  0  0  0  0  0  0  0  0  0  0
    2.9772   -4.4517    4.1493 C   0  0  0  0  0  0  0  0  0  0  0  0
    2.8158   -5.7281    3.7286 C   0  0  0  0  0  0  0  0  0  0  0  0
    1.6473   -6.5485    4.3458 C   0  0  2  0  0  0  0  0  0  0  0  0
    0.3434   -5.7418    4.0836 C   0  0  0  0  0  0  0  0  0  0  0  0
    1.8773   -6.6853    5.8750 C   0  0  0  0  0  0  0  0  0  0  0  0
    0.8801   -7.6284    6.5466 C   0  0  0  0  0  0  0  0  0  0  0  0
    0.2359   -7.2843    7.5419 O   0  0  0  0  0  0  0  0  0  0  0  0
    0.7611   -9.0164    5.9013 C   0  0  1  0  0  0  0  0  0  0  0  0
   -0.1931   -9.7954    6.6000 O   0  0  0  0  0  0  0  0  0  0  0  0
    0.4802   -8.9591    4.3642 C   0  0  0  0  0  0  0  0  0  0  0  0
    0.7189  -10.3788    3.7900 C   0  0  0  0  0  0  0  0  0  0  0  0
   -0.9870   -8.5675    4.0586 C   0  0  0  0  0  0  0  0  0  0  0  0
    1.5275   -7.9751    3.7237 C   0  0  1  0  0  0  0  0  0  0  0  0
    1.5736   -7.9584    2.1717 C   0  0  0  0  0  0  0  0  0  0  0  0
    2.4310   -6.8190    1.5554 C   0  0  0  0  0  0  0  0  0  0  0  0
    3.5642   -6.2691    2.4611 C   0  0  1  0  0  0  0  0  0  0  0  0
    4.5153   -7.4627    2.8075 C   0  0  0  0  0  0  0  0  0  0  0  0
    4.3083   -2.5605    1.0177 C   0  0  1  0  0  0  0  0  0  0  0  0
    3.7664    1.3485    2.0411 H   0  0  0  0  0  0  0  0  0  0  0  0
    3.7083    0.2325    0.5771 H   0  0  0  0  0  0  0  0  0  0  0  0
    5.3708   -0.7505    4.2641 H   0  0  0  0  0  0  0  0  0  0  0  0
    5.2170    0.9607    3.8725 H   0  0  0  0  0  0  0  0  0  0  0  0
    6.6875    0.1056    3.4407 H   0  0  0  0  0  0  0  0  0  0  0  0
    6.0516   -2.1591    2.3185 H   0  0  0  0  0  0  0  0  0  0  0  0
    6.8003   -0.4056    0.3021 H   0  0  0  0  0  0  0  0  0  0  0  0
    7.2599   -2.0988    0.4030 H   0  0  0  0  0  0  0  0  0  0  0  0
    5.0052   -0.8942   -1.1926 H   0  0  0  0  0  0  0  0  0  0  0  0
    6.2026   -2.0415   -1.7555 H   0  0  0  0  0  0  0  0  0  0  0  0
    5.5157   -4.5458   -1.5599 H   0  0  0  0  0  0  0  0  0  0  0  0
    6.4150   -4.1647   -0.1239 H   0  0  0  0  0  0  0  0  0  0  0  0
    3.7047   -5.5100   -0.2766 H   0  0  0  0  0  0  0  0  0  0  0  0
    5.1851   -6.3372    0.0605 H   0  0  0  0  0  0  0  0  0  0  0  0
    5.8580   -5.0917    3.4764 H   0  0  0  0  0  0  0  0  0  0  0  0
    6.4523   -4.2082    2.0844 H   0  0  0  0  0  0  0  0  0  0  0  0
    6.5193   -5.9277    2.0749 H   0  0  0  0  0  0  0  0  0  0  0  0
    2.7706   -3.8864    1.5801 H   0  0  0  0  0  0  0  0  0  0  0  0
    4.6674   -3.1806    3.8677 H   0  0  0  0  0  0  0  0  0  0  0  0
    3.1119   -2.4504    3.4856 H   0  0  0  0  0  0  0  0  0  0  0  0
    2.4325   -4.0856    5.0100 H   0  0  0  0  0  0  0  0  0  0  0  0
   -0.5040   -6.0675    4.6743 H   0  0  0  0  0  0  0  0  0  0  0  0
    0.0637   -5.7967    3.0332 H   0  0  0  0  0  0  0  0  0  0  0  0
    0.4290   -4.6852    4.3282 H   0  0  0  0  0  0  0  0  0  0  0  0
    2.8756   -7.0856    6.0595 H   0  0  0  0  0  0  0  0  0  0  0  0
    1.8089   -5.7139    6.3649 H   0  0  0  0  0  0  0  0  0  0  0  0
    1.7208   -9.5078    6.0481 H   0  0  0  0  0  0  0  0  0  0  0  0
   -0.3894  -10.5694    6.0879 H   0  0  0  0  0  0  0  0  0  0  0  0
    0.4674  -10.4408    2.7255 H   0  0  0  0  0  0  0  0  0  0  0  0
    0.1105  -11.1349    4.2997 H   0  0  0  0  0  0  0  0  0  0  0  0
    1.7596  -10.6832    3.9114 H   0  0  0  0  0  0  0  0  0  0  0  0
   -1.1245   -8.0638    3.1051 H   0  0  0  0  0  0  0  0  0  0  0  0
   -1.4292   -7.9475    4.8356 H   0  0  0  0  0  0  0  0  0  0  0  0
   -1.6182   -9.4504    4.0115 H   0  0  0  0  0  0  0  0  0  0  0  0
    2.4388   -8.4610    4.0528 H   0  0  0  0  0  0  0  0  0  0  0  0
    1.9979   -8.9075    1.8441 H   0  0  0  0  0  0  0  0  0  0  0  0
    0.5736   -7.9399    1.7375 H   0  0  0  0  0  0  0  0  0  0  0  0
    2.8591   -7.2158    0.6405 H   0  0  0  0  0  0  0  0  0  0  0  0
    1.7730   -5.9962    1.2665 H   0  0  0  0  0  0  0  0  0  0  0  0
    5.2365   -7.6373    2.0102 H   0  0  0  0  0  0  0  0  0  0  0  0
    4.0525   -8.4389    2.8890 H   0  0  0  0  0  0  0  0  0  0  0  0
    5.0627   -7.2830    3.7355 H   0  0  0  0  0  0  0  0  0  0  0  0
    3.4274   -1.9237    0.9395 H   0  0  0  0  0  0  0  0  0  0  0  0
  1  2  2  0
  1 35  1  0
  1 36  1  0
  2  3  1  0
  2  4  1  0
  3 37  1  0
  3 38  1  0
  3 39  1  0
  4 34  1  0
  4  5  1  0
  4 40  1  1
  5  6  1  0
  5 41  1  0
  5 42  1  0
  6  7  1  0
  6 43  1  0
  6 44  1  0
  7 34  1  0
  7  8  1  6
  7 11  1  0
  8  9  2  0
  8 10  1  0
 11 12  1  0
 11 45  1  0
 11 46  1  0
 12 13  1  0
 12 47  1  0
 12 48  1  0
 13 32  1  0
 13 14  1  1
 13 15  1  0
 14 49  1  0
 14 50  1  0
 14 51  1  0
 15 16  1  0
 15 34  1  0
 15 52  1  6
 16 17  1  0
 16 53  1  0
 16 54  1  0
 17 18  2  0
 17 55  1  0
 18 32  1  0
 18 19  1  0
 19 29  1  0
 19 20  1  1
 19 21  1  0
 20 56  1  0
 20 57  1  0
 20 58  1  0
 21 22  1  0
 21 59  1  0
 21 60  1  0
 22 23  2  0
 22 24  1  0
 24 25  1  0
 24 26  1  0
 24 61  1  6
 25 62  1  0
 26 27  1  0
 26 28  1  0
 26 29  1  0
 27 63  1  0
 27 64  1  0
 27 65  1  0
 28 66  1  0
 28 67  1  0
 28 68  1  0
 29 30  1  0
 29 69  1  1
 30 31  1  0
 30 70  1  0
 30 71  1  0
 31 32  1  0
 31 72  1  0
 31 73  1  0
 32 33  1  1
 33 74  1  0
 33 75  1  0
 33 76  1  0
 34 77  1  6
M  CHG  1  10  -1
M  END
>  <i_m_ct_stereo_status>  (300) 
1

>  <s_m_source_file>  (300) 
/var/tmp/pbs.5076255.sched01/tmpoq50wh_d/842pmd5wfz.sdf

>  <i_m_source_file_index>  (300) 
29

>  <i_lp_mmshare_version>  (300) 
48012

>  <i_f3d_flags>  (300) 
0

>  <s_epik_input>  (300) 
W0NIMl09QyhbQ0gzXSlbQ0BIXShbQ0gyXVtDSDJdMSlbQ0BASF0oW0NAQF0xMkMoPU8pW09IXSlbQ0BIXTNbQ0BdKFtDSDNdKShbQ0gyXVtDSDJdMilbQ0BAXTQoW0NIM10pQyg9W0NIXVtDSDJdMylbQ0BAXTUoW0NIM10pW0NASF0oW0NIMl1bQ0gyXTQpQyhbQ0gzXSkoW0NIM10pW0NASF0oW09IXSlDKD1PKVtDSDJdNQ==

>  <s_epik_cmdline>  (300) 
J2VwaWtfcHl0aG9uJywgJy1waHQnLCAnMi4wJywgJy1waCcsICc3LjAnLCAnLXRuJywgJzgnLCAnLW1hJywgJzIwMCcsICctaW1hZScsICc8aW5maWxlLm1hZT4nLCAnLW9tYWUnLCAnPG91dGZpbGUubWFlPic=

>  <r_lp_tautomer_probability>  (300) 
0.99995

>  <r_epik_Ionization_Penalty>  (300) 
0.00697615

>  <r_epik_Ionization_Penalty_Charging>  (300) 
0.0069761

>  <r_epik_Ionization_Penalty_Neutral>  (300) 
4.81027e-08

>  <r_epik_State_Penalty>  (300) 
0.00518846

>  <r_epik_Charging_Adjusted_Penalty>  (300) 
0.0121646

>  <i_epik_Tot_Q>  (300) 
-1

>  <i_epik_Tot_abs_Q>  (300) 
1

>  <s_lp_Force_Field>  (300) 
OPLS3e

>  <r_lp_Energy>  (300) 
86.5176

>  <b_lp_Chiralities_Consistent>  (300) 
1

>  <s_lp_Variant>  (300) 
85:0-1

>  <s_i_glide_gridfile>  (300) 
pfpi4k_grid

>  <i_i_glide_lignum>  (300) 
29

>  <i_i_glide_rotatable_bonds>  (300) 
3

>  <r_i_docking_score>  (300) 
-2.37016

>  <r_i_glide_ligand_efficiency>  (300) 
-0.0697105

>  <r_i_glide_ligand_efficiency_sa>  (300) 
-0.225835

>  <r_i_glide_ligand_efficiency_ln>  (300) 
-0.523634

>  <r_i_glide_gscore>  (300) 
-2.37016

>  <r_i_glide_lipo>  (300) 
-0.534679

>  <r_i_glide_hbond>  (300) 
0

>  <r_i_glide_metal>  (300) 
-0

>  <r_i_glide_rewards>  (300) 
-0.2205

>  <r_i_glide_evdw>  (300) 
-30.6531

>  <r_i_glide_ecoul>  (300) 
-1.01964

>  <r_i_glide_erotb>  (300) 
0.0922885

>  <r_i_glide_esite>  (300) 
-0.0216681

>  <r_i_glide_emodel>  (300) 
-34.8842

>  <r_i_glide_energy>  (300) 
-31.6727

>  <r_i_glide_einternal>  (300) 
3.20833

>  <r_i_glide_intrahb_reward>  (300) 
-0

>  <i_i_glide_confnum>  (300) 
3

>  <i_i_glide_posenum>  (300) 
1

>  <r_i_glide_eff_state_penalty>  (300) 
0

>  <ligand_id>  (300) 
85

>  <original_smiles>  (300) 
C=C(C)C1CCC2(C(=O)O)CCC3(C)C(CC=C4C5(C)CC(=O)C(O)C(C)(C)C5CCC43C)C12

>  <smiles>  (300) 
[H]OC1([H])C(=O)C([H])([H])C2(C([H])([H])[H])C3=C([H])C([H])([H])C4([H])C5([H])C([H])(C(=C([H])[H])C([H])([H])[H])C([H])([H])C([H])([H])C5(C(=O)[O-])C([H])([H])C([H])([H])C4(C([H])([H])[H])C3(C([H])([H])[H])C([H])([H])C([H])([H])C2([H])C1(C([H])([H])[H])C([H])([H])[H]

$$$$
86:0:0
     RDKit          3D

 12 13  0  0  1  0  0  0  0  0999 V2000
   -8.0255   -4.2424   -5.3825 C   0  0  0  0  0  0  0  0  0  0  0  0
   -8.6249   -5.0553   -6.3612 C   0  0  0  0  0  0  0  0  0  0  0  0
   -8.1026   -6.2348   -6.7652 N   0  0  0  0  0  0  0  0  0  0  0  0
   -6.9562   -6.6722   -6.1973 C   0  0  0  0  0  0  0  0  0  0  0  0
   -6.3311   -7.8210   -6.4914 N   0  0  0  0  0  0  0  0  0  0  0  0
   -4.9675   -7.8605   -5.5066 S   0  0  0  0  0  0  0  0  0  0  0  0
   -5.1463   -6.3902   -4.7221 N   0  0  0  0  0  0  0  0  0  0  0  0
   -6.2906   -5.9102   -5.2149 C   0  0  0  0  0  0  0  0  0  0  0  0
   -6.8225   -4.6774   -4.7952 C   0  0  0  0  0  0  0  0  0  0  0  0
   -8.4736   -3.2988   -5.1017 H   0  0  0  0  0  0  0  0  0  0  0  0
   -9.5453   -4.7508   -6.8368 H   0  0  0  0  0  0  0  0  0  0  0  0
   -6.3235   -4.0772   -4.0488 H   0  0  0  0  0  0  0  0  0  0  0  0
  1  9  2  0
  1  2  1  0
  1 10  1  0
  2  3  2  0
  2 11  1  0
  3  4  1  0
  4  8  1  0
  4  5  2  0
  5  6  1  0
  6  7  1  0
  7  8  2  0
  8  9  1  0
  9 12  1  0
M  END
>  <i_m_ct_stereo_status>  (301) 
1

>  <s_m_source_file>  (301) 
/var/tmp/pbs.5076255.sched01/tmpoq50wh_d/842pmd5wfz.sdf

>  <i_m_source_file_index>  (301) 
30

>  <i_lp_mmshare_version>  (301) 
48012

>  <i_f3d_flags>  (301) 
0

>  <s_epik_input>  (301) 
bjFbY0hdW2NIXVtjSF1jKGMxMiluc24y

>  <s_epik_cmdline>  (301) 
J2VwaWtfcHl0aG9uJywgJy1waHQnLCAnMi4wJywgJy1waCcsICc3LjAnLCAnLXRuJywgJzgnLCAnLW1hJywgJzIwMCcsICctaW1hZScsICc8aW5maWxlLm1hZT4nLCAnLW9tYWUnLCAnPG91dGZpbGUubWFlPic=

>  <r_lp_tautomer_probability>  (301) 
1

>  <r_epik_Ionization_Penalty>  (301) 
1.02883e-08

>  <r_epik_Ionization_Penalty_Charging>  (301) 
0

>  <r_epik_Ionization_Penalty_Neutral>  (301) 
1.02883e-08

>  <r_epik_State_Penalty>  (301) 
-0

>  <r_epik_Charging_Adjusted_Penalty>  (301) 
0

>  <i_epik_Tot_Q>  (301) 
0

>  <i_epik_Tot_abs_Q>  (301) 
0

>  <s_lp_Force_Field>  (301) 
OPLS3e

>  <r_lp_Energy>  (301) 
11.1044

>  <b_lp_Chiralities_Consistent>  (301) 
1

>  <s_lp_Variant>  (301) 
86:0-1

>  <s_i_glide_gridfile>  (301) 
pfpi4k_grid

>  <i_i_glide_lignum>  (301) 
30

>  <i_i_glide_rotatable_bonds>  (301) 
0

>  <r_i_docking_score>  (301) 
-6.90747

>  <r_i_glide_ligand_efficiency>  (301) 
-0.767497

>  <r_i_glide_ligand_efficiency_sa>  (301) 
-1.59646

>  <r_i_glide_ligand_efficiency_ln>  (301) 
-2.16046

>  <r_i_glide_gscore>  (301) 
-6.90747

>  <r_i_glide_lipo>  (301) 
-1.58649

>  <r_i_glide_hbond>  (301) 
-0.255829

>  <r_i_glide_metal>  (301) 
-0

>  <r_i_glide_rewards>  (301) 
-3.77101

>  <r_i_glide_evdw>  (301) 
-21.2329

>  <r_i_glide_ecoul>  (301) 
-1.55

>  <r_i_glide_erotb>  (301) 
0

>  <r_i_glide_esite>  (301) 
0

>  <r_i_glide_emodel>  (301) 
-32.4941

>  <r_i_glide_energy>  (301) 
-22.7829

>  <r_i_glide_einternal>  (301) 
0

>  <r_i_glide_intrahb_reward>  (301) 
-0

>  <i_i_glide_confnum>  (301) 
2

>  <i_i_glide_posenum>  (301) 
11

>  <r_i_glide_eff_state_penalty>  (301) 
0

>  <ligand_id>  (301) 
86

>  <original_smiles>  (301) 
c1cnc2nsnc2c1

>  <smiles>  (301) 
[H]c1nc2nsnc2c([H])c1[H]

$$$$
86:0:1
     RDKit          3D

 12 13  0  0  1  0  0  0  0  0999 V2000
   -0.4703   -9.3708    2.8792 C   0  0  0  0  0  0  0  0  0  0  0  0
   -1.1772   -8.1902    2.5849 C   0  0  0  0  0  0  0  0  0  0  0  0
   -0.5933   -7.0726    2.0934 N   0  0  0  0  0  0  0  0  0  0  0  0
    0.7378   -7.0935    1.8559 C   0  0  0  0  0  0  0  0  0  0  0  0
    1.4369   -6.0678    1.3561 N   0  0  0  0  0  0  0  0  0  0  0  0
    3.0307   -6.6063    1.2814 S   0  0  0  0  0  0  0  0  0  0  0  0
    2.8291   -8.1628    1.8732 N   0  0  0  0  0  0  0  0  0  0  0  0
    1.5202   -8.2332    2.1270 C   0  0  0  0  0  0  0  0  0  0  0  0
    0.9177   -9.3944    2.6490 C   0  0  0  0  0  0  0  0  0  0  0  0
   -0.9791  -10.2372    3.2804 H   0  0  0  0  0  0  0  0  0  0  0  0
   -2.2427   -8.1376    2.7551 H   0  0  0  0  0  0  0  0  0  0  0  0
    1.4983  -10.2800    2.8645 H   0  0  0  0  0  0  0  0  0  0  0  0
  1  9  2  0
  1  2  1  0
  1 10  1  0
  2  3  2  0
  2 11  1  0
  3  4  1  0
  4  8  1  0
  4  5  2  0
  5  6  1  0
  6  7  1  0
  7  8  2  0
  8  9  1  0
  9 12  1  0
M  END
>  <i_m_ct_stereo_status>  (302) 
1

>  <s_m_source_file>  (302) 
/var/tmp/pbs.5076255.sched01/tmpoq50wh_d/842pmd5wfz.sdf

>  <i_m_source_file_index>  (302) 
30

>  <i_lp_mmshare_version>  (302) 
48012

>  <i_f3d_flags>  (302) 
0

>  <s_epik_input>  (302) 
bjFbY0hdW2NIXVtjSF1jKGMxMiluc24y

>  <s_epik_cmdline>  (302) 
J2VwaWtfcHl0aG9uJywgJy1waHQnLCAnMi4wJywgJy1waCcsICc3LjAnLCAnLXRuJywgJzgnLCAnLW1hJywgJzIwMCcsICctaW1hZScsICc8aW5maWxlLm1hZT4nLCAnLW9tYWUnLCAnPG91dGZpbGUubWFlPic=

>  <r_lp_tautomer_probability>  (302) 
1

>  <r_epik_Ionization_Penalty>  (302) 
1.02883e-08

>  <r_epik_Ionization_Penalty_Charging>  (302) 
0

>  <r_epik_Ionization_Penalty_Neutral>  (302) 
1.02883e-08

>  <r_epik_State_Penalty>  (302) 
-0

>  <r_epik_Charging_Adjusted_Penalty>  (302) 
0

>  <i_epik_Tot_Q>  (302) 
0

>  <i_epik_Tot_abs_Q>  (302) 
0

>  <s_lp_Force_Field>  (302) 
OPLS3e

>  <r_lp_Energy>  (302) 
11.1044

>  <b_lp_Chiralities_Consistent>  (302) 
1

>  <s_lp_Variant>  (302) 
86:0-1

>  <s_i_glide_gridfile>  (302) 
pfpi4k_grid

>  <i_i_glide_lignum>  (302) 
30

>  <i_i_glide_rotatable_bonds>  (302) 
0

>  <r_i_docking_score>  (302) 
-3.94127

>  <r_i_glide_ligand_efficiency>  (302) 
-0.437919

>  <r_i_glide_ligand_efficiency_sa>  (302) 
-0.910908

>  <r_i_glide_ligand_efficiency_ln>  (302) 
-1.23272

>  <r_i_glide_gscore>  (302) 
-3.94127

>  <r_i_glide_lipo>  (302) 
-0.064327

>  <r_i_glide_hbond>  (302) 
-0.234406

>  <r_i_glide_metal>  (302) 
-0

>  <r_i_glide_rewards>  (302) 
-2.25

>  <r_i_glide_evdw>  (302) 
-15.0993

>  <r_i_glide_ecoul>  (302) 
-3.81529

>  <r_i_glide_erotb>  (302) 
0

>  <r_i_glide_esite>  (302) 
-0.0652796

>  <r_i_glide_emodel>  (302) 
-24.4558

>  <r_i_glide_energy>  (302) 
-18.9146

>  <r_i_glide_einternal>  (302) 
0

>  <r_i_glide_intrahb_reward>  (302) 
-0

>  <i_i_glide_confnum>  (302) 
1

>  <i_i_glide_posenum>  (302) 
3

>  <r_i_glide_eff_state_penalty>  (302) 
0

>  <ligand_id>  (302) 
86

>  <original_smiles>  (302) 
c1cnc2nsnc2c1

>  <smiles>  (302) 
[H]c1nc2nsnc2c([H])c1[H]

$$$$
86:0:2
     RDKit          3D

 12 13  0  0  1  0  0  0  0  0999 V2000
    3.0648   -7.3239    1.6158 C   0  0  0  0  0  0  0  0  0  0  0  0
    2.2265   -6.2469    1.2704 C   0  0  0  0  0  0  0  0  0  0  0  0
    0.8846   -6.2641    1.4431 N   0  0  0  0  0  0  0  0  0  0  0  0
    0.3181   -7.3641    1.9875 C   0  0  0  0  0  0  0  0  0  0  0  0
   -0.9875   -7.4985    2.2429 N   0  0  0  0  0  0  0  0  0  0  0  0
   -1.1579   -9.0482    2.8794 S   0  0  0  0  0  0  0  0  0  0  0  0
    0.4456   -9.5342    2.8795 N   0  0  0  0  0  0  0  0  0  0  0  0
    1.0833   -8.4841    2.3565 C   0  0  0  0  0  0  0  0  0  0  0  0
    2.4778   -8.4791    2.1662 C   0  0  0  0  0  0  0  0  0  0  0  0
    4.1312   -7.2713    1.4481 H   0  0  0  0  0  0  0  0  0  0  0  0
    2.6409   -5.3475    0.8394 H   0  0  0  0  0  0  0  0  0  0  0  0
    3.0820   -9.3338    2.4381 H   0  0  0  0  0  0  0  0  0  0  0  0
  1  9  2  0
  1  2  1  0
  1 10  1  0
  2  3  2  0
  2 11  1  0
  3  4  1  0
  4  8  1  0
  4  5  2  0
  5  6  1  0
  6  7  1  0
  7  8  2  0
  8  9  1  0
  9 12  1  0
M  END
>  <i_m_ct_stereo_status>  (303) 
1

>  <s_m_source_file>  (303) 
/var/tmp/pbs.5076255.sched01/tmpoq50wh_d/842pmd5wfz.sdf

>  <i_m_source_file_index>  (303) 
30

>  <i_lp_mmshare_version>  (303) 
48012

>  <i_f3d_flags>  (303) 
0

>  <s_epik_input>  (303) 
bjFbY0hdW2NIXVtjSF1jKGMxMiluc24y

>  <s_epik_cmdline>  (303) 
J2VwaWtfcHl0aG9uJywgJy1waHQnLCAnMi4wJywgJy1waCcsICc3LjAnLCAnLXRuJywgJzgnLCAnLW1hJywgJzIwMCcsICctaW1hZScsICc8aW5maWxlLm1hZT4nLCAnLW9tYWUnLCAnPG91dGZpbGUubWFlPic=

>  <r_lp_tautomer_probability>  (303) 
1

>  <r_epik_Ionization_Penalty>  (303) 
1.02883e-08

>  <r_epik_Ionization_Penalty_Charging>  (303) 
0

>  <r_epik_Ionization_Penalty_Neutral>  (303) 
1.02883e-08

>  <r_epik_State_Penalty>  (303) 
-0

>  <r_epik_Charging_Adjusted_Penalty>  (303) 
0

>  <i_epik_Tot_Q>  (303) 
0

>  <i_epik_Tot_abs_Q>  (303) 
0

>  <s_lp_Force_Field>  (303) 
OPLS3e

>  <r_lp_Energy>  (303) 
11.1044

>  <b_lp_Chiralities_Consistent>  (303) 
1

>  <s_lp_Variant>  (303) 
86:0-1

>  <s_i_glide_gridfile>  (303) 
pfpi4k_grid

>  <i_i_glide_lignum>  (303) 
30

>  <i_i_glide_rotatable_bonds>  (303) 
0

>  <r_i_docking_score>  (303) 
-3.87879

>  <r_i_glide_ligand_efficiency>  (303) 
-0.430976

>  <r_i_glide_ligand_efficiency_sa>  (303) 
-0.896467

>  <r_i_glide_ligand_efficiency_ln>  (303) 
-1.21317

>  <r_i_glide_gscore>  (303) 
-3.87879

>  <r_i_glide_lipo>  (303) 
-0.0500827

>  <r_i_glide_hbond>  (303) 
-0.187944

>  <r_i_glide_metal>  (303) 
-0

>  <r_i_glide_rewards>  (303) 
-2.25

>  <r_i_glide_evdw>  (303) 
-15.7889

>  <r_i_glide_ecoul>  (303) 
-3.56448

>  <r_i_glide_erotb>  (303) 
0

>  <r_i_glide_esite>  (303) 
-0.066641

>  <r_i_glide_emodel>  (303) 
-24.8062

>  <r_i_glide_energy>  (303) 
-19.3534

>  <r_i_glide_einternal>  (303) 
0

>  <r_i_glide_intrahb_reward>  (303) 
-0

>  <i_i_glide_confnum>  (303) 
1

>  <i_i_glide_posenum>  (303) 
2

>  <r_i_glide_eff_state_penalty>  (303) 
0

>  <ligand_id>  (303) 
86

>  <original_smiles>  (303) 
c1cnc2nsnc2c1

>  <smiles>  (303) 
[H]c1nc2nsnc2c([H])c1[H]

$$$$
87:0:0
     RDKit          3D

 63 66  0  0  1  0  0  0  0  0999 V2000
    1.1612   -2.3576    3.6974 C   0  0  0  0  0  0  0  0  0  0  0  0
    2.0033   -3.3308    4.5844 C   0  0  0  0  0  0  0  0  0  0  0  0
    1.7864   -2.8490    6.0507 C   0  0  0  0  0  0  0  0  0  0  0  0
    1.4110   -4.7675    4.4833 C   0  0  0  0  0  0  0  0  0  0  0  0
    0.1980   -4.7472    4.7053 O   0  0  0  0  0  0  0  0  0  0  0  0
    2.2519   -5.8432    4.2247 C   0  0  0  0  0  0  0  0  0  0  0  0
    3.6858   -5.7607    4.0037 C   0  0  0  0  0  0  0  0  0  0  0  0
    4.4296   -6.7128    4.2268 O   0  0  0  0  0  0  0  0  0  0  0  0
    4.2634   -4.4214    3.5289 C   0  0  2  0  0  0  0  0  0  0  0  0
    3.5645   -3.2632    4.2886 C   0  0  1  0  0  0  0  0  0  0  0  0
    4.1343   -1.9229    3.8162 C   0  0  0  0  0  0  0  0  0  0  0  0
    4.0854   -1.7718    2.2982 C   0  0  0  0  0  0  0  0  0  0  0  0
    4.9387   -2.8453    1.5566 C   0  0  1  0  0  0  0  0  0  0  0  0
    4.4649   -4.2889    1.9633 C   0  0  1  0  0  0  0  0  0  0  0  0
    5.5597   -5.3382    1.5773 C   0  0  0  0  0  0  0  0  0  0  0  0
    3.1589   -4.5742    1.1920 C   0  0  0  0  0  0  0  0  0  0  0  0
    3.1766   -4.2613   -0.3187 C   0  0  1  0  0  0  0  0  0  0  0  0
    1.8506   -4.5319   -0.7166 O   0  0  0  0  0  0  0  0  0  0  0  0
    3.6584   -2.8204   -0.7337 C   0  0  2  0  0  0  0  0  0  0  0  0
    3.6979   -2.5579   -2.3133 C   0  0  0  0  0  0  0  0  0  0  0  0
    2.4118   -3.0156   -3.0547 C   0  0  0  0  0  0  0  0  0  0  0  0
    3.7832   -1.0529   -2.6601 C   0  0  0  0  0  0  0  0  0  0  0  0
    4.9158   -3.2511   -2.9402 C   0  0  0  0  0  0  0  0  0  0  0  0
    4.8369   -3.8477   -4.0100 O   0  0  0  0  0  0  0  0  0  0  0  0
    6.2540   -3.0832   -2.2434 C   0  0  0  0  0  0  0  0  0  0  0  0
    6.1478   -3.3560   -0.7361 C   0  0  0  0  0  0  0  0  0  0  0  0
    5.0341   -2.5353   -0.0035 C   0  0  2  0  0  0  0  0  0  0  0  0
    5.5036   -1.0525   -0.0896 C   0  0  0  0  0  0  0  0  0  0  0  0
    1.5247   -1.3293    3.7177 H   0  0  0  0  0  0  0  0  0  0  0  0
    0.1205   -2.3028    4.0291 H   0  0  0  0  0  0  0  0  0  0  0  0
    1.1138   -2.6824    2.6618 H   0  0  0  0  0  0  0  0  0  0  0  0
    2.1985   -1.8523    6.2247 H   0  0  0  0  0  0  0  0  0  0  0  0
    2.2553   -3.5376    6.7561 H   0  0  0  0  0  0  0  0  0  0  0  0
    0.7279   -2.8128    6.3187 H   0  0  0  0  0  0  0  0  0  0  0  0
    1.8250   -6.8285    4.1724 H   0  0  0  0  0  0  0  0  0  0  0  0
    5.2788   -4.4255    3.9273 H   0  0  0  0  0  0  0  0  0  0  0  0
    3.9926   -3.3693    5.2842 H   0  0  0  0  0  0  0  0  0  0  0  0
    3.6318   -1.0926    4.3048 H   0  0  0  0  0  0  0  0  0  0  0  0
    5.1769   -1.8539    4.1267 H   0  0  0  0  0  0  0  0  0  0  0  0
    3.0583   -1.7975    1.9425 H   0  0  0  0  0  0  0  0  0  0  0  0
    4.4233   -0.7557    2.1120 H   0  0  0  0  0  0  0  0  0  0  0  0
    5.9479   -2.7264    1.9540 H   0  0  0  0  0  0  0  0  0  0  0  0
    5.3127   -5.9008    0.6750 H   0  0  0  0  0  0  0  0  0  0  0  0
    5.7369   -6.1063    2.3262 H   0  0  0  0  0  0  0  0  0  0  0  0
    6.5434   -4.8812    1.4535 H   0  0  0  0  0  0  0  0  0  0  0  0
    2.8878   -5.6256    1.3186 H   0  0  0  0  0  0  0  0  0  0  0  0
    2.3539   -4.0166    1.6508 H   0  0  0  0  0  0  0  0  0  0  0  0
    3.8149   -5.0061   -0.7923 H   0  0  0  0  0  0  0  0  0  0  0  0
    1.8849   -4.7762   -1.6293 H   0  0  0  0  0  0  0  0  0  0  0  0
    2.9188   -2.1277   -0.3232 H   0  0  0  0  0  0  0  0  0  0  0  0
    1.5065   -2.6477   -2.5602 H   0  0  0  0  0  0  0  0  0  0  0  0
    2.3277   -4.0971   -3.1307 H   0  0  0  0  0  0  0  0  0  0  0  0
    2.3774   -2.6762   -4.0942 H   0  0  0  0  0  0  0  0  0  0  0  0
    3.1880   -0.4955   -1.9479 H   0  0  0  0  0  0  0  0  0  0  0  0
    3.3802   -0.8052   -3.6452 H   0  0  0  0  0  0  0  0  0  0  0  0
    4.7875   -0.6410   -2.6536 H   0  0  0  0  0  0  0  0  0  0  0  0
    6.9705   -3.7641   -2.7022 H   0  0  0  0  0  0  0  0  0  0  0  0
    6.6524   -2.0940   -2.4176 H   0  0  0  0  0  0  0  0  0  0  0  0
    5.9322   -4.4164   -0.7043 H   0  0  0  0  0  0  0  0  0  0  0  0
    7.1230   -3.2247   -0.2533 H   0  0  0  0  0  0  0  0  0  0  0  0
    6.0460   -0.8050   -0.9907 H   0  0  0  0  0  0  0  0  0  0  0  0
    6.2068   -0.8069    0.7103 H   0  0  0  0  0  0  0  0  0  0  0  0
    4.6692   -0.3520   -0.0333 H   0  0  0  0  0  0  0  0  0  0  0  0
  1  2  1  0
  1 29  1  0
  1 30  1  0
  1 31  1  0
  2 10  1  0
  2  3  1  0
  2  4  1  0
  3 32  1  0
  3 33  1  0
  3 34  1  0
  4  5  1  0
  4  6  2  0
  6  7  1  0
  6 35  1  0
  7  8  2  0
  7  9  1  0
  9 14  1  0
  9 10  1  0
  9 36  1  1
 10 11  1  0
 10 37  1  1
 11 12  1  0
 11 38  1  0
 11 39  1  0
 12 13  1  0
 12 40  1  0
 12 41  1  0
 13 27  1  0
 13 14  1  0
 13 42  1  1
 14 15  1  6
 14 16  1  0
 15 43  1  0
 15 44  1  0
 15 45  1  0
 16 17  1  0
 16 46  1  0
 16 47  1  0
 17 18  1  0
 17 19  1  0
 17 48  1  6
 18 49  1  0
 19 27  1  0
 19 20  1  0
 19 50  1  1
 20 21  1  0
 20 22  1  0
 20 23  1  0
 21 51  1  0
 21 52  1  0
 21 53  1  0
 22 54  1  0
 22 55  1  0
 22 56  1  0
 23 24  2  0
 23 25  1  0
 25 26  1  0
 25 57  1  0
 25 58  1  0
 26 27  1  0
 26 59  1  0
 26 60  1  0
 27 28  1  1
 28 61  1  0
 28 62  1  0
 28 63  1  0
M  CHG  1   5  -1
M  END
>  <i_m_ct_stereo_status>  (304) 
1

>  <s_m_source_file>  (304) 
/var/tmp/pbs.5076255.sched01/tmpoq50wh_d/842pmd5wfz.sdf

>  <i_m_source_file_index>  (304) 
31

>  <i_lp_mmshare_version>  (304) 
48012

>  <i_f3d_flags>  (304) 
0

>  <s_epik_input>  (304) 
Tz1DMVtDSDJdQyg9TylDKFtDSDNdKShbQ0gzXSlbQ0BASF0oW0NAQEhdMVtDQF0yM1tDSDNdKVtDSDJdW0NIMl1bQ0BASF0yW0NAXTQoW0NIM10pW0NASF0oW0NAQEhdKFtDSDJdMylbT0hdKUMoW0NIM10pKFtDSDNdKUMoPU8pW0NIMl1bQ0gyXTQ=

>  <s_epik_cmdline>  (304) 
J2VwaWtfcHl0aG9uJywgJy1waHQnLCAnMi4wJywgJy1waCcsICc3LjAnLCAnLXRuJywgJzgnLCAnLW1hJywgJzIwMCcsICctaW1hZScsICc8aW5maWxlLm1hZT4nLCAnLW9tYWUnLCAnPG91dGZpbGUubWFlPic=

>  <r_lp_tautomer_probability>  (304) 
0.99995

>  <r_epik_Ionization_Penalty>  (304) 
0.0313167

>  <r_epik_Ionization_Penalty_Charging>  (304) 
0.00808062

>  <r_epik_Ionization_Penalty_Neutral>  (304) 
0.0232361

>  <r_epik_State_Penalty>  (304) 
0.0246763

>  <r_epik_Charging_Adjusted_Penalty>  (304) 
0.032757

>  <i_epik_Tot_Q>  (304) 
-1

>  <i_epik_Tot_abs_Q>  (304) 
1

>  <s_lp_Force_Field>  (304) 
OPLS3e

>  <r_lp_Energy>  (304) 
77.7408

>  <b_lp_Chiralities_Consistent>  (304) 
1

>  <s_lp_Variant>  (304) 
87:0-1

>  <s_i_glide_gridfile>  (304) 
pfpi4k_grid

>  <i_i_glide_lignum>  (304) 
31

>  <i_i_glide_rotatable_bonds>  (304) 
1

>  <r_i_docking_score>  (304) 
-3.85335

>  <r_i_glide_ligand_efficiency>  (304) 
-0.13762

>  <r_i_glide_ligand_efficiency_sa>  (304) 
-0.417894

>  <r_i_glide_ligand_efficiency_ln>  (304) 
-0.889466

>  <r_i_glide_gscore>  (304) 
-3.85335

>  <r_i_glide_lipo>  (304) 
-0.530677

>  <r_i_glide_hbond>  (304) 
-0.21397

>  <r_i_glide_metal>  (304) 
-0

>  <r_i_glide_rewards>  (304) 
-1.0136

>  <r_i_glide_evdw>  (304) 
-28.467

>  <r_i_glide_ecoul>  (304) 
-4.47834

>  <r_i_glide_erotb>  (304) 
0

>  <r_i_glide_esite>  (304) 
0

>  <r_i_glide_emodel>  (304) 
-41.2319

>  <r_i_glide_energy>  (304) 
-32.9453

>  <r_i_glide_einternal>  (304) 
0.658171

>  <r_i_glide_intrahb_reward>  (304) 
-0

>  <i_i_glide_confnum>  (304) 
2

>  <i_i_glide_posenum>  (304) 
31

>  <r_i_glide_eff_state_penalty>  (304) 
0

>  <ligand_id>  (304) 
87

>  <original_smiles>  (304) 
CC1(C)C(=O)CC(=O)C2C1CCC1C2(C)CC(O)C2C(C)(C)C(=O)CCC21C

>  <smiles>  (304) 
[H]OC1([H])C([H])([H])C2(C([H])([H])[H])C3([H])C(=O)C([H])=C([O-])C(C([H])([H])[H])(C([H])([H])[H])C3([H])C([H])([H])C([H])([H])C2([H])C2(C([H])([H])[H])C([H])([H])C([H])([H])C(=O)C(C([H])([H])[H])(C([H])([H])[H])C12[H]

$$$$
87:0:1
     RDKit          3D

 63 66  0  0  1  0  0  0  0  0999 V2000
    1.1227   -1.0316    3.0107 C   0  0  0  0  0  0  0  0  0  0  0  0
    1.9464   -1.8027    4.0807 C   0  0  0  0  0  0  0  0  0  0  0  0
    1.7825   -1.0246    5.4133 C   0  0  0  0  0  0  0  0  0  0  0  0
    1.3140   -3.2150    4.3076 C   0  0  0  0  0  0  0  0  0  0  0  0
    0.0972   -3.1067    4.5597 O   0  0  0  0  0  0  0  0  0  0  0  0
    2.1000   -4.3390    4.2672 C   0  0  0  0  0  0  0  0  0  0  0  0
    3.5330   -4.3697    4.0232 C   0  0  0  0  0  0  0  0  0  0  0  0
    4.2522   -5.2793    4.4286 O   0  0  0  0  0  0  0  0  0  0  0  0
    4.1484   -3.1879    3.2549 C   0  0  2  0  0  0  0  0  0  0  0  0
    3.5006   -1.8707    3.7607 C   0  0  1  0  0  0  0  0  0  0  0  0
    4.1082   -0.6870    3.0009 C   0  0  0  0  0  0  0  0  0  0  0  0
    4.0275   -0.8638    1.4896 C   0  0  0  0  0  0  0  0  0  0  0  0
    4.8354   -2.0999    0.9891 C   0  0  1  0  0  0  0  0  0  0  0  0
    4.3330   -3.4097    1.6947 C   0  0  1  0  0  0  0  0  0  0  0  0
    5.3863   -4.5519    1.5313 C   0  0  0  0  0  0  0  0  0  0  0  0
    3.0158   -3.8177    1.0054 C   0  0  0  0  0  0  0  0  0  0  0  0
    3.0490   -3.8596   -0.5376 C   0  0  1  0  0  0  0  0  0  0  0  0
    1.7368   -4.2238   -0.8748 O   0  0  0  0  0  0  0  0  0  0  0  0
    3.5153   -2.5363   -1.2410 C   0  0  2  0  0  0  0  0  0  0  0  0
    3.5167   -2.5819   -2.8431 C   0  0  0  0  0  0  0  0  0  0  0  0
    2.2266   -3.1606   -3.4426 C   0  0  0  0  0  0  0  0  0  0  0  0
    3.6304   -1.1704   -3.4907 C   0  0  0  0  0  0  0  0  0  0  0  0
    4.7043   -3.4281   -3.3412 C   0  0  0  0  0  0  0  0  0  0  0  0
    4.5972   -4.1963   -4.3132 O   0  0  0  0  0  0  0  0  0  0  0  0
    6.0534   -3.1949   -2.6801 C   0  0  0  0  0  0  0  0  0  0  0  0
    5.9789   -3.1447   -1.1517 C   0  0  0  0  0  0  0  0  0  0  0  0
    4.9070   -2.1508   -0.6023 C   0  0  2  0  0  0  0  0  0  0  0  0
    5.3893   -0.7445   -1.0151 C   0  0  0  0  0  0  0  0  0  0  0  0
    1.5218   -0.0368    2.8097 H   0  0  0  0  0  0  0  0  0  0  0  0
    0.0965   -0.8671    3.3464 H   0  0  0  0  0  0  0  0  0  0  0  0
    1.0434   -1.5753    2.0731 H   0  0  0  0  0  0  0  0  0  0  0  0
    2.2286   -0.0292    5.3558 H   0  0  0  0  0  0  0  0  0  0  0  0
    2.2431   -1.5678    6.2426 H   0  0  0  0  0  0  0  0  0  0  0  0
    0.7301   -0.8932    5.6753 H   0  0  0  0  0  0  0  0  0  0  0  0
    1.6485   -5.3136    4.4429 H   0  0  0  0  0  0  0  0  0  0  0  0
    5.1742   -3.1445    3.6287 H   0  0  0  0  0  0  0  0  0  0  0  0
    3.9562   -1.7840    4.7457 H   0  0  0  0  0  0  0  0  0  0  0  0
    3.6385    0.2460    3.3046 H   0  0  0  0  0  0  0  0  0  0  0  0
    5.1618   -0.5864    3.2781 H   0  0  0  0  0  0  0  0  0  0  0  0
    2.9982   -0.9279    1.1603 H   0  0  0  0  0  0  0  0  0  0  0  0
    4.3951    0.0774    1.0875 H   0  0  0  0  0  0  0  0  0  0  0  0
    5.8589   -1.9345    1.3336 H   0  0  0  0  0  0  0  0  0  0  0  0
    5.1012   -5.2814    0.7725 H   0  0  0  0  0  0  0  0  0  0  0  0
    5.5501   -5.1473    2.4215 H   0  0  0  0  0  0  0  0  0  0  0  0
    6.3772   -4.1630    1.2991 H   0  0  0  0  0  0  0  0  0  0  0  0
    2.7037   -4.7974    1.3669 H   0  0  0  0  0  0  0  0  0  0  0  0
    2.2300   -3.1406    1.3247 H   0  0  0  0  0  0  0  0  0  0  0  0
    3.6671   -4.6905   -0.8716 H   0  0  0  0  0  0  0  0  0  0  0  0
    1.6865   -4.2872   -1.8128 H   0  0  0  0  0  0  0  0  0  0  0  0
    2.8090   -1.7572   -0.9674 H   0  0  0  0  0  0  0  0  0  0  0  0
    1.3494   -2.6482   -3.0224 H   0  0  0  0  0  0  0  0  0  0  0  0
    2.1448   -4.2232   -3.2973 H   0  0  0  0  0  0  0  0  0  0  0  0
    2.1803   -3.0374   -4.5304 H   0  0  0  0  0  0  0  0  0  0  0  0
    3.0820   -0.4306   -2.9158 H   0  0  0  0  0  0  0  0  0  0  0  0
    3.2251   -1.1519   -4.5004 H   0  0  0  0  0  0  0  0  0  0  0  0
    4.6516   -0.8281   -3.6127 H   0  0  0  0  0  0  0  0  0  0  0  0
    6.7571   -3.9547   -2.9987 H   0  0  0  0  0  0  0  0  0  0  0  0
    6.4400   -2.2721   -3.0775 H   0  0  0  0  0  0  0  0  0  0  0  0
    5.7530   -4.1632   -0.8832 H   0  0  0  0  0  0  0  0  0  0  0  0
    6.9649   -2.9276   -0.7331 H   0  0  0  0  0  0  0  0  0  0  0  0
    5.8746   -0.7201   -1.9726 H   0  0  0  0  0  0  0  0  0  0  0  0
    6.1113   -0.3504   -0.3024 H   0  0  0  0  0  0  0  0  0  0  0  0
    4.5592   -0.0389   -1.0822 H   0  0  0  0  0  0  0  0  0  0  0  0
  1  2  1  0
  1 29  1  0
  1 30  1  0
  1 31  1  0
  2 10  1  0
  2  3  1  0
  2  4  1  0
  3 32  1  0
  3 33  1  0
  3 34  1  0
  4  5  1  0
  4  6  2  0
  6  7  1  0
  6 35  1  0
  7  8  2  0
  7  9  1  0
  9 14  1  0
  9 10  1  0
  9 36  1  1
 10 11  1  0
 10 37  1  1
 11 12  1  0
 11 38  1  0
 11 39  1  0
 12 13  1  0
 12 40  1  0
 12 41  1  0
 13 27  1  0
 13 14  1  0
 13 42  1  1
 14 15  1  1
 14 16  1  0
 15 43  1  0
 15 44  1  0
 15 45  1  0
 16 17  1  0
 16 46  1  0
 16 47  1  0
 17 18  1  0
 17 19  1  0
 17 48  1  1
 18 49  1  0
 19 27  1  0
 19 20  1  0
 19 50  1  6
 20 21  1  0
 20 22  1  0
 20 23  1  0
 21 51  1  0
 21 52  1  0
 21 53  1  0
 22 54  1  0
 22 55  1  0
 22 56  1  0
 23 24  2  0
 23 25  1  0
 25 26  1  0
 25 57  1  0
 25 58  1  0
 26 27  1  0
 26 59  1  0
 26 60  1  0
 27 28  1  6
 28 61  1  0
 28 62  1  0
 28 63  1  0
M  CHG  1   5  -1
M  END
>  <i_m_ct_stereo_status>  (305) 
1

>  <s_m_source_file>  (305) 
/var/tmp/pbs.5076255.sched01/tmpoq50wh_d/842pmd5wfz.sdf

>  <i_m_source_file_index>  (305) 
31

>  <i_lp_mmshare_version>  (305) 
48012

>  <i_f3d_flags>  (305) 
0

>  <s_epik_input>  (305) 
Tz1DMVtDSDJdQyg9TylDKFtDSDNdKShbQ0gzXSlbQ0BASF0oW0NAQEhdMVtDQF0yM1tDSDNdKVtDSDJdW0NIMl1bQ0BASF0yW0NAXTQoW0NIM10pW0NASF0oW0NAQEhdKFtDSDJdMylbT0hdKUMoW0NIM10pKFtDSDNdKUMoPU8pW0NIMl1bQ0gyXTQ=

>  <s_epik_cmdline>  (305) 
J2VwaWtfcHl0aG9uJywgJy1waHQnLCAnMi4wJywgJy1waCcsICc3LjAnLCAnLXRuJywgJzgnLCAnLW1hJywgJzIwMCcsICctaW1hZScsICc8aW5maWxlLm1hZT4nLCAnLW9tYWUnLCAnPG91dGZpbGUubWFlPic=

>  <r_lp_tautomer_probability>  (305) 
0.99995

>  <r_epik_Ionization_Penalty>  (305) 
0.0313167

>  <r_epik_Ionization_Penalty_Charging>  (305) 
0.00808062

>  <r_epik_Ionization_Penalty_Neutral>  (305) 
0.0232361

>  <r_epik_State_Penalty>  (305) 
0.0246763

>  <r_epik_Charging_Adjusted_Penalty>  (305) 
0.032757

>  <i_epik_Tot_Q>  (305) 
-1

>  <i_epik_Tot_abs_Q>  (305) 
1

>  <s_lp_Force_Field>  (305) 
OPLS3e

>  <r_lp_Energy>  (305) 
77.7408

>  <b_lp_Chiralities_Consistent>  (305) 
1

>  <s_lp_Variant>  (305) 
87:0-1

>  <s_i_glide_gridfile>  (305) 
pfpi4k_grid

>  <i_i_glide_lignum>  (305) 
31

>  <i_i_glide_rotatable_bonds>  (305) 
1

>  <r_i_docking_score>  (305) 
-3.74833

>  <r_i_glide_ligand_efficiency>  (305) 
-0.133869

>  <r_i_glide_ligand_efficiency_sa>  (305) 
-0.406505

>  <r_i_glide_ligand_efficiency_ln>  (305) 
-0.865226

>  <r_i_glide_gscore>  (305) 
-3.74833

>  <r_i_glide_lipo>  (305) 
-0.926255

>  <r_i_glide_hbond>  (305) 
-0.0179694

>  <r_i_glide_metal>  (305) 
-0

>  <r_i_glide_rewards>  (305) 
-1.02107

>  <r_i_glide_evdw>  (305) 
-25.6521

>  <r_i_glide_ecoul>  (305) 
-3.33625

>  <r_i_glide_erotb>  (305) 
0

>  <r_i_glide_esite>  (305) 
0

>  <r_i_glide_emodel>  (305) 
-37.2074

>  <r_i_glide_energy>  (305) 
-28.9884

>  <r_i_glide_einternal>  (305) 
0.327646

>  <r_i_glide_intrahb_reward>  (305) 
-0

>  <i_i_glide_confnum>  (305) 
1

>  <i_i_glide_posenum>  (305) 
33

>  <r_i_glide_eff_state_penalty>  (305) 
0

>  <ligand_id>  (305) 
87

>  <original_smiles>  (305) 
CC1(C)C(=O)CC(=O)C2C1CCC1C2(C)CC(O)C2C(C)(C)C(=O)CCC21C

>  <smiles>  (305) 
[H]OC1([H])C([H])([H])C2(C([H])([H])[H])C3([H])C(=O)C([H])=C([O-])C(C([H])([H])[H])(C([H])([H])[H])C3([H])C([H])([H])C([H])([H])C2([H])C2(C([H])([H])[H])C([H])([H])C([H])([H])C(=O)C(C([H])([H])[H])(C([H])([H])[H])C12[H]

$$$$
87:0:2
     RDKit          3D

 63 66  0  0  1  0  0  0  0  0999 V2000
    1.0161   -3.2865    3.9941 C   0  0  0  0  0  0  0  0  0  0  0  0
    1.6938   -4.4917    4.7170 C   0  0  0  0  0  0  0  0  0  0  0  0
    1.3562   -4.3042    6.2269 C   0  0  0  0  0  0  0  0  0  0  0  0
    1.0497   -5.8315    4.2574 C   0  0  0  0  0  0  0  0  0  0  0  0
   -0.1988   -5.7890    4.3623 O   0  0  0  0  0  0  0  0  0  0  0  0
    1.8391   -6.8781    3.8481 C   0  0  0  0  0  0  0  0  0  0  0  0
    3.2851   -6.8697    3.7784 C   0  0  0  0  0  0  0  0  0  0  0  0
    3.9454   -7.9043    3.8614 O   0  0  0  0  0  0  0  0  0  0  0  0
    3.9892   -5.5116    3.6572 C   0  0  2  0  0  0  0  0  0  0  0  0
    3.2819   -4.4881    4.5849 C   0  0  1  0  0  0  0  0  0  0  0  0
    3.9831   -3.1273    4.4671 C   0  0  0  0  0  0  0  0  0  0  0  0
    4.1041   -2.6588    3.0173 C   0  0  0  0  0  0  0  0  0  0  0  0
    4.9622   -3.6181    2.1389 C   0  0  1  0  0  0  0  0  0  0  0  0
    4.3634   -5.0727    2.1813 C   0  0  1  0  0  0  0  0  0  0  0  0
    5.4241   -6.1057    1.6795 C   0  0  0  0  0  0  0  0  0  0  0  0
    3.1275   -5.0830    1.2567 C   0  0  0  0  0  0  0  0  0  0  0  0
    3.3199   -4.4599   -0.1433 C   0  0  1  0  0  0  0  0  0  0  0  0
    2.0128   -4.5264   -0.6873 O   0  0  0  0  0  0  0  0  0  0  0  0
    3.9331   -3.0110   -0.1942 C   0  0  2  0  0  0  0  0  0  0  0  0
    4.1574   -2.4348   -1.6690 C   0  0  0  0  0  0  0  0  0  0  0  0
    2.9406   -2.6417   -2.6127 C   0  0  0  0  0  0  0  0  0  0  0  0
    4.3742   -0.9022   -1.6561 C   0  0  0  0  0  0  0  0  0  0  0  0
    5.3921   -3.0808   -2.3187 C   0  0  0  0  0  0  0  0  0  0  0  0
    5.3890   -3.4600   -3.4877 O   0  0  0  0  0  0  0  0  0  0  0  0
    6.6658   -3.1523   -1.4889 C   0  0  0  0  0  0  0  0  0  0  0  0
    6.3786   -3.7290   -0.0907 C   0  0  0  0  0  0  0  0  0  0  0  0
    5.2443   -2.9944    0.6983 C   0  0  2  0  0  0  0  0  0  0  0  0
    5.8128   -1.5665    0.9750 C   0  0  0  0  0  0  0  0  0  0  0  0
    1.4423   -2.3195    4.2651 H   0  0  0  0  0  0  0  0  0  0  0  0
   -0.0471   -3.2151    4.2355 H   0  0  0  0  0  0  0  0  0  0  0  0
    1.0599   -3.3809    2.9122 H   0  0  0  0  0  0  0  0  0  0  0  0
    1.8098   -3.4040    6.6480 H   0  0  0  0  0  0  0  0  0  0  0  0
    1.7082   -5.1600    6.8078 H   0  0  0  0  0  0  0  0  0  0  0  0
    0.2790   -4.2385    6.4021 H   0  0  0  0  0  0  0  0  0  0  0  0
    1.3635   -7.7960    3.5480 H   0  0  0  0  0  0  0  0  0  0  0  0
    4.9515   -5.6801    4.1377 H   0  0  0  0  0  0  0  0  0  0  0  0
    3.5985   -4.8322    5.5697 H   0  0  0  0  0  0  0  0  0  0  0  0
    3.4844   -2.3776    5.0784 H   0  0  0  0  0  0  0  0  0  0  0  0
    4.9907   -3.2127    4.8788 H   0  0  0  0  0  0  0  0  0  0  0  0
    3.1201   -2.5257    2.5784 H   0  0  0  0  0  0  0  0  0  0  0  0
    4.5233   -1.6588    3.0862 H   0  0  0  0  0  0  0  0  0  0  0  0
    5.9277   -3.6705    2.6437 H   0  0  0  0  0  0  0  0  0  0  0  0
    5.2404   -6.4434    0.6599 H   0  0  0  0  0  0  0  0  0  0  0  0
    5.4726   -7.0234    2.2564 H   0  0  0  0  0  0  0  0  0  0  0  0
    6.4399   -5.7165    1.7460 H   0  0  0  0  0  0  0  0  0  0  0  0
    2.7814   -6.1106    1.1256 H   0  0  0  0  0  0  0  0  0  0  0  0
    2.3141   -4.5697    1.7519 H   0  0  0  0  0  0  0  0  0  0  0  0
    3.9451   -5.1392   -0.7185 H   0  0  0  0  0  0  0  0  0  0  0  0
    2.1081   -4.8302   -1.5845 H   0  0  0  0  0  0  0  0  0  0  0  0
    3.1981   -2.3618    0.2828 H   0  0  0  0  0  0  0  0  0  0  0  0
    2.0161   -2.3093   -2.1450 H   0  0  0  0  0  0  0  0  0  0  0  0
    2.8176   -3.6848   -2.9029 H   0  0  0  0  0  0  0  0  0  0  0  0
    3.0351   -2.0897   -3.5491 H   0  0  0  0  0  0  0  0  0  0  0  0
    3.8030   -0.4423   -0.8543 H   0  0  0  0  0  0  0  0  0  0  0  0
    4.0772   -0.4175   -2.5875 H   0  0  0  0  0  0  0  0  0  0  0  0
    5.4054   -0.5999   -1.5040 H   0  0  0  0  0  0  0  0  0  0  0  0
    7.3755   -3.7849   -2.0175 H   0  0  0  0  0  0  0  0  0  0  0  0
    7.1368   -2.1776   -1.4411 H   0  0  0  0  0  0  0  0  0  0  0  0
    6.0959   -4.7521   -0.3044 H   0  0  0  0  0  0  0  0  0  0  0  0
    7.2971   -3.7874    0.4942 H   0  0  0  0  0  0  0  0  0  0  0  0
    6.4743   -1.1792    0.2092 H   0  0  0  0  0  0  0  0  0  0  0  0
    6.4346   -1.5563    1.8716 H   0  0  0  0  0  0  0  0  0  0  0  0
    5.0208   -0.8296    1.1109 H   0  0  0  0  0  0  0  0  0  0  0  0
  1  2  1  0
  1 29  1  0
  1 30  1  0
  1 31  1  0
  2 10  1  0
  2  3  1  0
  2  4  1  0
  3 32  1  0
  3 33  1  0
  3 34  1  0
  4  5  1  0
  4  6  2  0
  6  7  1  0
  6 35  1  0
  7  8  2  0
  7  9  1  0
  9 14  1  0
  9 10  1  0
  9 36  1  1
 10 11  1  0
 10 37  1  1
 11 12  1  0
 11 38  1  0
 11 39  1  0
 12 13  1  0
 12 40  1  0
 12 41  1  0
 13 27  1  0
 13 14  1  0
 13 42  1  1
 14 15  1  6
 14 16  1  0
 15 43  1  0
 15 44  1  0
 15 45  1  0
 16 17  1  0
 16 46  1  0
 16 47  1  0
 17 18  1  0
 17 19  1  0
 17 48  1  6
 18 49  1  0
 19 27  1  0
 19 20  1  0
 19 50  1  1
 20 21  1  0
 20 22  1  0
 20 23  1  0
 21 51  1  0
 21 52  1  0
 21 53  1  0
 22 54  1  0
 22 55  1  0
 22 56  1  0
 23 24  2  0
 23 25  1  0
 25 26  1  0
 25 57  1  0
 25 58  1  0
 26 27  1  0
 26 59  1  0
 26 60  1  0
 27 28  1  1
 28 61  1  0
 28 62  1  0
 28 63  1  0
M  CHG  1   5  -1
M  END
>  <i_m_ct_stereo_status>  (306) 
1

>  <s_m_source_file>  (306) 
/var/tmp/pbs.5076255.sched01/tmpoq50wh_d/842pmd5wfz.sdf

>  <i_m_source_file_index>  (306) 
31

>  <i_lp_mmshare_version>  (306) 
48012

>  <i_f3d_flags>  (306) 
0

>  <s_epik_input>  (306) 
Tz1DMVtDSDJdQyg9TylDKFtDSDNdKShbQ0gzXSlbQ0BASF0oW0NAQEhdMVtDQF0yM1tDSDNdKVtDSDJdW0NIMl1bQ0BASF0yW0NAXTQoW0NIM10pW0NASF0oW0NAQEhdKFtDSDJdMylbT0hdKUMoW0NIM10pKFtDSDNdKUMoPU8pW0NIMl1bQ0gyXTQ=

>  <s_epik_cmdline>  (306) 
J2VwaWtfcHl0aG9uJywgJy1waHQnLCAnMi4wJywgJy1waCcsICc3LjAnLCAnLXRuJywgJzgnLCAnLW1hJywgJzIwMCcsICctaW1hZScsICc8aW5maWxlLm1hZT4nLCAnLW9tYWUnLCAnPG91dGZpbGUubWFlPic=

>  <r_lp_tautomer_probability>  (306) 
0.99995

>  <r_epik_Ionization_Penalty>  (306) 
0.0313167

>  <r_epik_Ionization_Penalty_Charging>  (306) 
0.00808062

>  <r_epik_Ionization_Penalty_Neutral>  (306) 
0.0232361

>  <r_epik_State_Penalty>  (306) 
0.0246763

>  <r_epik_Charging_Adjusted_Penalty>  (306) 
0.032757

>  <i_epik_Tot_Q>  (306) 
-1

>  <i_epik_Tot_abs_Q>  (306) 
1

>  <s_lp_Force_Field>  (306) 
OPLS3e

>  <r_lp_Energy>  (306) 
77.7408

>  <b_lp_Chiralities_Consistent>  (306) 
1

>  <s_lp_Variant>  (306) 
87:0-1

>  <s_i_glide_gridfile>  (306) 
pfpi4k_grid

>  <i_i_glide_lignum>  (306) 
31

>  <i_i_glide_rotatable_bonds>  (306) 
1

>  <r_i_docking_score>  (306) 
-3.65679

>  <r_i_glide_ligand_efficiency>  (306) 
-0.1306

>  <r_i_glide_ligand_efficiency_sa>  (306) 
-0.396578

>  <r_i_glide_ligand_efficiency_ln>  (306) 
-0.844095

>  <r_i_glide_gscore>  (306) 
-3.65679

>  <r_i_glide_lipo>  (306) 
-0.469953

>  <r_i_glide_hbond>  (306) 
-0.278934

>  <r_i_glide_metal>  (306) 
-0

>  <r_i_glide_rewards>  (306) 
-0.991955

>  <r_i_glide_evdw>  (306) 
-26.0151

>  <r_i_glide_ecoul>  (306) 
-4.1013

>  <r_i_glide_erotb>  (306) 
0

>  <r_i_glide_esite>  (306) 
0

>  <r_i_glide_emodel>  (306) 
-37.6616

>  <r_i_glide_energy>  (306) 
-30.1164

>  <r_i_glide_einternal>  (306) 
1.10623

>  <r_i_glide_intrahb_reward>  (306) 
-0

>  <i_i_glide_confnum>  (306) 
1

>  <i_i_glide_posenum>  (306) 
29

>  <r_i_glide_eff_state_penalty>  (306) 
0

>  <ligand_id>  (306) 
87

>  <original_smiles>  (306) 
CC1(C)C(=O)CC(=O)C2C1CCC1C2(C)CC(O)C2C(C)(C)C(=O)CCC21C

>  <smiles>  (306) 
[H]OC1([H])C([H])([H])C2(C([H])([H])[H])C3([H])C(=O)C([H])=C([O-])C(C([H])([H])[H])(C([H])([H])[H])C3([H])C([H])([H])C([H])([H])C2([H])C2(C([H])([H])[H])C([H])([H])C([H])([H])C(=O)C(C([H])([H])[H])(C([H])([H])[H])C12[H]

$$$$
87:1:0
     RDKit          3D

 64 67  0  0  1  0  0  0  0  0999 V2000
    2.7979   -4.3414    0.6875 C   0  0  0  0  0  0  0  0  0  0  0  0
    4.2604   -3.8602    0.6413 C   0  0  0  0  0  0  0  0  0  0  0  0
    5.0309   -4.8371   -0.2878 C   0  0  0  0  0  0  0  0  0  0  0  0
    4.2641   -2.4580   -0.0087 C   0  0  0  0  0  0  0  0  0  0  0  0
    4.5251   -2.2850   -1.2008 O   0  0  0  0  0  0  0  0  0  0  0  0
    3.8928   -1.2779    0.8770 C   0  0  0  0  0  0  0  0  0  0  0  0
    4.8473   -1.2668    2.0608 C   0  0  0  0  0  0  0  0  0  0  0  0
    5.5492   -0.2834    2.2894 O   0  0  0  0  0  0  0  0  0  0  0  0
    4.9006   -2.5273    2.9475 C   0  0  2  0  0  0  0  0  0  0  0  0
    4.9734   -3.8124    2.0529 C   0  0  1  0  0  0  0  0  0  0  0  0
    4.8442   -5.0846    2.9062 C   0  0  0  0  0  0  0  0  0  0  0  0
    3.6985   -5.0084    3.9125 C   0  0  0  0  0  0  0  0  0  0  0  0
    3.9295   -3.8910    4.9751 C   0  0  1  0  0  0  0  0  0  0  0  0
    3.9815   -2.4937    4.2526 C   0  0  1  0  0  0  0  0  0  0  0  0
    4.6223   -1.4192    5.1843 C   0  0  0  0  0  0  0  0  0  0  0  0
    2.5242   -2.0978    3.9257 C   0  0  0  0  0  0  0  0  0  0  0  0
    1.4969   -2.2359    5.0734 C   0  0  1  0  0  0  0  0  0  0  0  0
    0.2877   -1.9053    4.4213 O   0  0  0  0  0  0  0  0  0  0  0  0
    1.4579   -3.6404    5.7895 C   0  0  2  0  0  0  0  0  0  0  0  0
    0.4072   -3.7478    6.9901 C   0  0  0  0  0  0  0  0  0  0  0  0
   -0.9781   -3.1611    6.6341 C   0  0  0  0  0  0  0  0  0  0  0  0
    0.1149   -5.2212    7.3901 C   0  0  0  0  0  0  0  0  0  0  0  0
    0.9345   -3.0004    8.2350 C   0  0  0  0  0  0  0  0  0  0  0  0
    0.2064   -2.2586    8.8989 O   0  0  0  0  0  0  0  0  0  0  0  0
    2.3807   -3.2519    8.6499 C   0  0  0  0  0  0  0  0  0  0  0  0
    3.3342   -3.1506    7.4436 C   0  0  0  0  0  0  0  0  0  0  0  0
    2.9340   -4.0299    6.2126 C   0  0  2  0  0  0  0  0  0  0  0  0
    3.0938   -5.5046    6.6965 C   0  0  0  0  0  0  0  0  0  0  0  0
    2.7051   -5.3410    1.1158 H   0  0  0  0  0  0  0  0  0  0  0  0
    2.3782   -4.3877   -0.3210 H   0  0  0  0  0  0  0  0  0  0  0  0
    2.1710   -3.6605    1.2540 H   0  0  0  0  0  0  0  0  0  0  0  0
    5.0286   -5.8635    0.0831 H   0  0  0  0  0  0  0  0  0  0  0  0
    6.0728   -4.5364   -0.4132 H   0  0  0  0  0  0  0  0  0  0  0  0
    4.5994   -4.8746   -1.2896 H   0  0  0  0  0  0  0  0  0  0  0  0
    3.9871   -0.3495    0.3165 H   0  0  0  0  0  0  0  0  0  0  0  0
    2.8578   -1.3598    1.2040 H   0  0  0  0  0  0  0  0  0  0  0  0
    5.9054   -2.4985    3.3664 H   0  0  0  0  0  0  0  0  0  0  0  0
    6.0273   -3.8389    1.7708 H   0  0  0  0  0  0  0  0  0  0  0  0
    4.7083   -5.9672    2.2811 H   0  0  0  0  0  0  0  0  0  0  0  0
    5.7767   -5.2482    3.4571 H   0  0  0  0  0  0  0  0  0  0  0  0
    2.7498   -4.8697    3.3980 H   0  0  0  0  0  0  0  0  0  0  0  0
    3.6435   -6.0040    4.3463 H   0  0  0  0  0  0  0  0  0  0  0  0
    4.9335   -4.0700    5.3703 H   0  0  0  0  0  0  0  0  0  0  0  0
    3.8803   -0.7775    5.6536 H   0  0  0  0  0  0  0  0  0  0  0  0
    5.2962   -0.7314    4.6808 H   0  0  0  0  0  0  0  0  0  0  0  0
    5.2344   -1.8711    5.9638 H   0  0  0  0  0  0  0  0  0  0  0  0
    2.5021   -1.0699    3.5584 H   0  0  0  0  0  0  0  0  0  0  0  0
    2.1859   -2.7108    3.0998 H   0  0  0  0  0  0  0  0  0  0  0  0
    1.6722   -1.4559    5.8104 H   0  0  0  0  0  0  0  0  0  0  0  0
    0.3300   -2.2101    3.5265 H   0  0  0  0  0  0  0  0  0  0  0  0
    1.1353   -4.3558    5.0332 H   0  0  0  0  0  0  0  0  0  0  0  0
   -1.3162   -3.5297    5.6778 H   0  0  0  0  0  0  0  0  0  0  0  0
   -0.9663   -2.0732    6.5752 H   0  0  0  0  0  0  0  0  0  0  0  0
   -1.7350   -3.4337    7.3673 H   0  0  0  0  0  0  0  0  0  0  0  0
    0.1022   -5.8800    6.5217 H   0  0  0  0  0  0  0  0  0  0  0  0
   -0.8527   -5.3334    7.8809 H   0  0  0  0  0  0  0  0  0  0  0  0
    0.8255   -5.6214    8.1093 H   0  0  0  0  0  0  0  0  0  0  0  0
    2.6607   -2.5218    9.4071 H   0  0  0  0  0  0  0  0  0  0  0  0
    2.4390   -4.2209    9.1393 H   0  0  0  0  0  0  0  0  0  0  0  0
    3.3124   -2.0973    7.1968 H   0  0  0  0  0  0  0  0  0  0  0  0
    4.3584   -3.3627    7.7569 H   0  0  0  0  0  0  0  0  0  0  0  0
    2.8992   -5.6582    7.7527 H   0  0  0  0  0  0  0  0  0  0  0  0
    4.1239   -5.8494    6.5746 H   0  0  0  0  0  0  0  0  0  0  0  0
    2.4467   -6.1917    6.1491 H   0  0  0  0  0  0  0  0  0  0  0  0
  1  2  1  0
  1 29  1  0
  1 30  1  0
  1 31  1  0
  2 10  1  0
  2  3  1  0
  2  4  1  0
  3 32  1  0
  3 33  1  0
  3 34  1  0
  4  5  2  0
  4  6  1  0
  6  7  1  0
  6 35  1  0
  6 36  1  0
  7  8  2  0
  7  9  1  0
  9 14  1  0
  9 10  1  0
  9 37  1  1
 10 11  1  0
 10 38  1  6
 11 12  1  0
 11 39  1  0
 11 40  1  0
 12 13  1  0
 12 41  1  0
 12 42  1  0
 13 27  1  0
 13 14  1  0
 13 43  1  1
 14 15  1  1
 14 16  1  0
 15 44  1  0
 15 45  1  0
 15 46  1  0
 16 17  1  0
 16 47  1  0
 16 48  1  0
 17 18  1  0
 17 19  1  0
 17 49  1  1
 18 50  1  0
 19 27  1  0
 19 20  1  0
 19 51  1  6
 20 21  1  0
 20 22  1  0
 20 23  1  0
 21 52  1  0
 21 53  1  0
 21 54  1  0
 22 55  1  0
 22 56  1  0
 22 57  1  0
 23 24  2  0
 23 25  1  0
 25 26  1  0
 25 58  1  0
 25 59  1  0
 26 27  1  0
 26 60  1  0
 26 61  1  0
 27 28  1  1
 28 62  1  0
 28 63  1  0
 28 64  1  0
M  END
>  <i_m_ct_stereo_status>  (307) 
1

>  <s_m_source_file>  (307) 
/var/tmp/pbs.5076255.sched01/tmpoq50wh_d/842pmd5wfz.sdf

>  <i_m_source_file_index>  (307) 
32

>  <i_lp_mmshare_version>  (307) 
48012

>  <i_f3d_flags>  (307) 
0

>  <s_epik_input>  (307) 
Tz1DMVtDSDJdQyg9TylDKFtDSDNdKShbQ0gzXSlbQ0BASF0oW0NAQEhdMVtDQF0yM1tDSDNdKVtDSDJdW0NIMl1bQ0BASF0yW0NAXTQoW0NIM10pW0NASF0oW0NAQEhdKFtDSDJdMylbT0hdKUMoW0NIM10pKFtDSDNdKUMoPU8pW0NIMl1bQ0gyXTQ=

>  <s_epik_cmdline>  (307) 
J2VwaWtfcHl0aG9uJywgJy1waHQnLCAnMi4wJywgJy1waCcsICc3LjAnLCAnLXRuJywgJzgnLCAnLW1hJywgJzIwMCcsICctaW1hZScsICc8aW5maWxlLm1hZT4nLCAnLW9tYWUnLCAnPG91dGZpbGUubWFlPic=

>  <r_lp_tautomer_probability>  (307) 
0.99995

>  <r_epik_Ionization_Penalty>  (307) 
1.93042

>  <r_epik_Ionization_Penalty_Charging>  (307) 
0

>  <r_epik_Ionization_Penalty_Neutral>  (307) 
1.93042

>  <r_epik_State_Penalty>  (307) 
2.0598

>  <r_epik_Charging_Adjusted_Penalty>  (307) 
2.0598

>  <i_epik_Tot_Q>  (307) 
0

>  <i_epik_Tot_abs_Q>  (307) 
0

>  <s_lp_Force_Field>  (307) 
OPLS3e

>  <r_lp_Energy>  (307) 
77.6141

>  <b_lp_Chiralities_Consistent>  (307) 
1

>  <s_lp_Variant>  (307) 
87:0-2

>  <s_i_glide_gridfile>  (307) 
pfpi4k_grid

>  <i_i_glide_lignum>  (307) 
32

>  <i_i_glide_rotatable_bonds>  (307) 
1

>  <r_i_docking_score>  (307) 
-3.01514

>  <r_i_glide_ligand_efficiency>  (307) 
-0.107684

>  <r_i_glide_ligand_efficiency_sa>  (307) 
-0.326991

>  <r_i_glide_ligand_efficiency_ln>  (307) 
-0.695983

>  <r_i_glide_gscore>  (307) 
-3.01514

>  <r_i_glide_lipo>  (307) 
-0.137981

>  <r_i_glide_hbond>  (307) 
-0.311377

>  <r_i_glide_metal>  (307) 
-0

>  <r_i_glide_rewards>  (307) 
-0.863605

>  <r_i_glide_evdw>  (307) 
-20.5295

>  <r_i_glide_ecoul>  (307) 
-4.36052

>  <r_i_glide_erotb>  (307) 
0

>  <r_i_glide_esite>  (307) 
-0.0216252

>  <r_i_glide_emodel>  (307) 
-28.7287

>  <r_i_glide_energy>  (307) 
-24.89

>  <r_i_glide_einternal>  (307) 
0.774905

>  <r_i_glide_intrahb_reward>  (307) 
-0

>  <i_i_glide_confnum>  (307) 
1

>  <i_i_glide_posenum>  (307) 
8

>  <r_i_glide_eff_state_penalty>  (307) 
0

>  <ligand_id>  (307) 
87

>  <original_smiles>  (307) 
CC1(C)C(=O)CC(=O)C2C1CCC1C2(C)CC(O)C2C(C)(C)C(=O)CCC21C

>  <smiles>  (307) 
[H]OC1([H])C([H])([H])C2(C([H])([H])[H])C3([H])C(=O)C([H])([H])C(=O)C(C([H])([H])[H])(C([H])([H])[H])C3([H])C([H])([H])C([H])([H])C2([H])C2(C([H])([H])[H])C([H])([H])C([H])([H])C(=O)C(C([H])([H])[H])(C([H])([H])[H])C12[H]

$$$$
87:1:1
     RDKit          3D

 64 67  0  0  1  0  0  0  0  0999 V2000
    2.8288   -3.8811   -0.3138 C   0  0  0  0  0  0  0  0  0  0  0  0
    4.3070   -3.4543   -0.4327 C   0  0  0  0  0  0  0  0  0  0  0  0
    5.0133   -4.4322   -1.3946 C   0  0  0  0  0  0  0  0  0  0  0  0
    4.3221   -2.0649   -1.0863 C   0  0  0  0  0  0  0  0  0  0  0  0
    4.5301   -1.8978   -2.2941 O   0  0  0  0  0  0  0  0  0  0  0  0
    4.0264   -0.8898   -0.1871 C   0  0  0  0  0  0  0  0  0  0  0  0
    5.0092   -0.9093    0.9575 C   0  0  0  0  0  0  0  0  0  0  0  0
    5.6892    0.0837    1.1704 O   0  0  0  0  0  0  0  0  0  0  0  0
    5.1103   -2.1605    1.8371 C   0  0  2  0  0  0  0  0  0  0  0  0
    5.0935   -3.4385    0.9395 C   0  0  1  0  0  0  0  0  0  0  0  0
    4.9679   -4.7051    1.7973 C   0  0  0  0  0  0  0  0  0  0  0  0
    3.8799   -4.5906    2.8628 C   0  0  0  0  0  0  0  0  0  0  0  0
    4.2046   -3.4824    3.9107 C   0  0  1  0  0  0  0  0  0  0  0  0
    4.2674   -2.0897    3.1875 C   0  0  1  0  0  0  0  0  0  0  0  0
    4.9870   -1.0320    4.0814 C   0  0  0  0  0  0  0  0  0  0  0  0
    2.8105   -1.6454    2.9363 C   0  0  0  0  0  0  0  0  0  0  0  0
    1.8480   -1.7434    4.1423 C   0  0  1  0  0  0  0  0  0  0  0  0
    0.6197   -1.4095    3.5362 O   0  0  0  0  0  0  0  0  0  0  0  0
    1.7946   -3.1467    4.8587 C   0  0  2  0  0  0  0  0  0  0  0  0
    0.8021   -3.2213    6.1099 C   0  0  0  0  0  0  0  0  0  0  0  0
   -0.5844   -2.6002    5.8137 C   0  0  0  0  0  0  0  0  0  0  0  0
    0.4783   -4.6857    6.5214 C   0  0  0  0  0  0  0  0  0  0  0  0
    1.4154   -2.4976    7.3248 C   0  0  0  0  0  0  0  0  0  0  0  0
    0.7454   -1.7453    8.0391 O   0  0  0  0  0  0  0  0  0  0  0  0
    2.8716   -2.7959    7.6599 C   0  0  0  0  0  0  0  0  0  0  0  0
    3.7640   -2.7258    6.4069 C   0  0  0  0  0  0  0  0  0  0  0  0
    3.2741   -3.5896    5.1994 C   0  0  2  0  0  0  0  0  0  0  0  0
    3.4075   -5.0678    5.6729 C   0  0  0  0  0  0  0  0  0  0  0  0
    2.7226   -4.8764    0.1198 H   0  0  0  0  0  0  0  0  0  0  0  0
    2.3533   -3.9104   -1.2973 H   0  0  0  0  0  0  0  0  0  0  0  0
    2.2455   -3.1828    0.2790 H   0  0  0  0  0  0  0  0  0  0  0  0
    4.9933   -5.4618   -1.0340 H   0  0  0  0  0  0  0  0  0  0  0  0
    6.0587   -4.1562   -1.5610 H   0  0  0  0  0  0  0  0  0  0  0  0
    4.5532   -4.4425   -2.3837 H   0  0  0  0  0  0  0  0  0  0  0  0
    4.2136    0.0231   -0.7452 H   0  0  0  0  0  0  0  0  0  0  0  0
    2.9958   -0.9048    0.1648 H   0  0  0  0  0  0  0  0  0  0  0  0
    6.1431   -2.1438    2.1894 H   0  0  0  0  0  0  0  0  0  0  0  0
    6.1296   -3.4937    0.6026 H   0  0  0  0  0  0  0  0  0  0  0  0
    4.7709   -5.5784    1.1764 H   0  0  0  0  0  0  0  0  0  0  0  0
    5.9220   -4.8954    2.2982 H   0  0  0  0  0  0  0  0  0  0  0  0
    2.9125   -4.4168    2.3972 H   0  0  0  0  0  0  0  0  0  0  0  0
    3.8165   -5.5843    3.2982 H   0  0  0  0  0  0  0  0  0  0  0  0
    5.2195   -3.6933    4.2515 H   0  0  0  0  0  0  0  0  0  0  0  0
    4.2924   -0.3645    4.5833 H   0  0  0  0  0  0  0  0  0  0  0  0
    5.6606   -0.3667    3.5445 H   0  0  0  0  0  0  0  0  0  0  0  0
    5.6173   -1.5012    4.8337 H   0  0  0  0  0  0  0  0  0  0  0  0
    2.8022   -0.6192    2.5692 H   0  0  0  0  0  0  0  0  0  0  0  0
    2.4007   -2.2456    2.1338 H   0  0  0  0  0  0  0  0  0  0  0  0
    2.0800   -0.9584    4.8625 H   0  0  0  0  0  0  0  0  0  0  0  0
    0.7030   -0.5526    3.1436 H   0  0  0  0  0  0  0  0  0  0  0  0
    1.4027   -3.8433    4.1180 H   0  0  0  0  0  0  0  0  0  0  0  0
   -0.9723   -2.9923    4.8771 H   0  0  0  0  0  0  0  0  0  0  0  0
   -0.5441   -1.5114    5.7391 H   0  0  0  0  0  0  0  0  0  0  0  0
   -1.3134   -2.8162    6.5981 H   0  0  0  0  0  0  0  0  0  0  0  0
    0.4013   -5.3400    5.6542 H   0  0  0  0  0  0  0  0  0  0  0  0
   -0.4638   -4.7706    7.0637 H   0  0  0  0  0  0  0  0  0  0  0  0
    1.2145   -5.1115    7.1992 H   0  0  0  0  0  0  0  0  0  0  0  0
    3.2150   -2.0799    8.4043 H   0  0  0  0  0  0  0  0  0  0  0  0
    2.9232   -3.7710    8.1433 H   0  0  0  0  0  0  0  0  0  0  0  0
    3.7579   -1.6709    6.1623 H   0  0  0  0  0  0  0  0  0  0  0  0
    4.7950   -2.9671    6.6659 H   0  0  0  0  0  0  0  0  0  0  0  0
    3.2652   -5.2181    6.7376 H   0  0  0  0  0  0  0  0  0  0  0  0
    4.4149   -5.4464    5.4958 H   0  0  0  0  0  0  0  0  0  0  0  0
    2.7098   -5.7320    5.1608 H   0  0  0  0  0  0  0  0  0  0  0  0
  1  2  1  0
  1 29  1  0
  1 30  1  0
  1 31  1  0
  2 10  1  0
  2  3  1  0
  2  4  1  0
  3 32  1  0
  3 33  1  0
  3 34  1  0
  4  5  2  0
  4  6  1  0
  6  7  1  0
  6 35  1  0
  6 36  1  0
  7  8  2  0
  7  9  1  0
  9 14  1  0
  9 10  1  0
  9 37  1  1
 10 11  1  0
 10 38  1  6
 11 12  1  0
 11 39  1  0
 11 40  1  0
 12 13  1  0
 12 41  1  0
 12 42  1  0
 13 27  1  0
 13 14  1  0
 13 43  1  1
 14 15  1  1
 14 16  1  0
 15 44  1  0
 15 45  1  0
 15 46  1  0
 16 17  1  0
 16 47  1  0
 16 48  1  0
 17 18  1  0
 17 19  1  0
 17 49  1  1
 18 50  1  0
 19 27  1  0
 19 20  1  0
 19 51  1  6
 20 21  1  0
 20 22  1  0
 20 23  1  0
 21 52  1  0
 21 53  1  0
 21 54  1  0
 22 55  1  0
 22 56  1  0
 22 57  1  0
 23 24  2  0
 23 25  1  0
 25 26  1  0
 25 58  1  0
 25 59  1  0
 26 27  1  0
 26 60  1  0
 26 61  1  0
 27 28  1  1
 28 62  1  0
 28 63  1  0
 28 64  1  0
M  END
>  <i_m_ct_stereo_status>  (308) 
1

>  <s_m_source_file>  (308) 
/var/tmp/pbs.5076255.sched01/tmpoq50wh_d/842pmd5wfz.sdf

>  <i_m_source_file_index>  (308) 
32

>  <i_lp_mmshare_version>  (308) 
48012

>  <i_f3d_flags>  (308) 
0

>  <s_epik_input>  (308) 
Tz1DMVtDSDJdQyg9TylDKFtDSDNdKShbQ0gzXSlbQ0BASF0oW0NAQEhdMVtDQF0yM1tDSDNdKVtDSDJdW0NIMl1bQ0BASF0yW0NAXTQoW0NIM10pW0NASF0oW0NAQEhdKFtDSDJdMylbT0hdKUMoW0NIM10pKFtDSDNdKUMoPU8pW0NIMl1bQ0gyXTQ=

>  <s_epik_cmdline>  (308) 
J2VwaWtfcHl0aG9uJywgJy1waHQnLCAnMi4wJywgJy1waCcsICc3LjAnLCAnLXRuJywgJzgnLCAnLW1hJywgJzIwMCcsICctaW1hZScsICc8aW5maWxlLm1hZT4nLCAnLW9tYWUnLCAnPG91dGZpbGUubWFlPic=

>  <r_lp_tautomer_probability>  (308) 
0.99995

>  <r_epik_Ionization_Penalty>  (308) 
1.93042

>  <r_epik_Ionization_Penalty_Charging>  (308) 
0

>  <r_epik_Ionization_Penalty_Neutral>  (308) 
1.93042

>  <r_epik_State_Penalty>  (308) 
2.0598

>  <r_epik_Charging_Adjusted_Penalty>  (308) 
2.0598

>  <i_epik_Tot_Q>  (308) 
0

>  <i_epik_Tot_abs_Q>  (308) 
0

>  <s_lp_Force_Field>  (308) 
OPLS3e

>  <r_lp_Energy>  (308) 
77.6141

>  <b_lp_Chiralities_Consistent>  (308) 
1

>  <s_lp_Variant>  (308) 
87:0-2

>  <s_i_glide_gridfile>  (308) 
pfpi4k_grid

>  <i_i_glide_lignum>  (308) 
32

>  <i_i_glide_rotatable_bonds>  (308) 
1

>  <r_i_docking_score>  (308) 
-2.71177

>  <r_i_glide_ligand_efficiency>  (308) 
-0.0968489

>  <r_i_glide_ligand_efficiency_sa>  (308) 
-0.29409

>  <r_i_glide_ligand_efficiency_ln>  (308) 
-0.625956

>  <r_i_glide_gscore>  (308) 
-2.71177

>  <r_i_glide_lipo>  (308) 
-0.245768

>  <r_i_glide_hbond>  (308) 
-0.281576

>  <r_i_glide_metal>  (308) 
-0

>  <r_i_glide_rewards>  (308) 
-0.918353

>  <r_i_glide_evdw>  (308) 
-20.1296

>  <r_i_glide_ecoul>  (308) 
-1.5159

>  <r_i_glide_erotb>  (308) 
0

>  <r_i_glide_esite>  (308) 
-0.0322057

>  <r_i_glide_emodel>  (308) 
-25.3348

>  <r_i_glide_energy>  (308) 
-21.6455

>  <r_i_glide_einternal>  (308) 
0.340873

>  <r_i_glide_intrahb_reward>  (308) 
-0

>  <i_i_glide_confnum>  (308) 
2

>  <i_i_glide_posenum>  (308) 
7

>  <r_i_glide_eff_state_penalty>  (308) 
0

>  <ligand_id>  (308) 
87

>  <original_smiles>  (308) 
CC1(C)C(=O)CC(=O)C2C1CCC1C2(C)CC(O)C2C(C)(C)C(=O)CCC21C

>  <smiles>  (308) 
[H]OC1([H])C([H])([H])C2(C([H])([H])[H])C3([H])C(=O)C([H])([H])C(=O)C(C([H])([H])[H])(C([H])([H])[H])C3([H])C([H])([H])C([H])([H])C2([H])C2(C([H])([H])[H])C([H])([H])C([H])([H])C(=O)C(C([H])([H])[H])(C([H])([H])[H])C12[H]

$$$$
87:1:2
     RDKit          3D

 64 67  0  0  1  0  0  0  0  0999 V2000
    2.7523   -3.4454   -1.5826 C   0  0  0  0  0  0  0  0  0  0  0  0
    4.2705   -3.2309   -1.7738 C   0  0  0  0  0  0  0  0  0  0  0  0
    4.8217   -4.0900   -2.9261 C   0  0  0  0  0  0  0  0  0  0  0  0
    4.4408   -1.7948   -2.2363 C   0  0  0  0  0  0  0  0  0  0  0  0
    4.5910   -1.4814   -3.4206 O   0  0  0  0  0  0  0  0  0  0  0  0
    4.3737   -0.7523   -1.1718 C   0  0  0  0  0  0  0  0  0  0  0  0
    5.4555   -1.0804   -0.1392 C   0  0  0  0  0  0  0  0  0  0  0  0
    6.3797   -0.3235    0.0848 O   0  0  0  0  0  0  0  0  0  0  0  0
    5.3701   -2.4160    0.5681 C   0  0  2  0  0  0  0  0  0  0  0  0
    5.1200   -3.5351   -0.4771 C   0  0  1  0  0  0  0  0  0  0  0  0
    4.8511   -4.8754    0.2264 C   0  0  0  0  0  0  0  0  0  0  0  0
    3.8574   -4.7490    1.3843 C   0  0  0  0  0  0  0  0  0  0  0  0
    4.3934   -3.8337    2.5295 C   0  0  1  0  0  0  0  0  0  0  0  0
    4.6048   -2.3815    1.9625 C   0  0  1  0  0  0  0  0  0  0  0  0
    5.5034   -1.5501    2.9122 C   0  0  0  0  0  0  0  0  0  0  0  0
    3.2285   -1.7050    1.8809 C   0  0  0  0  0  0  0  0  0  0  0  0
    2.3407   -1.8184    3.1367 C   0  0  1  0  0  0  0  0  0  0  0  0
    1.1454   -1.2416    2.6596 O   0  0  0  0  0  0  0  0  0  0  0  0
    2.1202   -3.2746    3.6876 C   0  0  2  0  0  0  0  0  0  0  0  0
    1.2008   -3.3637    4.9909 C   0  0  0  0  0  0  0  0  0  0  0  0
   -0.0811   -2.5026    4.8860 C   0  0  0  0  0  0  0  0  0  0  0  0
    0.6835   -4.8046    5.2420 C   0  0  0  0  0  0  0  0  0  0  0  0
    1.9957   -2.9032    6.2338 C   0  0  0  0  0  0  0  0  0  0  0  0
    1.5009   -2.1585    7.0834 O   0  0  0  0  0  0  0  0  0  0  0  0
    3.4064   -3.4558    6.4199 C   0  0  0  0  0  0  0  0  0  0  0  0
    4.2235   -3.3525    5.1220 C   0  0  0  0  0  0  0  0  0  0  0  0
    3.5348   -3.9702    3.8644 C   0  0  2  0  0  0  0  0  0  0  0  0
    3.4669   -5.4999    4.1429 C   0  0  0  0  0  0  0  0  0  0  0  0
    2.5025   -4.4392   -1.1911 H   0  0  0  0  0  0  0  0  0  0  0  0
    2.2215   -3.3130   -2.5319 H   0  0  0  0  0  0  0  0  0  0  0  0
    2.3175   -2.7219   -0.9011 H   0  0  0  0  0  0  0  0  0  0  0  0
    4.7940   -5.1206   -2.6066 H   0  0  0  0  0  0  0  0  0  0  0  0
    5.8681   -3.8815   -3.1722 H   0  0  0  0  0  0  0  0  0  0  0  0
    4.2204   -3.9988   -3.8429 H   0  0  0  0  0  0  0  0  0  0  0  0
    4.6131    0.1536   -1.6787 H   0  0  0  0  0  0  0  0  0  0  0  0
    3.3714   -0.6924   -0.7406 H   0  0  0  0  0  0  0  0  0  0  0  0
    6.3969   -2.6279    0.8736 H   0  0  0  0  0  0  0  0  0  0  0  0
    6.1156   -3.7020   -0.8844 H   0  0  0  0  0  0  0  0  0  0  0  0
    4.4794   -5.6278   -0.4754 H   0  0  0  0  0  0  0  0  0  0  0  0
    5.7968   -5.2719    0.6316 H   0  0  0  0  0  0  0  0  0  0  0  0
    2.9074   -4.3690    1.0123 H   0  0  0  0  0  0  0  0  0  0  0  0
    3.6625   -5.7719    1.7033 H   0  0  0  0  0  0  0  0  0  0  0  0
    5.3884   -4.2256    2.7735 H   0  0  0  0  0  0  0  0  0  0  0  0
    4.9552   -0.8642    3.5496 H   0  0  0  0  0  0  0  0  0  0  0  0
    6.2512   -0.9398    2.4180 H   0  0  0  0  0  0  0  0  0  0  0  0
    6.0751   -2.2260    3.5341 H   0  0  0  0  0  0  0  0  0  0  0  0
    3.3725   -0.6523    1.6483 H   0  0  0  0  0  0  0  0  0  0  0  0
    2.6875   -2.1248    1.0453 H   0  0  0  0  0  0  0  0  0  0  0  0
    2.7301   -1.1693    3.9193 H   0  0  0  0  0  0  0  0  0  0  0  0
    1.3462   -0.4143    2.2596 H   0  0  0  0  0  0  0  0  0  0  0  0
    1.5879   -3.8011    2.8957 H   0  0  0  0  0  0  0  0  0  0  0  0
   -0.5840   -2.6866    3.9408 H   0  0  0  0  0  0  0  0  0  0  0  0
    0.1290   -1.4352    4.9521 H   0  0  0  0  0  0  0  0  0  0  0  0
   -0.7843   -2.7219    5.6916 H   0  0  0  0  0  0  0  0  0  0  0  0
    0.4579   -5.3205    4.3095 H   0  0  0  0  0  0  0  0  0  0  0  0
   -0.2295   -4.8169    5.8366 H   0  0  0  0  0  0  0  0  0  0  0  0
    1.3807   -5.4153    5.8101 H   0  0  0  0  0  0  0  0  0  0  0  0
    3.8909   -2.8916    7.2115 H   0  0  0  0  0  0  0  0  0  0  0  0
    3.3281   -4.4772    6.7847 H   0  0  0  0  0  0  0  0  0  0  0  0
    4.3751   -2.2899    5.0066 H   0  0  0  0  0  0  0  0  0  0  0  0
    5.2159   -3.7802    5.2701 H   0  0  0  0  0  0  0  0  0  0  0  0
    3.3622   -5.7600    5.1900 H   0  0  0  0  0  0  0  0  0  0  0  0
    4.4000   -5.9857    3.8500 H   0  0  0  0  0  0  0  0  0  0  0  0
    2.6524   -5.9838    3.6040 H   0  0  0  0  0  0  0  0  0  0  0  0
  1  2  1  0
  1 29  1  0
  1 30  1  0
  1 31  1  0
  2 10  1  0
  2  3  1  0
  2  4  1  0
  3 32  1  0
  3 33  1  0
  3 34  1  0
  4  5  2  0
  4  6  1  0
  6  7  1  0
  6 35  1  0
  6 36  1  0
  7  8  2  0
  7  9  1  0
  9 14  1  0
  9 10  1  0
  9 37  1  1
 10 11  1  0
 10 38  1  6
 11 12  1  0
 11 39  1  0
 11 40  1  0
 12 13  1  0
 12 41  1  0
 12 42  1  0
 13 27  1  0
 13 14  1  0
 13 43  1  1
 14 15  1  1
 14 16  1  0
 15 44  1  0
 15 45  1  0
 15 46  1  0
 16 17  1  0
 16 47  1  0
 16 48  1  0
 17 18  1  0
 17 19  1  0
 17 49  1  1
 18 50  1  0
 19 27  1  0
 19 20  1  0
 19 51  1  6
 20 21  1  0
 20 22  1  0
 20 23  1  0
 21 52  1  0
 21 53  1  0
 21 54  1  0
 22 55  1  0
 22 56  1  0
 22 57  1  0
 23 24  2  0
 23 25  1  0
 25 26  1  0
 25 58  1  0
 25 59  1  0
 26 27  1  0
 26 60  1  0
 26 61  1  0
 27 28  1  1
 28 62  1  0
 28 63  1  0
 28 64  1  0
M  END
>  <i_m_ct_stereo_status>  (309) 
1

>  <s_m_source_file>  (309) 
/var/tmp/pbs.5076255.sched01/tmpoq50wh_d/842pmd5wfz.sdf

>  <i_m_source_file_index>  (309) 
32

>  <i_lp_mmshare_version>  (309) 
48012

>  <i_f3d_flags>  (309) 
0

>  <s_epik_input>  (309) 
Tz1DMVtDSDJdQyg9TylDKFtDSDNdKShbQ0gzXSlbQ0BASF0oW0NAQEhdMVtDQF0yM1tDSDNdKVtDSDJdW0NIMl1bQ0BASF0yW0NAXTQoW0NIM10pW0NASF0oW0NAQEhdKFtDSDJdMylbT0hdKUMoW0NIM10pKFtDSDNdKUMoPU8pW0NIMl1bQ0gyXTQ=

>  <s_epik_cmdline>  (309) 
J2VwaWtfcHl0aG9uJywgJy1waHQnLCAnMi4wJywgJy1waCcsICc3LjAnLCAnLXRuJywgJzgnLCAnLW1hJywgJzIwMCcsICctaW1hZScsICc8aW5maWxlLm1hZT4nLCAnLW9tYWUnLCAnPG91dGZpbGUubWFlPic=

>  <r_lp_tautomer_probability>  (309) 
0.99995

>  <r_epik_Ionization_Penalty>  (309) 
1.93042

>  <r_epik_Ionization_Penalty_Charging>  (309) 
0

>  <r_epik_Ionization_Penalty_Neutral>  (309) 
1.93042

>  <r_epik_State_Penalty>  (309) 
2.0598

>  <r_epik_Charging_Adjusted_Penalty>  (309) 
2.0598

>  <i_epik_Tot_Q>  (309) 
0

>  <i_epik_Tot_abs_Q>  (309) 
0

>  <s_lp_Force_Field>  (309) 
OPLS3e

>  <r_lp_Energy>  (309) 
77.6141

>  <b_lp_Chiralities_Consistent>  (309) 
1

>  <s_lp_Variant>  (309) 
87:0-2

>  <s_i_glide_gridfile>  (309) 
pfpi4k_grid

>  <i_i_glide_lignum>  (309) 
32

>  <i_i_glide_rotatable_bonds>  (309) 
1

>  <r_i_docking_score>  (309) 
-2.33868

>  <r_i_glide_ligand_efficiency>  (309) 
-0.0835242

>  <r_i_glide_ligand_efficiency_sa>  (309) 
-0.253629

>  <r_i_glide_ligand_efficiency_ln>  (309) 
-0.539836

>  <r_i_glide_gscore>  (309) 
-2.33868

>  <r_i_glide_lipo>  (309) 
-0.407112

>  <r_i_glide_hbond>  (309) 
-0.00580815

>  <r_i_glide_metal>  (309) 
-0

>  <r_i_glide_rewards>  (309) 
-0.759953

>  <r_i_glide_evdw>  (309) 
-18.8884

>  <r_i_glide_ecoul>  (309) 
-1.28696

>  <r_i_glide_erotb>  (309) 
0

>  <r_i_glide_esite>  (309) 
-0.0283397

>  <r_i_glide_emodel>  (309) 
-22.5298

>  <r_i_glide_energy>  (309) 
-20.1754

>  <r_i_glide_einternal>  (309) 
0.45788

>  <r_i_glide_intrahb_reward>  (309) 
-0

>  <i_i_glide_confnum>  (309) 
2

>  <i_i_glide_posenum>  (309) 
1

>  <r_i_glide_eff_state_penalty>  (309) 
0

>  <ligand_id>  (309) 
87

>  <original_smiles>  (309) 
CC1(C)C(=O)CC(=O)C2C1CCC1C2(C)CC(O)C2C(C)(C)C(=O)CCC21C

>  <smiles>  (309) 
[H]OC1([H])C([H])([H])C2(C([H])([H])[H])C3([H])C(=O)C([H])([H])C(=O)C(C([H])([H])[H])(C([H])([H])[H])C3([H])C([H])([H])C([H])([H])C2([H])C2(C([H])([H])[H])C([H])([H])C([H])([H])C(=O)C(C([H])([H])[H])(C([H])([H])[H])C12[H]

$$$$
88:0:0
     RDKit          3D

 33 36  0  0  1  0  0  0  0  0999 V2000
    7.1386   -3.9728    0.3874 O   0  0  0  0  0  0  0  0  0  0  0  0
    5.8450   -3.5757   -0.0055 C   0  0  1  0  0  0  0  0  0  0  0  0
    4.9763   -4.6630   -0.6912 C   0  0  0  0  0  0  0  0  0  0  0  0
    3.7790   -3.8477   -1.0114 N   0  0  1  0  0  0  0  0  0  0  0  0
    3.0425   -3.5126    0.2806 C   0  0  0  0  0  0  0  0  0  0  0  0
    3.9274   -3.7925    1.5111 C   0  0  1  0  0  0  0  0  0  0  0  0
    4.7398   -3.0141    2.4163 N   0  0  0  0  0  0  0  0  0  0  0  0
    5.0457   -2.7936    1.0613 C   0  0  1  0  0  0  0  0  0  0  0  0
    4.4062   -2.7077   -1.7737 C   0  0  0  0  0  0  0  0  0  0  0  0
    4.3730   -2.9941   -3.3022 C   0  0  0  0  0  0  0  0  0  0  0  0
    3.8897   -1.7179   -4.0013 C   0  0  0  0  0  0  0  0  0  0  0  0
    3.9065   -0.6189   -2.9542 C   0  0  0  0  0  0  0  0  0  0  0  0
    3.6775   -1.3531   -1.6509 C   0  0  0  0  0  0  0  0  0  0  0  0
    5.8800   -2.6330   -1.2231 C   0  0  0  0  0  0  0  0  0  0  0  0
    7.0736   -4.5576    1.1266 H   0  0  0  0  0  0  0  0  0  0  0  0
    5.4181   -5.0325   -1.6094 H   0  0  0  0  0  0  0  0  0  0  0  0
    4.7587   -5.5562   -0.1033 H   0  0  0  0  0  0  0  0  0  0  0  0
    2.5867   -2.5228    0.3465 H   0  0  0  0  0  0  0  0  0  0  0  0
    2.2143   -4.2225    0.3445 H   0  0  0  0  0  0  0  0  0  0  0  0
    4.1416   -4.8401    1.7251 H   0  0  0  0  0  0  0  0  0  0  0  0
    5.4343   -3.6135    2.8445 H   0  0  0  0  0  0  0  0  0  0  0  0
    4.8210   -1.7488    0.8587 H   0  0  0  0  0  0  0  0  0  0  0  0
    5.3519   -3.2838   -3.6836 H   0  0  0  0  0  0  0  0  0  0  0  0
    3.7042   -3.8170   -3.5608 H   0  0  0  0  0  0  0  0  0  0  0  0
    4.5080   -1.4483   -4.8546 H   0  0  0  0  0  0  0  0  0  0  0  0
    2.8672   -1.8618   -4.3518 H   0  0  0  0  0  0  0  0  0  0  0  0
    4.8798   -0.1308   -2.9185 H   0  0  0  0  0  0  0  0  0  0  0  0
    3.1504    0.1467   -3.1400 H   0  0  0  0  0  0  0  0  0  0  0  0
    2.6238   -1.5178   -1.5890 H   0  0  0  0  0  0  0  0  0  0  0  0
    3.9725   -0.7387   -0.8018 H   0  0  0  0  0  0  0  0  0  0  0  0
    6.1815   -1.6182   -0.9596 H   0  0  0  0  0  0  0  0  0  0  0  0
    6.6166   -2.9943   -1.9461 H   0  0  0  0  0  0  0  0  0  0  0  0
    3.1647   -4.3673   -1.6285 H   0  0  0  0  0  0  0  0  0  0  0  0
  2  1  1  1
  1 15  1  0
  2  8  1  0
  2 14  1  0
  2  3  1  0
  3  4  1  0
  3 16  1  0
  3 17  1  0
  4  5  1  0
  4  9  1  0
  4 33  1  6
  5  6  1  0
  5 18  1  0
  5 19  1  0
  6  8  1  0
  6  7  1  0
  6 20  1  1
  7  8  1  0
  7 21  1  0
  8 22  1  6
  9 13  1  0
  9 10  1  0
  9 14  1  0
 10 11  1  0
 10 23  1  0
 10 24  1  0
 11 12  1  0
 11 25  1  0
 11 26  1  0
 12 13  1  0
 12 27  1  0
 12 28  1  0
 13 29  1  0
 13 30  1  0
 14 31  1  0
 14 32  1  0
M  CHG  1   4   1
M  END
>  <i_m_ct_stereo_status>  (310) 
1

>  <s_m_source_file>  (310) 
/var/tmp/pbs.5076255.sched01/tmpoq50wh_d/842pmd5wfz.sdf

>  <i_m_source_file_index>  (310) 
33

>  <i_lp_mmshare_version>  (310) 
48012

>  <i_f3d_flags>  (310) 
0

>  <s_epik_input>  (310) 
W0NIMl0xW0NASF0oW05IXTIpW0NAQEhdMltDQF0oW09IXSkoW0NIMl0zKVtDSDJdTjFDMzRbQ0gyXVtDSDJdW0NIMl1bQ0gyXTQ=

>  <s_epik_cmdline>  (310) 
J2VwaWtfcHl0aG9uJywgJy1waHQnLCAnMi4wJywgJy1waCcsICc3LjAnLCAnLXRuJywgJzgnLCAnLW1hJywgJzIwMCcsICctaW1hZScsICc8aW5maWxlLm1hZT4nLCAnLW9tYWUnLCAnPG91dGZpbGUubWFlPic=

>  <r_epik_Ionization_Penalty>  (310) 
0.0156503

>  <r_epik_Ionization_Penalty_Charging>  (310) 
0.000953464

>  <r_epik_Ionization_Penalty_Neutral>  (310) 
0.0146968

>  <r_epik_State_Penalty>  (310) 
0.0115097

>  <r_epik_Charging_Adjusted_Penalty>  (310) 
0.0124631

>  <i_epik_Tot_Q>  (310) 
1

>  <i_epik_Tot_abs_Q>  (310) 
1

>  <s_lp_Force_Field>  (310) 
OPLS3e

>  <r_lp_Energy>  (310) 
78.7501

>  <b_lp_Chiralities_Consistent>  (310) 
1

>  <s_lp_Variant>  (310) 
88:0-1

>  <s_i_glide_gridfile>  (310) 
pfpi4k_grid

>  <i_i_glide_lignum>  (310) 
33

>  <i_i_glide_rotatable_bonds>  (310) 
1

>  <r_i_docking_score>  (310) 
-4.18121

>  <r_i_glide_ligand_efficiency>  (310) 
-0.298658

>  <r_i_glide_ligand_efficiency_sa>  (310) 
-0.719807

>  <r_i_glide_ligand_efficiency_ln>  (310) 
-1.14898

>  <r_i_glide_gscore>  (310) 
-4.18121

>  <r_i_glide_lipo>  (310) 
-0.408903

>  <r_i_glide_hbond>  (310) 
0

>  <r_i_glide_metal>  (310) 
-0

>  <r_i_glide_rewards>  (310) 
-2.07763

>  <r_i_glide_evdw>  (310) 
-19.4883

>  <r_i_glide_ecoul>  (310) 
-4.69484

>  <r_i_glide_erotb>  (310) 
0

>  <r_i_glide_esite>  (310) 
-0.0160369

>  <r_i_glide_emodel>  (310) 
-30.4544

>  <r_i_glide_energy>  (310) 
-24.1831

>  <r_i_glide_einternal>  (310) 
0.000373627

>  <r_i_glide_intrahb_reward>  (310) 
-0

>  <i_i_glide_confnum>  (310) 
1

>  <i_i_glide_posenum>  (310) 
31

>  <r_i_glide_eff_state_penalty>  (310) 
0

>  <ligand_id>  (310) 
88

>  <original_smiles>  (310) 
OC12CN(CC3NC31)C1(CCCC1)C2

>  <smiles>  (310) 
[H]OC12C([H])([H])C3(C([H])([H])C([H])([H])C([H])([H])C3([H])[H])[N+]([H])(C([H])([H])C3([H])N([H])C31[H])C2([H])[H]

$$$$
88:0:1
     RDKit          3D

 33 36  0  0  1  0  0  0  0  0999 V2000
    6.8228   -3.1155    0.8269 O   0  0  0  0  0  0  0  0  0  0  0  0
    5.5693   -3.0607    0.1908 C   0  0  1  0  0  0  0  0  0  0  0  0
    5.1189   -4.3426   -0.5615 C   0  0  0  0  0  0  0  0  0  0  0  0
    3.8400   -3.8427   -1.1232 N   0  0  1  0  0  0  0  0  0  0  0  0
    2.8338   -3.6631    0.0074 C   0  0  0  0  0  0  0  0  0  0  0  0
    3.5257   -3.7047    1.3821 C   0  0  1  0  0  0  0  0  0  0  0  0
    3.9764   -2.7490    2.3648 N   0  0  0  0  0  0  0  0  0  0  0  0
    4.4404   -2.4776    1.0656 C   0  0  1  0  0  0  0  0  0  0  0  0
    4.3068   -2.6016   -1.8417 C   0  0  0  0  0  0  0  0  0  0  0  0
    4.6031   -2.9060   -3.3342 C   0  0  0  0  0  0  0  0  0  0  0  0
    3.9551   -1.7862   -4.1745 C   0  0  0  0  0  0  0  0  0  0  0  0
    3.5601   -0.6885   -3.2036 C   0  0  0  0  0  0  0  0  0  0  0  0
    3.2711   -1.4605   -1.9343 C   0  0  0  0  0  0  0  0  0  0  0  0
    5.6007   -2.1642   -1.0559 C   0  0  0  0  0  0  0  0  0  0  0  0
    6.9849   -2.2885    1.2570 H   0  0  0  0  0  0  0  0  0  0  0  0
    5.8043   -4.6098   -1.3661 H   0  0  0  0  0  0  0  0  0  0  0  0
    5.0156   -5.2485    0.0378 H   0  0  0  0  0  0  0  0  0  0  0  0
    2.1802   -2.7954   -0.0658 H   0  0  0  0  0  0  0  0  0  0  0  0
    2.1884   -4.5433   -0.0389 H   0  0  0  0  0  0  0  0  0  0  0  0
    3.9312   -4.6651    1.6857 H   0  0  0  0  0  0  0  0  0  0  0  0
    4.7182   -3.1655    2.9165 H   0  0  0  0  0  0  0  0  0  0  0  0
    4.0148   -1.5197    0.7642 H   0  0  0  0  0  0  0  0  0  0  0  0
    5.6762   -2.9645   -3.5235 H   0  0  0  0  0  0  0  0  0  0  0  0
    4.1933   -3.8670   -3.6520 H   0  0  0  0  0  0  0  0  0  0  0  0
    4.6147   -1.3819   -4.9422 H   0  0  0  0  0  0  0  0  0  0  0  0
    3.0618   -2.1768   -4.6677 H   0  0  0  0  0  0  0  0  0  0  0  0
    4.3822    0.0090   -3.0468 H   0  0  0  0  0  0  0  0  0  0  0  0
    2.6914   -0.1187   -3.5486 H   0  0  0  0  0  0  0  0  0  0  0  0
    2.2719   -1.8734   -2.0607 H   0  0  0  0  0  0  0  0  0  0  0  0
    3.2622   -0.7899   -1.0758 H   0  0  0  0  0  0  0  0  0  0  0  0
    5.6135   -1.0985   -0.8066 H   0  0  0  0  0  0  0  0  0  0  0  0
    6.5205   -2.3564   -1.6192 H   0  0  0  0  0  0  0  0  0  0  0  0
    3.4556   -4.4990   -1.7961 H   0  0  0  0  0  0  0  0  0  0  0  0
  2  1  1  1
  1 15  1  0
  2  8  1  0
  2 14  1  0
  2  3  1  0
  3  4  1  0
  3 16  1  0
  3 17  1  0
  4  5  1  0
  4  9  1  0
  4 33  1  6
  5  6  1  0
  5 18  1  0
  5 19  1  0
  6  8  1  0
  6  7  1  0
  6 20  1  1
  7  8  1  0
  7 21  1  0
  8 22  1  6
  9 13  1  0
  9 10  1  0
  9 14  1  0
 10 11  1  0
 10 23  1  0
 10 24  1  0
 11 12  1  0
 11 25  1  0
 11 26  1  0
 12 13  1  0
 12 27  1  0
 12 28  1  0
 13 29  1  0
 13 30  1  0
 14 31  1  0
 14 32  1  0
M  CHG  1   4   1
M  END
>  <i_m_ct_stereo_status>  (311) 
1

>  <s_m_source_file>  (311) 
/var/tmp/pbs.5076255.sched01/tmpoq50wh_d/842pmd5wfz.sdf

>  <i_m_source_file_index>  (311) 
33

>  <i_lp_mmshare_version>  (311) 
48012

>  <i_f3d_flags>  (311) 
0

>  <s_epik_input>  (311) 
W0NIMl0xW0NASF0oW05IXTIpW0NAQEhdMltDQF0oW09IXSkoW0NIMl0zKVtDSDJdTjFDMzRbQ0gyXVtDSDJdW0NIMl1bQ0gyXTQ=

>  <s_epik_cmdline>  (311) 
J2VwaWtfcHl0aG9uJywgJy1waHQnLCAnMi4wJywgJy1waCcsICc3LjAnLCAnLXRuJywgJzgnLCAnLW1hJywgJzIwMCcsICctaW1hZScsICc8aW5maWxlLm1hZT4nLCAnLW9tYWUnLCAnPG91dGZpbGUubWFlPic=

>  <r_epik_Ionization_Penalty>  (311) 
0.0156503

>  <r_epik_Ionization_Penalty_Charging>  (311) 
0.000953464

>  <r_epik_Ionization_Penalty_Neutral>  (311) 
0.0146968

>  <r_epik_State_Penalty>  (311) 
0.0115097

>  <r_epik_Charging_Adjusted_Penalty>  (311) 
0.0124631

>  <i_epik_Tot_Q>  (311) 
1

>  <i_epik_Tot_abs_Q>  (311) 
1

>  <s_lp_Force_Field>  (311) 
OPLS3e

>  <r_lp_Energy>  (311) 
78.7501

>  <b_lp_Chiralities_Consistent>  (311) 
1

>  <s_lp_Variant>  (311) 
88:0-1

>  <s_i_glide_gridfile>  (311) 
pfpi4k_grid

>  <i_i_glide_lignum>  (311) 
33

>  <i_i_glide_rotatable_bonds>  (311) 
1

>  <r_i_docking_score>  (311) 
-4.08495

>  <r_i_glide_ligand_efficiency>  (311) 
-0.291782

>  <r_i_glide_ligand_efficiency_sa>  (311) 
-0.703237

>  <r_i_glide_ligand_efficiency_ln>  (311) 
-1.12253

>  <r_i_glide_gscore>  (311) 
-4.08495

>  <r_i_glide_lipo>  (311) 
-0.397202

>  <r_i_glide_hbond>  (311) 
0

>  <r_i_glide_metal>  (311) 
-0

>  <r_i_glide_rewards>  (311) 
-2.07763

>  <r_i_glide_evdw>  (311) 
-17.9505

>  <r_i_glide_ecoul>  (311) 
-4.62276

>  <r_i_glide_erotb>  (311) 
0

>  <r_i_glide_esite>  (311) 
-0.0191844

>  <r_i_glide_emodel>  (311) 
-28.6616

>  <r_i_glide_energy>  (311) 
-22.5733

>  <r_i_glide_einternal>  (311) 
0.0735934

>  <r_i_glide_intrahb_reward>  (311) 
-0

>  <i_i_glide_confnum>  (311) 
1

>  <i_i_glide_posenum>  (311) 
18

>  <r_i_glide_eff_state_penalty>  (311) 
0

>  <ligand_id>  (311) 
88

>  <original_smiles>  (311) 
OC12CN(CC3NC31)C1(CCCC1)C2

>  <smiles>  (311) 
[H]OC12C([H])([H])C3(C([H])([H])C([H])([H])C([H])([H])C3([H])[H])[N+]([H])(C([H])([H])C3([H])N([H])C31[H])C2([H])[H]

$$$$
88:0:2
     RDKit          3D

 33 36  0  0  1  0  0  0  0  0999 V2000
    7.4358   -1.7264    0.3042 O   0  0  0  0  0  0  0  0  0  0  0  0
    6.1064   -2.0256   -0.0401 C   0  0  1  0  0  0  0  0  0  0  0  0
    5.6834   -3.5133   -0.0088 C   0  0  0  0  0  0  0  0  0  0  0  0
    4.2882   -3.3794   -0.5340 N   0  0  1  0  0  0  0  0  0  0  0  0
    3.4386   -2.7159    0.5447 C   0  0  0  0  0  0  0  0  0  0  0  0
    4.3128   -2.0394    1.6113 C   0  0  1  0  0  0  0  0  0  0  0  0
    4.7765   -0.7022    1.9019 N   0  0  0  0  0  0  0  0  0  0  0  0
    5.0404   -1.1104    0.5880 C   0  0  1  0  0  0  0  0  0  0  0  0
    4.5533   -2.6104   -1.8125 C   0  0  0  0  0  0  0  0  0  0  0  0
    4.7018   -3.6227   -2.9886 C   0  0  0  0  0  0  0  0  0  0  0  0
    3.4908   -3.4520   -3.9038 C   0  0  0  0  0  0  0  0  0  0  0  0
    2.5097   -2.5911   -3.1397 C   0  0  0  0  0  0  0  0  0  0  0  0
    3.4134   -1.6875   -2.3114 C   0  0  0  0  0  0  0  0  0  0  0  0
    5.8880   -1.8576   -1.5434 C   0  0  0  0  0  0  0  0  0  0  0  0
    7.5214   -1.7363    1.2477 H   0  0  0  0  0  0  0  0  0  0  0  0
    6.2916   -4.1211   -0.6750 H   0  0  0  0  0  0  0  0  0  0  0  0
    5.7514   -4.0083    0.9564 H   0  0  0  0  0  0  0  0  0  0  0  0
    2.6205   -2.0656    0.2440 H   0  0  0  0  0  0  0  0  0  0  0  0
    2.9407   -3.5397    1.0552 H   0  0  0  0  0  0  0  0  0  0  0  0
    4.8654   -2.6935    2.2832 H   0  0  0  0  0  0  0  0  0  0  0  0
    5.6099   -0.7422    2.4801 H   0  0  0  0  0  0  0  0  0  0  0  0
    4.4809   -0.4456   -0.0732 H   0  0  0  0  0  0  0  0  0  0  0  0
    5.6015   -3.4525   -3.5834 H   0  0  0  0  0  0  0  0  0  0  0  0
    4.7796   -4.6523   -2.6505 H   0  0  0  0  0  0  0  0  0  0  0  0
    3.7929   -2.9073   -4.7896 H   0  0  0  0  0  0  0  0  0  0  0  0
    3.0508   -4.3943   -4.2336 H   0  0  0  0  0  0  0  0  0  0  0  0
    1.8656   -2.0262   -3.8140 H   0  0  0  0  0  0  0  0  0  0  0  0
    1.8807   -3.2047   -2.4950 H   0  0  0  0  0  0  0  0  0  0  0  0
    2.8685   -1.0899   -1.5850 H   0  0  0  0  0  0  0  0  0  0  0  0
    3.8356   -0.9368   -2.9825 H   0  0  0  0  0  0  0  0  0  0  0  0
    5.8162   -0.8053   -1.8469 H   0  0  0  0  0  0  0  0  0  0  0  0
    6.7330   -2.2851   -2.0910 H   0  0  0  0  0  0  0  0  0  0  0  0
    3.9019   -4.2622   -0.7769 H   0  0  0  0  0  0  0  0  0  0  0  0
  2  1  1  6
  1 15  1  0
  2  8  1  0
  2 14  1  0
  2  3  1  0
  3  4  1  0
  3 16  1  0
  3 17  1  0
  4  5  1  0
  4  9  1  0
  4 33  1  6
  5  6  1  0
  5 18  1  0
  5 19  1  0
  6  8  1  0
  6  7  1  0
  6 20  1  1
  7  8  1  0
  7 21  1  0
  8 22  1  6
  9 13  1  0
  9 10  1  0
  9 14  1  0
 10 11  1  0
 10 23  1  0
 10 24  1  0
 11 12  1  0
 11 25  1  0
 11 26  1  0
 12 13  1  0
 12 27  1  0
 12 28  1  0
 13 29  1  0
 13 30  1  0
 14 31  1  0
 14 32  1  0
M  CHG  1   4   1
M  END
>  <i_m_ct_stereo_status>  (312) 
1

>  <s_m_source_file>  (312) 
/var/tmp/pbs.5076255.sched01/tmpoq50wh_d/842pmd5wfz.sdf

>  <i_m_source_file_index>  (312) 
33

>  <i_lp_mmshare_version>  (312) 
48012

>  <i_f3d_flags>  (312) 
0

>  <s_epik_input>  (312) 
W0NIMl0xW0NASF0oW05IXTIpW0NAQEhdMltDQF0oW09IXSkoW0NIMl0zKVtDSDJdTjFDMzRbQ0gyXVtDSDJdW0NIMl1bQ0gyXTQ=

>  <s_epik_cmdline>  (312) 
J2VwaWtfcHl0aG9uJywgJy1waHQnLCAnMi4wJywgJy1waCcsICc3LjAnLCAnLXRuJywgJzgnLCAnLW1hJywgJzIwMCcsICctaW1hZScsICc8aW5maWxlLm1hZT4nLCAnLW9tYWUnLCAnPG91dGZpbGUubWFlPic=

>  <r_epik_Ionization_Penalty>  (312) 
0.0156503

>  <r_epik_Ionization_Penalty_Charging>  (312) 
0.000953464

>  <r_epik_Ionization_Penalty_Neutral>  (312) 
0.0146968

>  <r_epik_State_Penalty>  (312) 
0.0115097

>  <r_epik_Charging_Adjusted_Penalty>  (312) 
0.0124631

>  <i_epik_Tot_Q>  (312) 
1

>  <i_epik_Tot_abs_Q>  (312) 
1

>  <s_lp_Force_Field>  (312) 
OPLS3e

>  <r_lp_Energy>  (312) 
78.7501

>  <b_lp_Chiralities_Consistent>  (312) 
1

>  <s_lp_Variant>  (312) 
88:0-1

>  <s_i_glide_gridfile>  (312) 
pfpi4k_grid

>  <i_i_glide_lignum>  (312) 
33

>  <i_i_glide_rotatable_bonds>  (312) 
1

>  <r_i_docking_score>  (312) 
-4.06501

>  <r_i_glide_ligand_efficiency>  (312) 
-0.290358

>  <r_i_glide_ligand_efficiency_sa>  (312) 
-0.699804

>  <r_i_glide_ligand_efficiency_ln>  (312) 
-1.11705

>  <r_i_glide_gscore>  (312) 
-4.06501

>  <r_i_glide_lipo>  (312) 
-0.375648

>  <r_i_glide_hbond>  (312) 
-0.0388031

>  <r_i_glide_metal>  (312) 
-0

>  <r_i_glide_rewards>  (312) 
-2.07763

>  <r_i_glide_evdw>  (312) 
-20.6039

>  <r_i_glide_ecoul>  (312) 
-3.61827

>  <r_i_glide_erotb>  (312) 
0

>  <r_i_glide_esite>  (312) 
0

>  <r_i_glide_emodel>  (312) 
-30.4452

>  <r_i_glide_energy>  (312) 
-24.2221

>  <r_i_glide_einternal>  (312) 
0.0503526

>  <r_i_glide_intrahb_reward>  (312) 
-0

>  <i_i_glide_confnum>  (312) 
4

>  <i_i_glide_posenum>  (312) 
29

>  <r_i_glide_eff_state_penalty>  (312) 
0

>  <ligand_id>  (312) 
88

>  <original_smiles>  (312) 
OC12CN(CC3NC31)C1(CCCC1)C2

>  <smiles>  (312) 
[H]OC12C([H])([H])C3(C([H])([H])C([H])([H])C([H])([H])C3([H])[H])[N+]([H])(C([H])([H])C3([H])N([H])C31[H])C2([H])[H]

$$$$
88:1:0
     RDKit          3D

 34 37  0  0  1  0  0  0  0  0999 V2000
    4.8804   -4.9769    1.2290 O   0  0  0  0  0  0  0  0  0  0  0  0
    4.6131   -3.7663    0.5615 C   0  0  1  0  0  0  0  0  0  0  0  0
    3.1171   -3.3776    0.4010 C   0  0  0  0  0  0  0  0  0  0  0  0
    3.2816   -2.1165   -0.3704 N   0  0  1  0  0  0  0  0  0  0  0  0
    3.8526   -1.0478    0.5628 C   0  0  0  0  0  0  0  0  0  0  0  0
    4.4310   -1.6614    1.8560 C   0  0  1  0  0  0  0  0  0  0  0  0
    5.7229   -2.0906    2.3375 N   0  0  0  0  0  0  0  0  0  0  0  0
    5.4333   -2.5643    1.0648 C   0  0  1  0  0  0  0  0  0  0  0  0
    4.1335   -2.6120   -1.5182 C   0  0  0  0  0  0  0  0  0  0  0  0
    5.0602   -1.5747   -2.1899 C   0  0  0  0  0  0  0  0  0  0  0  0
    4.3120   -0.9731   -3.3809 C   0  0  0  0  0  0  0  0  0  0  0  0
    3.0535   -1.7988   -3.5698 C   0  0  0  0  0  0  0  0  0  0  0  0
    3.2319   -3.0368   -2.7060 C   0  0  0  0  0  0  0  0  0  0  0  0
    4.9157   -3.8407   -0.9391 C   0  0  0  0  0  0  0  0  0  0  0  0
    4.5085   -5.6936    0.7299 H   0  0  0  0  0  0  0  0  0  0  0  0
    2.5664   -4.1185   -0.1865 H   0  0  0  0  0  0  0  0  0  0  0  0
    2.5411   -3.2610    1.3204 H   0  0  0  0  0  0  0  0  0  0  0  0
    4.5288   -0.3071    0.1335 H   0  0  0  0  0  0  0  0  0  0  0  0
    2.9846   -0.4630    0.8881 H   0  0  0  0  0  0  0  0  0  0  0  0
    3.7296   -2.0818    2.5777 H   0  0  0  0  0  0  0  0  0  0  0  0
    6.4034   -1.3403    2.3709 H   0  0  0  0  0  0  0  0  0  0  0  0
    6.1929   -2.1304    0.4108 H   0  0  0  0  0  0  0  0  0  0  0  0
    5.5201   -0.8197   -1.5645 H   0  0  0  0  0  0  0  0  0  0  0  0
    5.8998   -2.1281   -2.6146 H   0  0  0  0  0  0  0  0  0  0  0  0
    4.0772    0.0782   -3.2136 H   0  0  0  0  0  0  0  0  0  0  0  0
    4.9366   -1.0360   -4.2791 H   0  0  0  0  0  0  0  0  0  0  0  0
    2.2323   -1.2131   -3.1984 H   0  0  0  0  0  0  0  0  0  0  0  0
    2.8708   -2.0429   -4.6169 H   0  0  0  0  0  0  0  0  0  0  0  0
    3.7481   -3.7957   -3.3105 H   0  0  0  0  0  0  0  0  0  0  0  0
    2.2719   -3.4685   -2.4218 H   0  0  0  0  0  0  0  0  0  0  0  0
    5.9866   -3.8250   -1.1515 H   0  0  0  0  0  0  0  0  0  0  0  0
    4.5400   -4.7750   -1.3555 H   0  0  0  0  0  0  0  0  0  0  0  0
    2.3945   -1.7666   -0.7181 H   0  0  0  0  0  0  0  0  0  0  0  0
    5.6952   -2.7824    3.0770 H   0  0  0  0  0  0  0  0  0  0  0  0
  2  1  1  1
  1 15  1  0
  2  8  1  0
  2 14  1  0
  2  3  1  0
  3  4  1  0
  3 16  1  0
  3 17  1  0
  4  5  1  0
  4  9  1  0
  4 33  1  6
  5  6  1  0
  5 18  1  0
  5 19  1  0
  6  8  1  0
  6  7  1  0
  6 20  1  1
  7  8  1  0
  7 21  1  0
  7 34  1  0
  8 22  1  6
  9 13  1  0
  9 10  1  0
  9 14  1  0
 10 11  1  0
 10 23  1  0
 10 24  1  0
 11 12  1  0
 11 25  1  0
 11 26  1  0
 12 13  1  0
 12 27  1  0
 12 28  1  0
 13 29  1  0
 13 30  1  0
 14 31  1  0
 14 32  1  0
M  CHG  2   4   1   7   1
M  END
>  <i_m_ct_stereo_status>  (313) 
1

>  <s_m_source_file>  (313) 
/var/tmp/pbs.5076255.sched01/tmpoq50wh_d/842pmd5wfz.sdf

>  <i_m_source_file_index>  (313) 
34

>  <i_lp_mmshare_version>  (313) 
48012

>  <i_f3d_flags>  (313) 
0

>  <s_epik_input>  (313) 
W0NIMl0xW0NASF0oW05IXTIpW0NAQEhdMltDQF0oW09IXSkoW0NIMl0zKVtDSDJdTjFDMzRbQ0gyXVtDSDJdW0NIMl1bQ0gyXTQ=

>  <s_epik_cmdline>  (313) 
J2VwaWtfcHl0aG9uJywgJy1waHQnLCAnMi4wJywgJy1waCcsICc3LjAnLCAnLXRuJywgJzgnLCAnLW1hJywgJzIwMCcsICctaW1hZScsICc8aW5maWxlLm1hZT4nLCAnLW9tYWUnLCAnPG91dGZpbGUubWFlPic=

>  <r_epik_Ionization_Penalty>  (313) 
4.13493

>  <r_epik_Ionization_Penalty_Charging>  (313) 
4.13433

>  <r_epik_Ionization_Penalty_Neutral>  (313) 
0.000591931

>  <r_epik_State_Penalty>  (313) 
2.34081

>  <r_epik_Charging_Adjusted_Penalty>  (313) 
6.47515

>  <i_epik_Tot_Q>  (313) 
2

>  <i_epik_Tot_abs_Q>  (313) 
2

>  <s_lp_Force_Field>  (313) 
OPLS3e

>  <r_lp_Energy>  (313) 
92.3959

>  <b_lp_Chiralities_Consistent>  (313) 
1

>  <s_lp_Variant>  (313) 
88:0-2

>  <s_i_glide_gridfile>  (313) 
pfpi4k_grid

>  <i_i_glide_lignum>  (313) 
34

>  <i_i_glide_rotatable_bonds>  (313) 
1

>  <r_i_docking_score>  (313) 
-4.74536

>  <r_i_glide_ligand_efficiency>  (313) 
-0.338954

>  <r_i_glide_ligand_efficiency_sa>  (313) 
-0.816928

>  <r_i_glide_ligand_efficiency_ln>  (313) 
-1.30401

>  <r_i_glide_gscore>  (313) 
-4.74536

>  <r_i_glide_lipo>  (313) 
-0.48856

>  <r_i_glide_hbond>  (313) 
-0.2

>  <r_i_glide_metal>  (313) 
-0

>  <r_i_glide_rewards>  (313) 
-2.07075

>  <r_i_glide_evdw>  (313) 
-17.4266

>  <r_i_glide_ecoul>  (313) 
-6.89664

>  <r_i_glide_erotb>  (313) 
0

>  <r_i_glide_esite>  (313) 
-0.0802177

>  <r_i_glide_emodel>  (313) 
-32.0143

>  <r_i_glide_energy>  (313) 
-24.3232

>  <r_i_glide_einternal>  (313) 
0.0530649

>  <r_i_glide_intrahb_reward>  (313) 
-0

>  <i_i_glide_confnum>  (313) 
2

>  <i_i_glide_posenum>  (313) 
1

>  <r_i_glide_eff_state_penalty>  (313) 
0

>  <ligand_id>  (313) 
88

>  <original_smiles>  (313) 
OC12CN(CC3NC31)C1(CCCC1)C2

>  <smiles>  (313) 
[H]OC12C([H])([H])C3(C([H])([H])C([H])([H])C([H])([H])C3([H])[H])[N+]([H])(C1([H])[H])C([H])([H])C1([H])C2([H])[N+]1([H])[H]

$$$$
88:1:1
     RDKit          3D

 34 37  0  0  1  0  0  0  0  0999 V2000
    4.8394   -3.9947    2.3360 O   0  0  0  0  0  0  0  0  0  0  0  0
    4.4922   -2.9661    1.4373 C   0  0  1  0  0  0  0  0  0  0  0  0
    2.9814   -2.7907    1.1237 C   0  0  0  0  0  0  0  0  0  0  0  0
    3.0651   -1.6813    0.1384 N   0  0  1  0  0  0  0  0  0  0  0  0
    3.4632   -0.4064    0.8847 C   0  0  0  0  0  0  0  0  0  0  0  0
    4.0110   -0.7014    2.3029 C   0  0  1  0  0  0  0  0  0  0  0  0
    5.3088   -0.8954    2.9269 N   0  0  0  0  0  0  0  0  0  0  0  0
    5.1554   -1.6142    1.7451 C   0  0  1  0  0  0  0  0  0  0  0  0
    4.0590   -2.2762   -0.8486 C   0  0  0  0  0  0  0  0  0  0  0  0
    4.9345   -1.2826   -1.6578 C   0  0  0  0  0  0  0  0  0  0  0  0
    4.2263   -0.9915   -2.9828 C   0  0  0  0  0  0  0  0  0  0  0  0
    3.0765   -1.9865   -3.0777 C   0  0  0  0  0  0  0  0  0  0  0  0
    3.3072   -3.0155   -1.9801 C   0  0  0  0  0  0  0  0  0  0  0  0
    4.9113   -3.2839    0.0027 C   0  0  0  0  0  0  0  0  0  0  0  0
    4.5731   -4.8326    1.9815 H   0  0  0  0  0  0  0  0  0  0  0  0
    2.5577   -3.6892    0.6720 H   0  0  0  0  0  0  0  0  0  0  0  0
    2.3398   -2.5798    1.9811 H   0  0  0  0  0  0  0  0  0  0  0  0
    4.1025    0.3032    0.3676 H   0  0  0  0  0  0  0  0  0  0  0  0
    2.5242    0.1329    1.0481 H   0  0  0  0  0  0  0  0  0  0  0  0
    3.3057   -1.0583    3.0508 H   0  0  0  0  0  0  0  0  0  0  0  0
    5.9161   -0.0923    2.8626 H   0  0  0  0  0  0  0  0  0  0  0  0
    5.9078   -1.2236    1.0614 H   0  0  0  0  0  0  0  0  0  0  0  0
    5.2648   -0.3763   -1.1581 H   0  0  0  0  0  0  0  0  0  0  0  0
    5.8598   -1.7962   -1.9256 H   0  0  0  0  0  0  0  0  0  0  0  0
    3.8598    0.0339   -3.0264 H   0  0  0  0  0  0  0  0  0  0  0  0
    4.9154   -1.1340   -3.8163 H   0  0  0  0  0  0  0  0  0  0  0  0
    2.1694   -1.4483   -2.8508 H   0  0  0  0  0  0  0  0  0  0  0  0
    2.9703   -2.4351   -4.0667 H   0  0  0  0  0  0  0  0  0  0  0  0
    3.9345   -3.8090   -2.3954 H   0  0  0  0  0  0  0  0  0  0  0  0
    2.3708   -3.4878   -1.6735 H   0  0  0  0  0  0  0  0  0  0  0  0
    5.9891   -3.1894   -0.1585 H   0  0  0  0  0  0  0  0  0  0  0  0
    4.6584   -4.3190   -0.2518 H   0  0  0  0  0  0  0  0  0  0  0  0
    2.1657   -1.4914   -0.3109 H   0  0  0  0  0  0  0  0  0  0  0  0
    5.2929   -1.4370    3.7781 H   0  0  0  0  0  0  0  0  0  0  0  0
  2  1  1  1
  1 15  1  0
  2  8  1  0
  2 14  1  0
  2  3  1  0
  3  4  1  0
  3 16  1  0
  3 17  1  0
  4  5  1  0
  4  9  1  0
  4 33  1  6
  5  6  1  0
  5 18  1  0
  5 19  1  0
  6  8  1  0
  6  7  1  0
  6 20  1  1
  7  8  1  0
  7 21  1  0
  7 34  1  0
  8 22  1  6
  9 13  1  0
  9 10  1  0
  9 14  1  0
 10 11  1  0
 10 23  1  0
 10 24  1  0
 11 12  1  0
 11 25  1  0
 11 26  1  0
 12 13  1  0
 12 27  1  0
 12 28  1  0
 13 29  1  0
 13 30  1  0
 14 31  1  0
 14 32  1  0
M  CHG  2   4   1   7   1
M  END
>  <i_m_ct_stereo_status>  (314) 
1

>  <s_m_source_file>  (314) 
/var/tmp/pbs.5076255.sched01/tmpoq50wh_d/842pmd5wfz.sdf

>  <i_m_source_file_index>  (314) 
34

>  <i_lp_mmshare_version>  (314) 
48012

>  <i_f3d_flags>  (314) 
0

>  <s_epik_input>  (314) 
W0NIMl0xW0NASF0oW05IXTIpW0NAQEhdMltDQF0oW09IXSkoW0NIMl0zKVtDSDJdTjFDMzRbQ0gyXVtDSDJdW0NIMl1bQ0gyXTQ=

>  <s_epik_cmdline>  (314) 
J2VwaWtfcHl0aG9uJywgJy1waHQnLCAnMi4wJywgJy1waCcsICc3LjAnLCAnLXRuJywgJzgnLCAnLW1hJywgJzIwMCcsICctaW1hZScsICc8aW5maWxlLm1hZT4nLCAnLW9tYWUnLCAnPG91dGZpbGUubWFlPic=

>  <r_epik_Ionization_Penalty>  (314) 
4.13493

>  <r_epik_Ionization_Penalty_Charging>  (314) 
4.13433

>  <r_epik_Ionization_Penalty_Neutral>  (314) 
0.000591931

>  <r_epik_State_Penalty>  (314) 
2.34081

>  <r_epik_Charging_Adjusted_Penalty>  (314) 
6.47515

>  <i_epik_Tot_Q>  (314) 
2

>  <i_epik_Tot_abs_Q>  (314) 
2

>  <s_lp_Force_Field>  (314) 
OPLS3e

>  <r_lp_Energy>  (314) 
92.3959

>  <b_lp_Chiralities_Consistent>  (314) 
1

>  <s_lp_Variant>  (314) 
88:0-2

>  <s_i_glide_gridfile>  (314) 
pfpi4k_grid

>  <i_i_glide_lignum>  (314) 
34

>  <i_i_glide_rotatable_bonds>  (314) 
1

>  <r_i_docking_score>  (314) 
-4.60818

>  <r_i_glide_ligand_efficiency>  (314) 
-0.329156

>  <r_i_glide_ligand_efficiency_sa>  (314) 
-0.793313

>  <r_i_glide_ligand_efficiency_ln>  (314) 
-1.26631

>  <r_i_glide_gscore>  (314) 
-4.60818

>  <r_i_glide_lipo>  (314) 
-0.25643

>  <r_i_glide_hbond>  (314) 
-0.2

>  <r_i_glide_metal>  (314) 
-0

>  <r_i_glide_rewards>  (314) 
-2.07075

>  <r_i_glide_evdw>  (314) 
-17.2208

>  <r_i_glide_ecoul>  (314) 
-7.51913

>  <r_i_glide_erotb>  (314) 
0

>  <r_i_glide_esite>  (314) 
-0.0920905

>  <r_i_glide_emodel>  (314) 
-32.2173

>  <r_i_glide_energy>  (314) 
-24.7399

>  <r_i_glide_einternal>  (314) 
0.0415574

>  <r_i_glide_intrahb_reward>  (314) 
-0

>  <i_i_glide_confnum>  (314) 
2

>  <i_i_glide_posenum>  (314) 
34

>  <r_i_glide_eff_state_penalty>  (314) 
0

>  <ligand_id>  (314) 
88

>  <original_smiles>  (314) 
OC12CN(CC3NC31)C1(CCCC1)C2

>  <smiles>  (314) 
[H]OC12C([H])([H])C3(C([H])([H])C([H])([H])C([H])([H])C3([H])[H])[N+]([H])(C1([H])[H])C([H])([H])C1([H])C2([H])[N+]1([H])[H]

$$$$
88:1:2
     RDKit          3D

 34 37  0  0  1  0  0  0  0  0999 V2000
    6.9745   -4.3165    0.4518 O   0  0  0  0  0  0  0  0  0  0  0  0
    5.8485   -3.5910    0.0033 C   0  0  1  0  0  0  0  0  0  0  0  0
    4.6013   -4.4041   -0.4589 C   0  0  0  0  0  0  0  0  0  0  0  0
    3.7297   -3.2781   -0.8897 N   0  0  1  0  0  0  0  0  0  0  0  0
    3.2511   -2.5203    0.3530 C   0  0  0  0  0  0  0  0  0  0  0  0
    4.1018   -2.8807    1.6017 C   0  0  1  0  0  0  0  0  0  0  0  0
    5.2483   -2.3359    2.3100 N   0  0  0  0  0  0  0  0  0  0  0  0
    5.4393   -2.4282    0.9302 C   0  0  1  0  0  0  0  0  0  0  0  0
    4.6513   -2.5718   -1.8604 C   0  0  0  0  0  0  0  0  0  0  0  0
    4.4551   -1.0473   -2.0523 C   0  0  0  0  0  0  0  0  0  0  0  0
    3.5142   -0.8423   -3.2412 C   0  0  0  0  0  0  0  0  0  0  0  0
    3.3340   -2.2107   -3.8991 C   0  0  0  0  0  0  0  0  0  0  0  0
    4.4130   -3.1037   -3.2945 C   0  0  0  0  0  0  0  0  0  0  0  0
    6.0957   -2.9284   -1.3612 C   0  0  0  0  0  0  0  0  0  0  0  0
    6.7637   -4.8168    1.2198 H   0  0  0  0  0  0  0  0  0  0  0  0
    4.8379   -5.0697   -1.3002 H   0  0  0  0  0  0  0  0  0  0  0  0
    4.1488   -5.0549    0.2950 H   0  0  0  0  0  0  0  0  0  0  0  0
    3.1130   -1.4429    0.2616 H   0  0  0  0  0  0  0  0  0  0  0  0
    2.2469   -2.9097    0.5677 H   0  0  0  0  0  0  0  0  0  0  0  0
    3.9727   -3.8779    2.0210 H   0  0  0  0  0  0  0  0  0  0  0  0
    5.0986   -1.4017    2.6744 H   0  0  0  0  0  0  0  0  0  0  0  0
    5.5721   -1.4023    0.5788 H   0  0  0  0  0  0  0  0  0  0  0  0
    4.1527   -0.4758   -1.1845 H   0  0  0  0  0  0  0  0  0  0  0  0
    5.4168   -0.6089   -2.3383 H   0  0  0  0  0  0  0  0  0  0  0  0
    2.5565   -0.4370   -2.9209 H   0  0  0  0  0  0  0  0  0  0  0  0
    3.9461   -0.1284   -3.9432 H   0  0  0  0  0  0  0  0  0  0  0  0
    2.3434   -2.6080   -3.6670 H   0  0  0  0  0  0  0  0  0  0  0  0
    3.4128   -2.1528   -4.9829 H   0  0  0  0  0  0  0  0  0  0  0  0
    5.3247   -2.9909   -3.8858 H   0  0  0  0  0  0  0  0  0  0  0  0
    4.1475   -4.1625   -3.3459 H   0  0  0  0  0  0  0  0  0  0  0  0
    6.7596   -2.0631   -1.2928 H   0  0  0  0  0  0  0  0  0  0  0  0
    6.5793   -3.6335   -2.0427 H   0  0  0  0  0  0  0  0  0  0  0  0
    2.9203   -3.6160   -1.3958 H   0  0  0  0  0  0  0  0  0  0  0  0
    5.7582   -2.9985    2.8820 H   0  0  0  0  0  0  0  0  0  0  0  0
  2  1  1  1
  1 15  1  0
  2  8  1  0
  2 14  1  0
  2  3  1  0
  3  4  1  0
  3 16  1  0
  3 17  1  0
  4  5  1  0
  4  9  1  0
  4 33  1  6
  5  6  1  0
  5 18  1  0
  5 19  1  0
  6  8  1  0
  6  7  1  0
  6 20  1  1
  7  8  1  0
  7 21  1  0
  7 34  1  0
  8 22  1  6
  9 13  1  0
  9 10  1  0
  9 14  1  0
 10 11  1  0
 10 23  1  0
 10 24  1  0
 11 12  1  0
 11 25  1  0
 11 26  1  0
 12 13  1  0
 12 27  1  0
 12 28  1  0
 13 29  1  0
 13 30  1  0
 14 31  1  0
 14 32  1  0
M  CHG  2   4   1   7   1
M  END
>  <i_m_ct_stereo_status>  (315) 
1

>  <s_m_source_file>  (315) 
/var/tmp/pbs.5076255.sched01/tmpoq50wh_d/842pmd5wfz.sdf

>  <i_m_source_file_index>  (315) 
34

>  <i_lp_mmshare_version>  (315) 
48012

>  <i_f3d_flags>  (315) 
0

>  <s_epik_input>  (315) 
W0NIMl0xW0NASF0oW05IXTIpW0NAQEhdMltDQF0oW09IXSkoW0NIMl0zKVtDSDJdTjFDMzRbQ0gyXVtDSDJdW0NIMl1bQ0gyXTQ=

>  <s_epik_cmdline>  (315) 
J2VwaWtfcHl0aG9uJywgJy1waHQnLCAnMi4wJywgJy1waCcsICc3LjAnLCAnLXRuJywgJzgnLCAnLW1hJywgJzIwMCcsICctaW1hZScsICc8aW5maWxlLm1hZT4nLCAnLW9tYWUnLCAnPG91dGZpbGUubWFlPic=

>  <r_epik_Ionization_Penalty>  (315) 
4.13493

>  <r_epik_Ionization_Penalty_Charging>  (315) 
4.13433

>  <r_epik_Ionization_Penalty_Neutral>  (315) 
0.000591931

>  <r_epik_State_Penalty>  (315) 
2.34081

>  <r_epik_Charging_Adjusted_Penalty>  (315) 
6.47515

>  <i_epik_Tot_Q>  (315) 
2

>  <i_epik_Tot_abs_Q>  (315) 
2

>  <s_lp_Force_Field>  (315) 
OPLS3e

>  <r_lp_Energy>  (315) 
92.3959

>  <b_lp_Chiralities_Consistent>  (315) 
1

>  <s_lp_Variant>  (315) 
88:0-2

>  <s_i_glide_gridfile>  (315) 
pfpi4k_grid

>  <i_i_glide_lignum>  (315) 
34

>  <i_i_glide_rotatable_bonds>  (315) 
1

>  <r_i_docking_score>  (315) 
-4.3671

>  <r_i_glide_ligand_efficiency>  (315) 
-0.311936

>  <r_i_glide_ligand_efficiency_sa>  (315) 
-0.75181

>  <r_i_glide_ligand_efficiency_ln>  (315) 
-1.20006

>  <r_i_glide_gscore>  (315) 
-4.3671

>  <r_i_glide_lipo>  (315) 
-0.515674

>  <r_i_glide_hbond>  (315) 
0

>  <r_i_glide_metal>  (315) 
-0

>  <r_i_glide_rewards>  (315) 
-2.07075

>  <r_i_glide_evdw>  (315) 
-20.8745

>  <r_i_glide_ecoul>  (315) 
-4.91298

>  <r_i_glide_erotb>  (315) 
0

>  <r_i_glide_esite>  (315) 
0

>  <r_i_glide_emodel>  (315) 
-32.9663

>  <r_i_glide_energy>  (315) 
-25.7875

>  <r_i_glide_einternal>  (315) 
0.00403746

>  <r_i_glide_intrahb_reward>  (315) 
-0

>  <i_i_glide_confnum>  (315) 
6

>  <i_i_glide_posenum>  (315) 
5

>  <r_i_glide_eff_state_penalty>  (315) 
0

>  <ligand_id>  (315) 
88

>  <original_smiles>  (315) 
OC12CN(CC3NC31)C1(CCCC1)C2

>  <smiles>  (315) 
[H]OC12C([H])([H])C3(C([H])([H])C([H])([H])C([H])([H])C3([H])[H])[N+]([H])(C1([H])[H])C([H])([H])C1([H])C2([H])[N+]1([H])[H]

$$$$
92:0:0
     RDKit          3D

 44 46  0  0  1  0  0  0  0  0999 V2000
    1.7838   -5.7814    0.6759 O   0  0  0  0  0  0  0  0  0  0  0  0
    2.6680   -6.3984    1.2636 C   0  0  0  0  0  0  0  0  0  0  0  0
    4.1191   -6.0728    0.9592 C   0  0  0  0  0  0  0  0  0  0  0  0
    4.4909   -4.5724    0.7625 C   0  0  2  0  0  0  0  0  0  0  0  0
    3.5073   -3.8341   -0.1746 C   0  0  0  0  0  0  0  0  0  0  0  0
    3.9570   -2.4036   -0.4562 C   0  0  0  0  0  0  0  0  0  0  0  0
    5.3875   -2.3540   -1.0164 C   0  0  0  0  0  0  0  0  0  0  0  0
    6.3376   -3.0397   -0.0835 N   0  0  2  0  0  0  0  0  0  0  0  0
    7.7374   -2.9289   -0.6115 C   0  0  0  0  0  0  0  0  0  0  0  0
    8.7700   -3.5718    0.3289 C   0  0  0  0  0  0  0  0  0  0  0  0
    8.4218   -5.0349    0.5974 C   0  0  0  0  0  0  0  0  0  0  0  0
    6.9969   -5.1125    1.1599 C   0  0  0  0  0  0  0  0  0  0  0  0
    5.9491   -4.4676    0.2157 C   0  0  1  0  0  0  0  0  0  0  0  0
    2.4325   -7.4201    2.1129 N   0  0  0  0  0  0  0  0  0  0  0  0
    1.1482   -7.8523    2.5619 C   0  0  0  0  0  0  0  0  0  0  0  0
    0.9186   -9.2151    2.8202 C   0  0  0  0  0  0  0  0  0  0  0  0
   -0.3671   -9.6032    3.2381 C   0  0  0  0  0  0  0  0  0  0  0  0
   -1.3882   -8.6387    3.3604 C   0  0  0  0  0  0  0  0  0  0  0  0
   -1.1768   -7.3344    3.1021 N   0  0  0  0  0  0  0  0  0  0  0  0
    0.0617   -6.9594    2.7403 C   0  0  0  0  0  0  0  0  0  0  0  0
    4.7105   -6.5041    1.7627 H   0  0  0  0  0  0  0  0  0  0  0  0
    4.3363   -6.6421    0.0563 H   0  0  0  0  0  0  0  0  0  0  0  0
    4.4505   -4.0608    1.7227 H   0  0  0  0  0  0  0  0  0  0  0  0
    3.4437   -4.3590   -1.1284 H   0  0  0  0  0  0  0  0  0  0  0  0
    2.5197   -3.7722    0.2575 H   0  0  0  0  0  0  0  0  0  0  0  0
    3.2816   -1.9606   -1.1848 H   0  0  0  0  0  0  0  0  0  0  0  0
    3.8745   -1.8164    0.4574 H   0  0  0  0  0  0  0  0  0  0  0  0
    5.4217   -2.8375   -1.9958 H   0  0  0  0  0  0  0  0  0  0  0  0
    5.6857   -1.3047   -1.1331 H   0  0  0  0  0  0  0  0  0  0  0  0
    7.7939   -3.3811   -1.6018 H   0  0  0  0  0  0  0  0  0  0  0  0
    7.9761   -1.8679   -0.7067 H   0  0  0  0  0  0  0  0  0  0  0  0
    9.7555   -3.4769   -0.1273 H   0  0  0  0  0  0  0  0  0  0  0  0
    8.8148   -3.0516    1.2737 H   0  0  0  0  0  0  0  0  0  0  0  0
    8.5164   -5.6191   -0.3142 H   0  0  0  0  0  0  0  0  0  0  0  0
    9.1215   -5.4675    1.3186 H   0  0  0  0  0  0  0  0  0  0  0  0
    6.8014   -6.1725    1.2765 H   0  0  0  0  0  0  0  0  0  0  0  0
    6.9541   -4.6547    2.1521 H   0  0  0  0  0  0  0  0  0  0  0  0
    5.9779   -5.0006   -0.7229 H   0  0  0  0  0  0  0  0  0  0  0  0
    3.2018   -8.0177    2.4015 H   0  0  0  0  0  0  0  0  0  0  0  0
    1.7209   -9.9339    2.6999 H   0  0  0  0  0  0  0  0  0  0  0  0
   -0.5652  -10.6363    3.4883 H   0  0  0  0  0  0  0  0  0  0  0  0
   -2.3844   -8.9012    3.6936 H   0  0  0  0  0  0  0  0  0  0  0  0
    0.1268   -5.8870    2.6156 H   0  0  0  0  0  0  0  0  0  0  0  0
    6.3033   -2.5441    0.7917 H   0  0  0  0  0  0  0  0  0  0  0  0
  1  2  2  0
  2  3  1  0
  2 14  1  0
  3  4  1  0
  3 21  1  0
  3 22  1  0
  4 13  1  0
  4  5  1  0
  4 23  1  1
  5  6  1  0
  5 24  1  0
  5 25  1  0
  6  7  1  0
  6 26  1  0
  6 27  1  0
  7  8  1  0
  7 28  1  0
  7 29  1  0
  8 13  1  0
  8  9  1  0
  8 44  1  1
  9 10  1  0
  9 30  1  0
  9 31  1  0
 10 11  1  0
 10 32  1  0
 10 33  1  0
 11 12  1  0
 11 34  1  0
 11 35  1  0
 12 13  1  0
 12 36  1  0
 12 37  1  0
 13 38  1  6
 14 15  1  0
 14 39  1  0
 15 20  1  0
 15 16  2  0
 16 17  1  0
 16 40  1  0
 17 18  2  0
 17 41  1  0
 18 19  1  0
 18 42  1  0
 19 20  2  0
 20 43  1  0
M  CHG  1   8   1
M  END
>  <i_m_ct_stereo_status>  (316) 
1

>  <s_m_source_file>  (316) 
/var/tmp/pbs.5076255.sched01/tmpoq50wh_d/842pmd5wfz.sdf

>  <i_m_source_file_index>  (316) 
38

>  <i_lp_mmshare_version>  (316) 
48012

>  <i_f3d_flags>  (316) 
0

>  <s_epik_input>  (316) 
W2NIXTFuW2NIXVtjSF1bY0hdYzFbTkhdQyg9TylbQ0gyXVtDQEhdKFtDSDJdW0NIMl1bQ0gyXTIpW0NAQEhdKE4yMylbQ0gyXVtDSDJdW0NIMl1bQ0gyXTM=

>  <s_epik_cmdline>  (316) 
J2VwaWtfcHl0aG9uJywgJy1waHQnLCAnMi4wJywgJy1waCcsICc3LjAnLCAnLXRuJywgJzgnLCAnLW1hJywgJzIwMCcsICctaW1hZScsICc8aW5maWxlLm1hZT4nLCAnLW9tYWUnLCAnPG91dGZpbGUubWFlPic=

>  <r_lp_tautomer_probability>  (316) 
1

>  <r_epik_Ionization_Penalty>  (316) 
0.00208854

>  <r_epik_Ionization_Penalty_Charging>  (316) 
0.00048581

>  <r_epik_Ionization_Penalty_Neutral>  (316) 
0.00160273

>  <r_epik_State_Penalty>  (316) 
-0

>  <r_epik_Charging_Adjusted_Penalty>  (316) 
0.00048581

>  <i_epik_Tot_Q>  (316) 
1

>  <i_epik_Tot_abs_Q>  (316) 
1

>  <s_lp_Force_Field>  (316) 
OPLS3e

>  <r_lp_Energy>  (316) 
33.8203

>  <b_lp_Chiralities_Consistent>  (316) 
1

>  <s_lp_Variant>  (316) 
92:0-1

>  <s_i_glide_gridfile>  (316) 
pfpi4k_grid

>  <i_i_glide_lignum>  (316) 
38

>  <i_i_glide_rotatable_bonds>  (316) 
4

>  <r_i_docking_score>  (316) 
-3.43349

>  <r_i_glide_ligand_efficiency>  (316) 
-0.171675

>  <r_i_glide_ligand_efficiency_sa>  (316) 
-0.465997

>  <r_i_glide_ligand_efficiency_ln>  (316) 
-0.85929

>  <r_i_glide_gscore>  (316) 
-3.43349

>  <r_i_glide_lipo>  (316) 
-0.524479

>  <r_i_glide_hbond>  (316) 
-0.151374

>  <r_i_glide_metal>  (316) 
-0

>  <r_i_glide_rewards>  (316) 
-1.53831

>  <r_i_glide_evdw>  (316) 
-23.425

>  <r_i_glide_ecoul>  (316) 
-3.42326

>  <r_i_glide_erotb>  (316) 
0.47701

>  <r_i_glide_esite>  (316) 
-0.0116019

>  <r_i_glide_emodel>  (316) 
-31.7184

>  <r_i_glide_energy>  (316) 
-26.8482

>  <r_i_glide_einternal>  (316) 
4.5146

>  <r_i_glide_intrahb_reward>  (316) 
-0

>  <i_i_glide_confnum>  (316) 
1

>  <i_i_glide_posenum>  (316) 
18

>  <r_i_glide_eff_state_penalty>  (316) 
0

>  <ligand_id>  (316) 
92

>  <original_smiles>  (316) 
O=C(CC1CCCN2CCCCC12)Nc1cccnc1

>  <smiles>  (316) 
[H]c1nc([H])c(N([H])C(=O)C([H])([H])C2([H])C([H])([H])C([H])([H])C([H])([H])[N+]3([H])C([H])([H])C([H])([H])C([H])([H])C([H])([H])C23[H])c([H])c1[H]

$$$$
92:0:1
     RDKit          3D

 44 46  0  0  1  0  0  0  0  0999 V2000
   -1.6039    1.0550    5.8508 O   0  0  0  0  0  0  0  0  0  0  0  0
   -2.0267    2.2054    5.6570 C   0  0  0  0  0  0  0  0  0  0  0  0
   -2.2795    2.6982    4.2275 C   0  0  0  0  0  0  0  0  0  0  0  0
   -1.0454    2.6421    3.2744 C   0  0  2  0  0  0  0  0  0  0  0  0
   -0.6663    1.1894    2.8952 C   0  0  0  0  0  0  0  0  0  0  0  0
    0.5547    1.1486    1.9772 C   0  0  0  0  0  0  0  0  0  0  0  0
    1.7248    1.9229    2.6050 C   0  0  0  0  0  0  0  0  0  0  0  0
    1.3694    3.3264    2.8992 N   0  0  2  0  0  0  0  0  0  0  0  0
    2.5296    4.0858    3.4255 C   0  0  0  0  0  0  0  0  0  0  0  0
    2.1968    5.5649    3.7121 C   0  0  0  0  0  0  0  0  0  0  0  0
    1.0016    5.6905    4.6553 C   0  0  0  0  0  0  0  0  0  0  0  0
   -0.1722    4.9185    4.0683 C   0  0  0  0  0  0  0  0  0  0  0  0
    0.1918    3.4321    3.8034 C   0  0  1  0  0  0  0  0  0  0  0  0
   -2.3209    3.0379    6.6580 N   0  0  0  0  0  0  0  0  0  0  0  0
   -2.0232    2.8035    8.0254 C   0  0  0  0  0  0  0  0  0  0  0  0
   -2.9004    3.2687    9.0205 C   0  0  0  0  0  0  0  0  0  0  0  0
   -2.5787    3.0334   10.3713 C   0  0  0  0  0  0  0  0  0  0  0  0
   -1.3757    2.3442   10.6757 C   0  0  0  0  0  0  0  0  0  0  0  0
   -0.5320    1.8987    9.7281 N   0  0  0  0  0  0  0  0  0  0  0  0
   -0.8357    2.1395    8.4495 C   0  0  0  0  0  0  0  0  0  0  0  0
   -3.0998    2.1333    3.7893 H   0  0  0  0  0  0  0  0  0  0  0  0
   -2.6734    3.7109    4.2640 H   0  0  0  0  0  0  0  0  0  0  0  0
   -1.3514    3.1225    2.3428 H   0  0  0  0  0  0  0  0  0  0  0  0
   -0.4068    0.5889    3.7651 H   0  0  0  0  0  0  0  0  0  0  0  0
   -1.5173    0.6994    2.4088 H   0  0  0  0  0  0  0  0  0  0  0  0
    0.8336    0.1009    1.8537 H   0  0  0  0  0  0  0  0  0  0  0  0
    0.3010    1.5290    0.9838 H   0  0  0  0  0  0  0  0  0  0  0  0
    2.0439    1.4343    3.5316 H   0  0  0  0  0  0  0  0  0  0  0  0
    2.5750    1.8881    1.9302 H   0  0  0  0  0  0  0  0  0  0  0  0
    2.8746    3.6193    4.3507 H   0  0  0  0  0  0  0  0  0  0  0  0
    3.3585    4.0377    2.7215 H   0  0  0  0  0  0  0  0  0  0  0  0
    3.0535    6.0700    4.1629 H   0  0  0  0  0  0  0  0  0  0  0  0
    1.9708    6.0913    2.7832 H   0  0  0  0  0  0  0  0  0  0  0  0
    1.2453    5.2938    5.6452 H   0  0  0  0  0  0  0  0  0  0  0  0
    0.7294    6.7386    4.7981 H   0  0  0  0  0  0  0  0  0  0  0  0
   -0.9736    5.0034    4.8013 H   0  0  0  0  0  0  0  0  0  0  0  0
   -0.5161    5.3999    3.1476 H   0  0  0  0  0  0  0  0  0  0  0  0
    0.5124    2.9876    4.7512 H   0  0  0  0  0  0  0  0  0  0  0  0
   -2.8302    3.8868    6.4370 H   0  0  0  0  0  0  0  0  0  0  0  0
   -3.8162    3.7827    8.7527 H   0  0  0  0  0  0  0  0  0  0  0  0
   -3.2198    3.3528   11.1779 H   0  0  0  0  0  0  0  0  0  0  0  0
   -1.0961    2.1465   11.6951 H   0  0  0  0  0  0  0  0  0  0  0  0
   -0.0921    1.7865    7.7541 H   0  0  0  0  0  0  0  0  0  0  0  0
    1.0704    3.7509    1.9962 H   0  0  0  0  0  0  0  0  0  0  0  0
  1  2  2  0
  2  3  1  0
  2 14  1  0
  3  4  1  0
  3 21  1  0
  3 22  1  0
  4 13  1  0
  4  5  1  0
  4 23  1  6
  5  6  1  0
  5 24  1  0
  5 25  1  0
  6  7  1  0
  6 26  1  0
  6 27  1  0
  7  8  1  0
  7 28  1  0
  7 29  1  0
  8 13  1  0
  8  9  1  0
  8 44  1  6
  9 10  1  0
  9 30  1  0
  9 31  1  0
 10 11  1  0
 10 32  1  0
 10 33  1  0
 11 12  1  0
 11 34  1  0
 11 35  1  0
 12 13  1  0
 12 36  1  0
 12 37  1  0
 13 38  1  1
 14 15  1  0
 14 39  1  0
 15 20  1  0
 15 16  2  0
 16 17  1  0
 16 40  1  0
 17 18  2  0
 17 41  1  0
 18 19  1  0
 18 42  1  0
 19 20  2  0
 20 43  1  0
M  CHG  1   8   1
M  END
>  <i_m_ct_stereo_status>  (317) 
1

>  <s_m_source_file>  (317) 
/var/tmp/pbs.5076255.sched01/tmpoq50wh_d/842pmd5wfz.sdf

>  <i_m_source_file_index>  (317) 
38

>  <i_lp_mmshare_version>  (317) 
48012

>  <i_f3d_flags>  (317) 
0

>  <s_epik_input>  (317) 
W2NIXTFuW2NIXVtjSF1bY0hdYzFbTkhdQyg9TylbQ0gyXVtDQEhdKFtDSDJdW0NIMl1bQ0gyXTIpW0NAQEhdKE4yMylbQ0gyXVtDSDJdW0NIMl1bQ0gyXTM=

>  <s_epik_cmdline>  (317) 
J2VwaWtfcHl0aG9uJywgJy1waHQnLCAnMi4wJywgJy1waCcsICc3LjAnLCAnLXRuJywgJzgnLCAnLW1hJywgJzIwMCcsICctaW1hZScsICc8aW5maWxlLm1hZT4nLCAnLW9tYWUnLCAnPG91dGZpbGUubWFlPic=

>  <r_lp_tautomer_probability>  (317) 
1

>  <r_epik_Ionization_Penalty>  (317) 
0.00208854

>  <r_epik_Ionization_Penalty_Charging>  (317) 
0.00048581

>  <r_epik_Ionization_Penalty_Neutral>  (317) 
0.00160273

>  <r_epik_State_Penalty>  (317) 
-0

>  <r_epik_Charging_Adjusted_Penalty>  (317) 
0.00048581

>  <i_epik_Tot_Q>  (317) 
1

>  <i_epik_Tot_abs_Q>  (317) 
1

>  <s_lp_Force_Field>  (317) 
OPLS3e

>  <r_lp_Energy>  (317) 
33.8203

>  <b_lp_Chiralities_Consistent>  (317) 
1

>  <s_lp_Variant>  (317) 
92:0-1

>  <s_i_glide_gridfile>  (317) 
pfpi4k_grid

>  <i_i_glide_lignum>  (317) 
38

>  <i_i_glide_rotatable_bonds>  (317) 
4

>  <r_i_docking_score>  (317) 
-3.39911

>  <r_i_glide_ligand_efficiency>  (317) 
-0.169955

>  <r_i_glide_ligand_efficiency_sa>  (317) 
-0.46133

>  <r_i_glide_ligand_efficiency_ln>  (317) 
-0.850685

>  <r_i_glide_gscore>  (317) 
-3.39911

>  <r_i_glide_lipo>  (317) 
-0.00371779

>  <r_i_glide_hbond>  (317) 
-0.2

>  <r_i_glide_metal>  (317) 
-0

>  <r_i_glide_rewards>  (317) 
-1.54482

>  <r_i_glide_evdw>  (317) 
-21.6262

>  <r_i_glide_ecoul>  (317) 
-6.33456

>  <r_i_glide_erotb>  (317) 
0.47701

>  <r_i_glide_esite>  (317) 
-0.0960874

>  <r_i_glide_emodel>  (317) 
-33.9167

>  <r_i_glide_energy>  (317) 
-27.9607

>  <r_i_glide_einternal>  (317) 
3.35517

>  <r_i_glide_intrahb_reward>  (317) 
-0

>  <i_i_glide_confnum>  (317) 
3

>  <i_i_glide_posenum>  (317) 
1

>  <r_i_glide_eff_state_penalty>  (317) 
0

>  <ligand_id>  (317) 
92

>  <original_smiles>  (317) 
O=C(CC1CCCN2CCCCC12)Nc1cccnc1

>  <smiles>  (317) 
[H]c1nc([H])c(N([H])C(=O)C([H])([H])C2([H])C([H])([H])C([H])([H])C([H])([H])[N+]3([H])C([H])([H])C([H])([H])C([H])([H])C([H])([H])C23[H])c([H])c1[H]

$$$$
92:0:2
     RDKit          3D

 44 46  0  0  1  0  0  0  0  0999 V2000
    2.6453   -4.7895    3.4783 O   0  0  0  0  0  0  0  0  0  0  0  0
    3.0194   -5.6550    2.6881 C   0  0  0  0  0  0  0  0  0  0  0  0
    4.3309   -5.4501    1.9462 C   0  0  0  0  0  0  0  0  0  0  0  0
    4.2842   -4.2604    0.9480 C   0  0  2  0  0  0  0  0  0  0  0  0
    3.1119   -4.4328   -0.0404 C   0  0  0  0  0  0  0  0  0  0  0  0
    3.0933   -3.3282   -1.0963 C   0  0  0  0  0  0  0  0  0  0  0  0
    4.4415   -3.2465   -1.8218 C   0  0  0  0  0  0  0  0  0  0  0  0
    5.5684   -3.0540   -0.8698 N   0  0  2  0  0  0  0  0  0  0  0  0
    6.8635   -2.9062   -1.5950 C   0  0  0  0  0  0  0  0  0  0  0  0
    8.0457   -2.6542   -0.6356 C   0  0  0  0  0  0  0  0  0  0  0  0
    8.1373   -3.7640    0.4128 C   0  0  0  0  0  0  0  0  0  0  0  0
    6.8056   -3.8757    1.1478 C   0  0  0  0  0  0  0  0  0  0  0  0
    5.6273   -4.1299    0.1744 C   0  0  1  0  0  0  0  0  0  0  0  0
    2.3287   -6.7682    2.3950 N   0  0  0  0  0  0  0  0  0  0  0  0
    1.0572   -7.1140    2.9032 C   0  0  0  0  0  0  0  0  0  0  0  0
    0.1742   -7.8766    2.1097 C   0  0  0  0  0  0  0  0  0  0  0  0
   -1.0819   -8.2338    2.6333 C   0  0  0  0  0  0  0  0  0  0  0  0
   -1.3956   -7.8352    3.9479 C   0  0  0  0  0  0  0  0  0  0  0  0
   -0.5710   -7.0950    4.7077 N   0  0  0  0  0  0  0  0  0  0  0  0
    0.6344   -6.7694    4.2060 C   0  0  0  0  0  0  0  0  0  0  0  0
    5.0748   -5.2879    2.7270 H   0  0  0  0  0  0  0  0  0  0  0  0
    4.6203   -6.3669    1.4269 H   0  0  0  0  0  0  0  0  0  0  0  0
    4.1024   -3.3351    1.5026 H   0  0  0  0  0  0  0  0  0  0  0  0
    3.1958   -5.4095   -0.5148 H   0  0  0  0  0  0  0  0  0  0  0  0
    2.1447   -4.4177    0.4670 H   0  0  0  0  0  0  0  0  0  0  0  0
    2.2959   -3.5384   -1.8136 H   0  0  0  0  0  0  0  0  0  0  0  0
    2.8359   -2.3734   -0.6261 H   0  0  0  0  0  0  0  0  0  0  0  0
    4.6017   -4.1537   -2.4069 H   0  0  0  0  0  0  0  0  0  0  0  0
    4.4091   -2.4114   -2.5201 H   0  0  0  0  0  0  0  0  0  0  0  0
    7.0576   -3.7984   -2.1922 H   0  0  0  0  0  0  0  0  0  0  0  0
    6.7852   -2.0777   -2.2926 H   0  0  0  0  0  0  0  0  0  0  0  0
    8.9853   -2.6191   -1.1887 H   0  0  0  0  0  0  0  0  0  0  0  0
    7.9459   -1.6933   -0.1205 H   0  0  0  0  0  0  0  0  0  0  0  0
    8.3739   -4.7168   -0.0619 H   0  0  0  0  0  0  0  0  0  0  0  0
    8.9388   -3.5606    1.1261 H   0  0  0  0  0  0  0  0  0  0  0  0
    6.9250   -4.7017    1.8459 H   0  0  0  0  0  0  0  0  0  0  0  0
    6.6211   -2.9725    1.7393 H   0  0  0  0  0  0  0  0  0  0  0  0
    5.8050   -5.0709   -0.3515 H   0  0  0  0  0  0  0  0  0  0  0  0
    2.7194   -7.3703    1.6835 H   0  0  0  0  0  0  0  0  0  0  0  0
    0.4606   -8.1832    1.1149 H   0  0  0  0  0  0  0  0  0  0  0  0
   -1.7826   -8.8285    2.0648 H   0  0  0  0  0  0  0  0  0  0  0  0
   -2.3359   -8.1094    4.3939 H   0  0  0  0  0  0  0  0  0  0  0  0
    1.2686   -6.2359    4.8983 H   0  0  0  0  0  0  0  0  0  0  0  0
    5.3872   -2.1854   -0.3810 H   0  0  0  0  0  0  0  0  0  0  0  0
  1  2  2  0
  2  3  1  0
  2 14  1  0
  3  4  1  0
  3 21  1  0
  3 22  1  0
  4 13  1  0
  4  5  1  0
  4 23  1  1
  5  6  1  0
  5 24  1  0
  5 25  1  0
  6  7  1  0
  6 26  1  0
  6 27  1  0
  7  8  1  0
  7 28  1  0
  7 29  1  0
  8 13  1  0
  8  9  1  0
  8 44  1  1
  9 10  1  0
  9 30  1  0
  9 31  1  0
 10 11  1  0
 10 32  1  0
 10 33  1  0
 11 12  1  0
 11 34  1  0
 11 35  1  0
 12 13  1  0
 12 36  1  0
 12 37  1  0
 13 38  1  6
 14 15  1  0
 14 39  1  0
 15 20  1  0
 15 16  2  0
 16 17  1  0
 16 40  1  0
 17 18  2  0
 17 41  1  0
 18 19  1  0
 18 42  1  0
 19 20  2  0
 20 43  1  0
M  CHG  1   8   1
M  END
>  <i_m_ct_stereo_status>  (318) 
1

>  <s_m_source_file>  (318) 
/var/tmp/pbs.5076255.sched01/tmpoq50wh_d/842pmd5wfz.sdf

>  <i_m_source_file_index>  (318) 
38

>  <i_lp_mmshare_version>  (318) 
48012

>  <i_f3d_flags>  (318) 
0

>  <s_epik_input>  (318) 
W2NIXTFuW2NIXVtjSF1bY0hdYzFbTkhdQyg9TylbQ0gyXVtDQEhdKFtDSDJdW0NIMl1bQ0gyXTIpW0NAQEhdKE4yMylbQ0gyXVtDSDJdW0NIMl1bQ0gyXTM=

>  <s_epik_cmdline>  (318) 
J2VwaWtfcHl0aG9uJywgJy1waHQnLCAnMi4wJywgJy1waCcsICc3LjAnLCAnLXRuJywgJzgnLCAnLW1hJywgJzIwMCcsICctaW1hZScsICc8aW5maWxlLm1hZT4nLCAnLW9tYWUnLCAnPG91dGZpbGUubWFlPic=

>  <r_lp_tautomer_probability>  (318) 
1

>  <r_epik_Ionization_Penalty>  (318) 
0.00208854

>  <r_epik_Ionization_Penalty_Charging>  (318) 
0.00048581

>  <r_epik_Ionization_Penalty_Neutral>  (318) 
0.00160273

>  <r_epik_State_Penalty>  (318) 
-0

>  <r_epik_Charging_Adjusted_Penalty>  (318) 
0.00048581

>  <i_epik_Tot_Q>  (318) 
1

>  <i_epik_Tot_abs_Q>  (318) 
1

>  <s_lp_Force_Field>  (318) 
OPLS3e

>  <r_lp_Energy>  (318) 
33.8203

>  <b_lp_Chiralities_Consistent>  (318) 
1

>  <s_lp_Variant>  (318) 
92:0-1

>  <s_i_glide_gridfile>  (318) 
pfpi4k_grid

>  <i_i_glide_lignum>  (318) 
38

>  <i_i_glide_rotatable_bonds>  (318) 
4

>  <r_i_docking_score>  (318) 
-3.00312

>  <r_i_glide_ligand_efficiency>  (318) 
-0.150156

>  <r_i_glide_ligand_efficiency_sa>  (318) 
-0.407586

>  <r_i_glide_ligand_efficiency_ln>  (318) 
-0.751581

>  <r_i_glide_gscore>  (318) 
-3.00312

>  <r_i_glide_lipo>  (318) 
-0.502129

>  <r_i_glide_hbond>  (318) 
0

>  <r_i_glide_metal>  (318) 
-0

>  <r_i_glide_rewards>  (318) 
-1.53831

>  <r_i_glide_evdw>  (318) 
-21.2266

>  <r_i_glide_ecoul>  (318) 
-2.45689

>  <r_i_glide_erotb>  (318) 
0.47701

>  <r_i_glide_esite>  (318) 
-0.00982651

>  <r_i_glide_emodel>  (318) 
-28.1242

>  <r_i_glide_energy>  (318) 
-23.6835

>  <r_i_glide_einternal>  (318) 
4.75233

>  <r_i_glide_intrahb_reward>  (318) 
-0

>  <i_i_glide_confnum>  (318) 
3

>  <i_i_glide_posenum>  (318) 
12

>  <r_i_glide_eff_state_penalty>  (318) 
0

>  <ligand_id>  (318) 
92

>  <original_smiles>  (318) 
O=C(CC1CCCN2CCCCC12)Nc1cccnc1

>  <smiles>  (318) 
[H]c1nc([H])c(N([H])C(=O)C([H])([H])C2([H])C([H])([H])C([H])([H])C([H])([H])[N+]3([H])C([H])([H])C([H])([H])C([H])([H])C([H])([H])C23[H])c([H])c1[H]

$$$$
93:1:0
     RDKit          3D

 68 72  0  0  1  0  0  0  0  0999 V2000
    2.3428    5.4981    6.3909 C   0  0  0  0  0  0  0  0  0  0  0  0
    1.5636    4.4082    6.4097 C   0  0  0  0  0  0  0  0  0  0  0  0
    0.1327    4.3473    6.0768 C   0  0  0  0  0  0  0  0  0  0  0  0
   -0.5755    5.2956    5.6669 O   0  0  0  0  0  0  0  0  0  0  0  0
   -0.4232    2.9294    6.3283 C   0  0  1  0  0  0  0  0  0  0  0  0
   -1.8996    3.0617    6.8565 C   0  0  0  0  0  0  0  0  0  0  0  0
   -0.3688    2.2332    4.8720 C   0  0  1  0  0  0  0  0  0  0  0  0
    0.7266    2.0745    3.7587 C   0  0  2  0  0  0  0  0  0  0  0  0
    1.9096    3.0218    3.4469 C   0  0  0  0  0  0  0  0  0  0  0  0
   -0.1372    2.0936    2.4667 C   0  0  0  0  0  0  0  0  0  0  0  0
   -1.1582    1.0613    2.8567 C   0  0  0  0  0  0  0  0  0  0  0  0
   -0.6808    0.8121    4.2919 C   0  0  2  0  0  0  0  0  0  0  0  0
   -1.6669   -0.1404    4.9616 C   0  0  0  0  0  0  0  0  0  0  0  0
   -1.7039    0.0272    6.3625 O   0  0  0  0  0  0  0  0  0  0  0  0
    0.8822    0.5339    4.1823 C   0  0  1  0  0  0  0  0  0  0  0  0
    1.4218   -0.3549    3.0222 C   0  0  0  0  0  0  0  0  0  0  0  0
    1.5012   -0.1449    5.4842 C   0  0  1  0  0  0  0  0  0  0  0  0
    1.4429   -1.5828    5.3279 O   0  0  0  0  0  0  0  0  0  0  0  0
    0.7634   -2.4062    6.1701 C   0  0  0  0  0  0  0  0  0  0  0  0
    0.7987   -3.8518    5.6722 C   0  0  0  0  0  0  0  0  0  0  0  0
    0.2081   -2.0948    7.2089 O   0  0  0  0  0  0  0  0  0  0  0  0
    2.9289    0.2169    6.0782 C   0  0  1  0  0  0  0  0  0  0  0  0
    3.8171    0.7673    5.1138 O   0  0  0  0  0  0  0  0  0  0  0  0
    3.0465    0.9563    7.4823 C   0  0  2  0  0  0  0  0  0  0  0  0
    4.2992    0.4142    8.2030 C   0  0  0  0  0  0  0  0  0  0  0  0
    1.8069    0.6321    8.3723 C   0  0  0  0  0  0  0  0  0  0  0  0
    0.5651    1.1454    7.8607 O   0  0  0  0  0  0  0  0  0  0  0  0
    0.5539    2.5251    7.4917 C   0  0  2  0  0  0  0  0  0  0  0  0
    0.2558    3.2286    8.8521 C   0  0  0  0  0  0  0  0  0  0  0  0
    1.8558    2.9954    6.8524 C   0  0  2  0  0  0  0  0  0  0  0  0
    3.1816    2.5123    7.4030 C   0  0  1  0  0  0  0  0  0  0  0  0
    3.4737    3.1464    8.6414 O   0  0  0  0  0  0  0  0  0  0  0  0
    3.3808    5.4780    6.6782 H   0  0  0  0  0  0  0  0  0  0  0  0
    1.9468    6.4482    6.0733 H   0  0  0  0  0  0  0  0  0  0  0  0
   -2.2452    2.2300    7.4832 H   0  0  0  0  0  0  0  0  0  0  0  0
   -2.6120    3.1587    6.0398 H   0  0  0  0  0  0  0  0  0  0  0  0
   -2.0540    3.9671    7.4695 H   0  0  0  0  0  0  0  0  0  0  0  0
   -1.1091    2.8752    4.4227 H   0  0  0  0  0  0  0  0  0  0  0  0
    2.3077    2.8669    2.4336 H   0  0  0  0  0  0  0  0  0  0  0  0
    2.7633    2.8913    4.1075 H   0  0  0  0  0  0  0  0  0  0  0  0
    1.6032    4.0686    3.4878 H   0  0  0  0  0  0  0  0  0  0  0  0
   -0.6530    3.0337    2.3146 H   0  0  0  0  0  0  0  0  0  0  0  0
    0.3926    1.8679    1.5300 H   0  0  0  0  0  0  0  0  0  0  0  0
   -2.1572    1.4941    2.8141 H   0  0  0  0  0  0  0  0  0  0  0  0
   -1.1089    0.1835    2.2199 H   0  0  0  0  0  0  0  0  0  0  0  0
   -2.6811    0.0550    4.6172 H   0  0  0  0  0  0  0  0  0  0  0  0
   -1.4269   -1.1604    4.6541 H   0  0  0  0  0  0  0  0  0  0  0  0
   -0.8152    0.2167    6.6646 H   0  0  0  0  0  0  0  0  0  0  0  0
    2.4661   -0.6181    3.1787 H   0  0  0  0  0  0  0  0  0  0  0  0
    1.3890    0.1141    2.0489 H   0  0  0  0  0  0  0  0  0  0  0  0
    0.8310   -1.2640    2.9520 H   0  0  0  0  0  0  0  0  0  0  0  0
    0.7514   -0.0252    6.2223 H   0  0  0  0  0  0  0  0  0  0  0  0
    1.7957   -4.2548    5.8369 H   0  0  0  0  0  0  0  0  0  0  0  0
    0.5373   -3.9333    4.6180 H   0  0  0  0  0  0  0  0  0  0  0  0
    0.0837   -4.4381    6.2492 H   0  0  0  0  0  0  0  0  0  0  0  0
    3.3639   -0.7599    6.2697 H   0  0  0  0  0  0  0  0  0  0  0  0
    3.4390    1.5464    4.7516 H   0  0  0  0  0  0  0  0  0  0  0  0
    4.4005    0.8424    9.2017 H   0  0  0  0  0  0  0  0  0  0  0  0
    5.2039    0.6585    7.6415 H   0  0  0  0  0  0  0  0  0  0  0  0
    4.2530   -0.6671    8.3259 H   0  0  0  0  0  0  0  0  0  0  0  0
    1.7147   -0.4473    8.4986 H   0  0  0  0  0  0  0  0  0  0  0  0
    1.9520    1.0281    9.3786 H   0  0  0  0  0  0  0  0  0  0  0  0
    0.1380    4.3053    8.7448 H   0  0  0  0  0  0  0  0  0  0  0  0
    1.0469    3.0707    9.5762 H   0  0  0  0  0  0  0  0  0  0  0  0
   -0.6587    2.8358    9.2852 H   0  0  0  0  0  0  0  0  0  0  0  0
    1.9041    2.4859    5.9186 H   0  0  0  0  0  0  0  0  0  0  0  0
    3.9842    2.7915    6.7186 H   0  0  0  0  0  0  0  0  0  0  0  0
    2.7522    3.0110    9.2262 H   0  0  0  0  0  0  0  0  0  0  0  0
  1  2  2  0
  1 33  1  0
  1 34  1  0
  2 30  1  0
  2  3  1  0
  3  4  2  0
  3  5  1  0
  5 28  1  0
  5  6  1  1
  5  7  1  0
  6 35  1  0
  6 36  1  0
  6 37  1  0
  7 12  1  0
  7  8  1  0
  7 38  1  6
  8 15  1  0
  8  9  1  6
  8 10  1  0
  9 39  1  0
  9 40  1  0
  9 41  1  0
 10 11  1  0
 10 42  1  0
 10 43  1  0
 11 12  1  0
 11 44  1  0
 11 45  1  0
 12 13  1  1
 12 15  1  0
 13 14  1  0
 13 46  1  0
 13 47  1  0
 14 48  1  0
 15 16  1  6
 15 17  1  0
 16 49  1  0
 16 50  1  0
 16 51  1  0
 17 18  1  0
 17 22  1  0
 17 52  1  1
 18 19  1  0
 19 20  1  0
 19 21  2  0
 20 53  1  0
 20 54  1  0
 20 55  1  0
 22 23  1  0
 22 24  1  0
 22 56  1  1
 23 57  1  0
 24 31  1  0
 24 25  1  1
 24 26  1  0
 25 58  1  0
 25 59  1  0
 25 60  1  0
 26 27  1  0
 26 61  1  0
 26 62  1  0
 27 28  1  0
 28 29  1  1
 28 30  1  0
 29 63  1  0
 29 64  1  0
 29 65  1  0
 30 31  1  0
 30 66  1  6
 31 32  1  0
 31 67  1  6
 32 68  1  0
M  END
>  <i_m_ct_stereo_status>  (319) 
1

>  <s_m_source_file>  (319) 
/var/tmp/pbs.5076255.sched01/tmpoq50wh_d/842pmd5wfz.sdf

>  <i_m_source_file_index>  (319) 
40

>  <i_lp_mmshare_version>  (319) 
48012

>  <i_f3d_flags>  (319) 
0

>  <s_epik_input>  (319) 
Tz1DMUMoPVtDSDJdKVtDQEBIXShbQ0BIXTJbT0hdKVtDQF0zKFtDSDNdKU9bQ0gyXVtDQEBdMihbQ0gzXSlbQ0BIXShbT0hdKVtDQEhdKE9DKD1PKVtDSDNdKVtDQF0oW0NIM10pKFtDQEBdNChbQ0gyXVtDSDJdNSlbQ0gyXVtPSF0pW0NAXTUoW0NIM10pW0NASF00W0NAXTEzW0NIM10=

>  <s_epik_cmdline>  (319) 
J2VwaWtfcHl0aG9uJywgJy1waHQnLCAnMi4wJywgJy1waCcsICc3LjAnLCAnLXRuJywgJzgnLCAnLW1hJywgJzIwMCcsICctaW1hZScsICc8aW5maWxlLm1hZT4nLCAnLW9tYWUnLCAnPG91dGZpbGUubWFlPic=

>  <r_lp_tautomer_probability>  (319) 
1

>  <r_epik_Ionization_Penalty>  (319) 
9.1433e-07

>  <r_epik_Ionization_Penalty_Charging>  (319) 
0

>  <r_epik_Ionization_Penalty_Neutral>  (319) 
9.1433e-07

>  <r_epik_State_Penalty>  (319) 
-0

>  <r_epik_Charging_Adjusted_Penalty>  (319) 
0

>  <i_epik_Tot_Q>  (319) 
0

>  <i_epik_Tot_abs_Q>  (319) 
0

>  <s_epik_Chemistry_Notes>  (319) 
This compound has an ester and may undergo hydrolysis at high or low pH.

>  <s_lp_Force_Field>  (319) 
OPLS3e

>  <r_lp_Energy>  (319) 
133.823

>  <b_lp_Chiralities_Consistent>  (319) 
1

>  <s_lp_Variant>  (319) 
93:0-2

>  <s_i_glide_gridfile>  (319) 
pfpi4k_grid

>  <i_i_glide_lignum>  (319) 
40

>  <i_i_glide_rotatable_bonds>  (319) 
6

>  <r_i_docking_score>  (319) 
-2.67721

>  <r_i_glide_ligand_efficiency>  (319) 
-0.0836629

>  <r_i_glide_ligand_efficiency_sa>  (319) 
-0.265613

>  <r_i_glide_ligand_efficiency_ln>  (319) 
-0.599501

>  <r_i_glide_gscore>  (319) 
-2.67721

>  <r_i_glide_lipo>  (319) 
-0.0592374

>  <r_i_glide_hbond>  (319) 
0

>  <r_i_glide_metal>  (319) 
-0

>  <r_i_glide_rewards>  (319) 
-0.850801

>  <r_i_glide_evdw>  (319) 
-14.5664

>  <r_i_glide_ecoul>  (319) 
-8.18257

>  <r_i_glide_erotb>  (319) 
0.199146

>  <r_i_glide_esite>  (319) 
-0.0106149

>  <r_i_glide_emodel>  (319) 
-30.1668

>  <r_i_glide_energy>  (319) 
-22.7489

>  <r_i_glide_einternal>  (319) 
3.48588

>  <r_i_glide_intrahb_reward>  (319) 
-0.5

>  <i_i_glide_confnum>  (319) 
6

>  <i_i_glide_posenum>  (319) 
12

>  <r_i_glide_eff_state_penalty>  (319) 
0

>  <ligand_id>  (319) 
93

>  <original_smiles>  (319) 
C=C1C(=O)C2(C)C3C4(C)CCC3(CO)C4(C)C(OC(C)=O)C(O)C3(C)COC2(C)C1C3O

>  <smiles>  (319) 
[H]OC([H])([H])C12C([H])([H])C([H])([H])C3(C([H])([H])[H])C1([H])C1(C([H])([H])[H])C(=O)C(=C([H])[H])C4([H])C([H])(O[H])C(C([H])([H])[H])(C([H])([H])OC41C([H])([H])[H])C([H])(O[H])C([H])(OC(=O)C([H])([H])[H])C32C([H])([H])[H]

$$$$
93:1:1
     RDKit          3D

 68 72  0  0  1  0  0  0  0  0999 V2000
    1.1853    5.6296    8.3906 C   0  0  0  0  0  0  0  0  0  0  0  0
    0.6694    4.4409    8.0013 C   0  0  0  0  0  0  0  0  0  0  0  0
   -0.7706    4.1458    7.8712 C   0  0  0  0  0  0  0  0  0  0  0  0
   -1.6927    4.9259    8.0831 O   0  0  0  0  0  0  0  0  0  0  0  0
   -0.9556    2.6449    7.4538 C   0  0  1  0  0  0  0  0  0  0  0  0
   -2.2410    2.0935    8.1499 C   0  0  0  0  0  0  0  0  0  0  0  0
   -1.1068    2.6934    5.8506 C   0  0  1  0  0  0  0  0  0  0  0  0
   -0.2789    3.3253    4.6601 C   0  0  2  0  0  0  0  0  0  0  0  0
    0.6075    4.6041    4.7167 C   0  0  0  0  0  0  0  0  0  0  0  0
   -1.3937    3.6653    3.6372 C   0  0  0  0  0  0  0  0  0  0  0  0
   -2.0943    2.2988    3.6350 C   0  0  0  0  0  0  0  0  0  0  0  0
   -1.2519    1.5982    4.7106 C   0  0  2  0  0  0  0  0  0  0  0  0
   -1.8161    0.1622    4.9961 C   0  0  0  0  0  0  0  0  0  0  0  0
   -1.5878   -0.1771    6.3592 O   0  0  0  0  0  0  0  0  0  0  0  0
    0.2692    1.8601    4.3150 C   0  0  1  0  0  0  0  0  0  0  0  0
    0.6867    1.7303    2.8166 C   0  0  0  0  0  0  0  0  0  0  0  0
    1.2857    0.8933    5.0575 C   0  0  1  0  0  0  0  0  0  0  0  0
    1.4925   -0.2966    4.2621 O   0  0  0  0  0  0  0  0  0  0  0  0
    0.9815   -1.4840    4.5828 C   0  0  0  0  0  0  0  0  0  0  0  0
    1.2850   -2.5449    3.5043 C   0  0  0  0  0  0  0  0  0  0  0  0
    0.3174   -1.6914    5.5945 O   0  0  0  0  0  0  0  0  0  0  0  0
    2.7158    1.3516    5.5936 C   0  0  1  0  0  0  0  0  0  0  0  0
    3.2225    2.4760    4.9001 O   0  0  0  0  0  0  0  0  0  0  0  0
    3.0193    1.4319    7.1594 C   0  0  2  0  0  0  0  0  0  0  0  0
    4.4954    1.0309    7.3982 C   0  0  0  0  0  0  0  0  0  0  0  0
    2.1174    0.4410    7.9439 C   0  0  0  0  0  0  0  0  0  0  0  0
    0.7114    0.7539    7.8742 O   0  0  0  0  0  0  0  0  0  0  0  0
    0.3528    2.0870    8.1819 C   0  0  2  0  0  0  0  0  0  0  0  0
    0.2360    2.0472    9.7417 C   0  0  0  0  0  0  0  0  0  0  0  0
    1.3366    3.1398    7.6808 C   0  0  2  0  0  0  0  0  0  0  0  0
    2.8179    2.8567    7.7809 C   0  0  1  0  0  0  0  0  0  0  0  0
    3.2379    2.9852    9.1350 O   0  0  0  0  0  0  0  0  0  0  0  0
    2.2471    5.7873    8.5064 H   0  0  0  0  0  0  0  0  0  0  0  0
    0.5327    6.4571    8.6290 H   0  0  0  0  0  0  0  0  0  0  0  0
   -2.1843    1.0056    8.2432 H   0  0  0  0  0  0  0  0  0  0  0  0
   -3.1374    2.3444    7.5664 H   0  0  0  0  0  0  0  0  0  0  0  0
   -2.4241    2.5375    9.1517 H   0  0  0  0  0  0  0  0  0  0  0  0
   -2.0564    3.2499    5.8392 H   0  0  0  0  0  0  0  0  0  0  0  0
    0.7910    4.9974    3.7095 H   0  0  0  0  0  0  0  0  0  0  0  0
    1.5894    4.4180    5.1288 H   0  0  0  0  0  0  0  0  0  0  0  0
    0.1315    5.4042    5.2904 H   0  0  0  0  0  0  0  0  0  0  0  0
   -2.0768    4.4561    3.9726 H   0  0  0  0  0  0  0  0  0  0  0  0
   -1.0482    3.9696    2.6476 H   0  0  0  0  0  0  0  0  0  0  0  0
   -3.1570    2.3828    3.8766 H   0  0  0  0  0  0  0  0  0  0  0  0
   -2.0033    1.7911    2.6789 H   0  0  0  0  0  0  0  0  0  0  0  0
   -2.8990    0.1306    4.9406 H   0  0  0  0  0  0  0  0  0  0  0  0
   -1.3106   -0.5820    4.3824 H   0  0  0  0  0  0  0  0  0  0  0  0
   -0.6341   -0.0832    6.4613 H   0  0  0  0  0  0  0  0  0  0  0  0
    1.7678    1.7349    2.7012 H   0  0  0  0  0  0  0  0  0  0  0  0
    0.3412    2.5330    2.1768 H   0  0  0  0  0  0  0  0  0  0  0  0
    0.2988    0.8111    2.3907 H   0  0  0  0  0  0  0  0  0  0  0  0
    0.7207    0.4806    5.8588 H   0  0  0  0  0  0  0  0  0  0  0  0
    2.3521   -2.8453    3.5047 H   0  0  0  0  0  0  0  0  0  0  0  0
    1.0521   -2.1760    2.4834 H   0  0  0  0  0  0  0  0  0  0  0  0
    0.6956   -3.4396    3.6508 H   0  0  0  0  0  0  0  0  0  0  0  0
    3.3709    0.5528    5.2573 H   0  0  0  0  0  0  0  0  0  0  0  0
    3.1830    2.3030    3.9737 H   0  0  0  0  0  0  0  0  0  0  0  0
    4.7335    1.0096    8.4652 H   0  0  0  0  0  0  0  0  0  0  0  0
    5.1899    1.7261    6.9268 H   0  0  0  0  0  0  0  0  0  0  0  0
    4.7009    0.0318    7.0196 H   0  0  0  0  0  0  0  0  0  0  0  0
    2.2692   -0.5683    7.5618 H   0  0  0  0  0  0  0  0  0  0  0  0
    2.4222    0.4065    8.9921 H   0  0  0  0  0  0  0  0  0  0  0  0
   -0.1155    2.9802   10.1721 H   0  0  0  0  0  0  0  0  0  0  0  0
    1.1993    1.8340   10.2020 H   0  0  0  0  0  0  0  0  0  0  0  0
   -0.4516    1.2578   10.0532 H   0  0  0  0  0  0  0  0  0  0  0  0
    1.2552    3.0902    6.6189 H   0  0  0  0  0  0  0  0  0  0  0  0
    3.3669    3.6119    7.2138 H   0  0  0  0  0  0  0  0  0  0  0  0
    3.0269    3.8529    9.4414 H   0  0  0  0  0  0  0  0  0  0  0  0
  1  2  2  0
  1 33  1  0
  1 34  1  0
  2 30  1  0
  2  3  1  0
  3  4  2  0
  3  5  1  0
  5 28  1  0
  5  6  1  1
  5  7  1  0
  6 35  1  0
  6 36  1  0
  6 37  1  0
  7 12  1  0
  7  8  1  0
  7 38  1  1
  8 15  1  0
  8  9  1  1
  8 10  1  0
  9 39  1  0
  9 40  1  0
  9 41  1  0
 10 11  1  0
 10 42  1  0
 10 43  1  0
 11 12  1  0
 11 44  1  0
 11 45  1  0
 12 13  1  1
 12 15  1  0
 13 14  1  0
 13 46  1  0
 13 47  1  0
 14 48  1  0
 15 16  1  6
 15 17  1  0
 16 49  1  0
 16 50  1  0
 16 51  1  0
 17 18  1  0
 17 22  1  0
 17 52  1  1
 18 19  1  0
 19 20  1  0
 19 21  2  0
 20 53  1  0
 20 54  1  0
 20 55  1  0
 22 23  1  0
 22 24  1  0
 22 56  1  6
 23 57  1  0
 24 31  1  0
 24 25  1  6
 24 26  1  0
 25 58  1  0
 25 59  1  0
 25 60  1  0
 26 27  1  0
 26 61  1  0
 26 62  1  0
 27 28  1  0
 28 29  1  1
 28 30  1  0
 29 63  1  0
 29 64  1  0
 29 65  1  0
 30 31  1  0
 30 66  1  6
 31 32  1  0
 31 67  1  6
 32 68  1  0
M  END
>  <i_m_ct_stereo_status>  (320) 
1

>  <s_m_source_file>  (320) 
/var/tmp/pbs.5076255.sched01/tmpoq50wh_d/842pmd5wfz.sdf

>  <i_m_source_file_index>  (320) 
40

>  <i_lp_mmshare_version>  (320) 
48012

>  <i_f3d_flags>  (320) 
0

>  <s_epik_input>  (320) 
Tz1DMUMoPVtDSDJdKVtDQEBIXShbQ0BIXTJbT0hdKVtDQF0zKFtDSDNdKU9bQ0gyXVtDQEBdMihbQ0gzXSlbQ0BIXShbT0hdKVtDQEhdKE9DKD1PKVtDSDNdKVtDQF0oW0NIM10pKFtDQEBdNChbQ0gyXVtDSDJdNSlbQ0gyXVtPSF0pW0NAXTUoW0NIM10pW0NASF00W0NAXTEzW0NIM10=

>  <s_epik_cmdline>  (320) 
J2VwaWtfcHl0aG9uJywgJy1waHQnLCAnMi4wJywgJy1waCcsICc3LjAnLCAnLXRuJywgJzgnLCAnLW1hJywgJzIwMCcsICctaW1hZScsICc8aW5maWxlLm1hZT4nLCAnLW9tYWUnLCAnPG91dGZpbGUubWFlPic=

>  <r_lp_tautomer_probability>  (320) 
1

>  <r_epik_Ionization_Penalty>  (320) 
9.1433e-07

>  <r_epik_Ionization_Penalty_Charging>  (320) 
0

>  <r_epik_Ionization_Penalty_Neutral>  (320) 
9.1433e-07

>  <r_epik_State_Penalty>  (320) 
-0

>  <r_epik_Charging_Adjusted_Penalty>  (320) 
0

>  <i_epik_Tot_Q>  (320) 
0

>  <i_epik_Tot_abs_Q>  (320) 
0

>  <s_epik_Chemistry_Notes>  (320) 
This compound has an ester and may undergo hydrolysis at high or low pH.

>  <s_lp_Force_Field>  (320) 
OPLS3e

>  <r_lp_Energy>  (320) 
133.823

>  <b_lp_Chiralities_Consistent>  (320) 
1

>  <s_lp_Variant>  (320) 
93:0-2

>  <s_i_glide_gridfile>  (320) 
pfpi4k_grid

>  <i_i_glide_lignum>  (320) 
40

>  <i_i_glide_rotatable_bonds>  (320) 
6

>  <r_i_docking_score>  (320) 
-2.59548

>  <r_i_glide_ligand_efficiency>  (320) 
-0.0811087

>  <r_i_glide_ligand_efficiency_sa>  (320) 
-0.257504

>  <r_i_glide_ligand_efficiency_ln>  (320) 
-0.581199

>  <r_i_glide_gscore>  (320) 
-2.59548

>  <r_i_glide_lipo>  (320) 
-0.0605057

>  <r_i_glide_hbond>  (320) 
0

>  <r_i_glide_metal>  (320) 
-0

>  <r_i_glide_rewards>  (320) 
-0.850801

>  <r_i_glide_evdw>  (320) 
-14.9878

>  <r_i_glide_ecoul>  (320) 
-7.55001

>  <r_i_glide_erotb>  (320) 
0.199146

>  <r_i_glide_esite>  (320) 
-0.00142757

>  <r_i_glide_emodel>  (320) 
-27.5831

>  <r_i_glide_energy>  (320) 
-22.5378

>  <r_i_glide_einternal>  (320) 
4.43511

>  <r_i_glide_intrahb_reward>  (320) 
-0.5

>  <i_i_glide_confnum>  (320) 
3

>  <i_i_glide_posenum>  (320) 
24

>  <r_i_glide_eff_state_penalty>  (320) 
0

>  <ligand_id>  (320) 
93

>  <original_smiles>  (320) 
C=C1C(=O)C2(C)C3C4(C)CCC3(CO)C4(C)C(OC(C)=O)C(O)C3(C)COC2(C)C1C3O

>  <smiles>  (320) 
[H]OC([H])([H])C12C([H])([H])C([H])([H])C3(C([H])([H])[H])C1([H])C1(C([H])([H])[H])C(=O)C(=C([H])[H])C4([H])C([H])(O[H])C(C([H])([H])[H])(C([H])([H])OC41C([H])([H])[H])C([H])(O[H])C([H])(OC(=O)C([H])([H])[H])C32C([H])([H])[H]

$$$$
93:1:2
     RDKit          3D

 68 72  0  0  1  0  0  0  0  0999 V2000
    1.2362    1.7990    9.4517 C   0  0  0  0  0  0  0  0  0  0  0  0
    1.1278    1.2085    8.2595 C   0  0  0  0  0  0  0  0  0  0  0  0
   -0.1173    0.7941    7.5848 C   0  0  0  0  0  0  0  0  0  0  0  0
   -1.2770    0.9627    8.0091 O   0  0  0  0  0  0  0  0  0  0  0  0
    0.1960    0.0659    6.2544 C   0  0  1  0  0  0  0  0  0  0  0  0
   -0.8584   -1.0574    6.0089 C   0  0  0  0  0  0  0  0  0  0  0  0
    0.0773    1.2127    5.1497 C   0  0  1  0  0  0  0  0  0  0  0  0
    0.6419    2.6658    4.9680 C   0  0  2  0  0  0  0  0  0  0  0  0
    1.0564    3.6578    6.0816 C   0  0  0  0  0  0  0  0  0  0  0  0
   -0.5085    3.3797    4.2052 C   0  0  0  0  0  0  0  0  0  0  0  0
   -0.7190    2.3264    3.1205 C   0  0  0  0  0  0  0  0  0  0  0  0
    0.3082    1.2974    3.6061 C   0  0  2  0  0  0  0  0  0  0  0  0
    0.2440    0.0707    2.6808 C   0  0  0  0  0  0  0  0  0  0  0  0
    0.7150   -1.1452    3.2311 O   0  0  0  0  0  0  0  0  0  0  0  0
    1.6540    2.0857    3.8735 C   0  0  1  0  0  0  0  0  0  0  0  0
    2.1036    3.1518    2.8380 C   0  0  0  0  0  0  0  0  0  0  0  0
    2.9016    1.1129    3.9900 C   0  0  1  0  0  0  0  0  0  0  0  0
    3.4435    0.9400    2.6718 O   0  0  0  0  0  0  0  0  0  0  0  0
    3.8363   -0.2532    2.1687 C   0  0  0  0  0  0  0  0  0  0  0  0
    4.5130   -0.1242    0.8082 C   0  0  0  0  0  0  0  0  0  0  0  0
    3.7037   -1.3430    2.7161 O   0  0  0  0  0  0  0  0  0  0  0  0
    4.1093    1.3326    5.0032 C   0  0  1  0  0  0  0  0  0  0  0  0
    4.2262    2.6806    5.4181 O   0  0  0  0  0  0  0  0  0  0  0  0
    4.3366    0.3154    6.2147 C   0  0  2  0  0  0  0  0  0  0  0  0
    5.8535    0.1849    6.4344 C   0  0  0  0  0  0  0  0  0  0  0  0
    3.7990   -1.1099    5.9013 C   0  0  0  0  0  0  0  0  0  0  0  0
    2.3772   -1.1441    5.6844 O   0  0  0  0  0  0  0  0  0  0  0  0
    1.5845   -0.5570    6.7008 C   0  0  2  0  0  0  0  0  0  0  0  0
    1.4491   -1.7308    7.7320 C   0  0  0  0  0  0  0  0  0  0  0  0
    2.1887    0.7039    7.3113 C   0  0  2  0  0  0  0  0  0  0  0  0
    3.6757    0.7666    7.5592 C   0  0  1  0  0  0  0  0  0  0  0  0
    4.0284   -0.0442    8.6736 O   0  0  0  0  0  0  0  0  0  0  0  0
    2.1852    2.0413    9.9014 H   0  0  0  0  0  0  0  0  0  0  0  0
    0.3548    2.0540   10.0300 H   0  0  0  0  0  0  0  0  0  0  0  0
   -0.5111   -1.8459    5.3401 H   0  0  0  0  0  0  0  0  0  0  0  0
   -1.8001   -0.6668    5.6097 H   0  0  0  0  0  0  0  0  0  0  0  0
   -1.1312   -1.5903    6.9235 H   0  0  0  0  0  0  0  0  0  0  0  0
   -0.9963    1.3707    5.2662 H   0  0  0  0  0  0  0  0  0  0  0  0
    1.1210    4.6806    5.6953 H   0  0  0  0  0  0  0  0  0  0  0  0
    2.0364    3.4485    6.4912 H   0  0  0  0  0  0  0  0  0  0  0  0
    0.3349    3.6749    6.9019 H   0  0  0  0  0  0  0  0  0  0  0  0
   -1.4072    3.5239    4.8152 H   0  0  0  0  0  0  0  0  0  0  0  0
   -0.2679    4.3673    3.8097 H   0  0  0  0  0  0  0  0  0  0  0  0
   -1.7440    1.9564    3.1123 H   0  0  0  0  0  0  0  0  0  0  0  0
   -0.4935    2.6741    2.1223 H   0  0  0  0  0  0  0  0  0  0  0  0
   -0.8051   -0.0569    2.4352 H   0  0  0  0  0  0  0  0  0  0  0  0
    0.7698    0.3032    1.7479 H   0  0  0  0  0  0  0  0  0  0  0  0
    1.5369   -1.0054    3.6803 H   0  0  0  0  0  0  0  0  0  0  0  0
    3.1322    3.4569    3.0027 H   0  0  0  0  0  0  0  0  0  0  0  0
    1.5187    4.0679    2.8602 H   0  0  0  0  0  0  0  0  0  0  0  0
    2.0020    2.7570    1.8305 H   0  0  0  0  0  0  0  0  0  0  0  0
    2.4895    0.1494    4.1262 H   0  0  0  0  0  0  0  0  0  0  0  0
    5.3774    0.5408    0.8695 H   0  0  0  0  0  0  0  0  0  0  0  0
    3.8184    0.2664    0.0718 H   0  0  0  0  0  0  0  0  0  0  0  0
    4.8538   -1.0993    0.4727 H   0  0  0  0  0  0  0  0  0  0  0  0
    4.9878    1.1970    4.3737 H   0  0  0  0  0  0  0  0  0  0  0  0
    3.4093    2.9535    5.7989 H   0  0  0  0  0  0  0  0  0  0  0  0
    6.0737   -0.5549    7.2085 H   0  0  0  0  0  0  0  0  0  0  0  0
    6.3006    1.1313    6.7352 H   0  0  0  0  0  0  0  0  0  0  0  0
    6.3518   -0.1588    5.5269 H   0  0  0  0  0  0  0  0  0  0  0  0
    4.3274   -1.5220    5.0410 H   0  0  0  0  0  0  0  0  0  0  0  0
    4.0341   -1.7994    6.7237 H   0  0  0  0  0  0  0  0  0  0  0  0
    0.8172   -1.4947    8.5790 H   0  0  0  0  0  0  0  0  0  0  0  0
    2.4180   -2.0033    8.1368 H   0  0  0  0  0  0  0  0  0  0  0  0
    1.0467   -2.6165    7.2407 H   0  0  0  0  0  0  0  0  0  0  0  0
    2.1434    1.4222    6.5288 H   0  0  0  0  0  0  0  0  0  0  0  0
    3.9680    1.7909    7.8081 H   0  0  0  0  0  0  0  0  0  0  0  0
    3.5846    0.2839    9.4417 H   0  0  0  0  0  0  0  0  0  0  0  0
  1  2  2  0
  1 33  1  0
  1 34  1  0
  2 30  1  0
  2  3  1  0
  3  4  2  0
  3  5  1  0
  5 28  1  0
  5  6  1  6
  5  7  1  0
  6 35  1  0
  6 36  1  0
  6 37  1  0
  7 12  1  0
  7  8  1  0
  7 38  1  6
  8 15  1  0
  8  9  1  1
  8 10  1  0
  9 39  1  0
  9 40  1  0
  9 41  1  0
 10 11  1  0
 10 42  1  0
 10 43  1  0
 11 12  1  0
 11 44  1  0
 11 45  1  0
 12 13  1  6
 12 15  1  0
 13 14  1  0
 13 46  1  0
 13 47  1  0
 14 48  1  0
 15 16  1  6
 15 17  1  0
 16 49  1  0
 16 50  1  0
 16 51  1  0
 17 18  1  0
 17 22  1  0
 17 52  1  1
 18 19  1  0
 19 20  1  0
 19 21  2  0
 20 53  1  0
 20 54  1  0
 20 55  1  0
 22 23  1  0
 22 24  1  0
 22 56  1  6
 23 57  1  0
 24 31  1  0
 24 25  1  1
 24 26  1  0
 25 58  1  0
 25 59  1  0
 25 60  1  0
 26 27  1  0
 26 61  1  0
 26 62  1  0
 27 28  1  0
 28 29  1  1
 28 30  1  0
 29 63  1  0
 29 64  1  0
 29 65  1  0
 30 31  1  0
 30 66  1  6
 31 32  1  0
 31 67  1  1
 32 68  1  0
M  END
>  <i_m_ct_stereo_status>  (321) 
1

>  <s_m_source_file>  (321) 
/var/tmp/pbs.5076255.sched01/tmpoq50wh_d/842pmd5wfz.sdf

>  <i_m_source_file_index>  (321) 
40

>  <i_lp_mmshare_version>  (321) 
48012

>  <i_f3d_flags>  (321) 
0

>  <s_epik_input>  (321) 
Tz1DMUMoPVtDSDJdKVtDQEBIXShbQ0BIXTJbT0hdKVtDQF0zKFtDSDNdKU9bQ0gyXVtDQEBdMihbQ0gzXSlbQ0BIXShbT0hdKVtDQEhdKE9DKD1PKVtDSDNdKVtDQF0oW0NIM10pKFtDQEBdNChbQ0gyXVtDSDJdNSlbQ0gyXVtPSF0pW0NAXTUoW0NIM10pW0NASF00W0NAXTEzW0NIM10=

>  <s_epik_cmdline>  (321) 
J2VwaWtfcHl0aG9uJywgJy1waHQnLCAnMi4wJywgJy1waCcsICc3LjAnLCAnLXRuJywgJzgnLCAnLW1hJywgJzIwMCcsICctaW1hZScsICc8aW5maWxlLm1hZT4nLCAnLW9tYWUnLCAnPG91dGZpbGUubWFlPic=

>  <r_lp_tautomer_probability>  (321) 
1

>  <r_epik_Ionization_Penalty>  (321) 
9.1433e-07

>  <r_epik_Ionization_Penalty_Charging>  (321) 
0

>  <r_epik_Ionization_Penalty_Neutral>  (321) 
9.1433e-07

>  <r_epik_State_Penalty>  (321) 
-0

>  <r_epik_Charging_Adjusted_Penalty>  (321) 
0

>  <i_epik_Tot_Q>  (321) 
0

>  <i_epik_Tot_abs_Q>  (321) 
0

>  <s_epik_Chemistry_Notes>  (321) 
This compound has an ester and may undergo hydrolysis at high or low pH.

>  <s_lp_Force_Field>  (321) 
OPLS3e

>  <r_lp_Energy>  (321) 
133.823

>  <b_lp_Chiralities_Consistent>  (321) 
1

>  <s_lp_Variant>  (321) 
93:0-2

>  <s_i_glide_gridfile>  (321) 
pfpi4k_grid

>  <i_i_glide_lignum>  (321) 
40

>  <i_i_glide_rotatable_bonds>  (321) 
6

>  <r_i_docking_score>  (321) 
-2.24908

>  <r_i_glide_ligand_efficiency>  (321) 
-0.0702837

>  <r_i_glide_ligand_efficiency_sa>  (321) 
-0.223137

>  <r_i_glide_ligand_efficiency_ln>  (321) 
-0.50363

>  <r_i_glide_gscore>  (321) 
-2.24908

>  <r_i_glide_lipo>  (321) 
-0.156467

>  <r_i_glide_hbond>  (321) 
-0.092154

>  <r_i_glide_metal>  (321) 
-0

>  <r_i_glide_rewards>  (321) 
-1.39746

>  <r_i_glide_evdw>  (321) 
-15.9096

>  <r_i_glide_ecoul>  (321) 
0.150262

>  <r_i_glide_erotb>  (321) 
0.199146

>  <r_i_glide_esite>  (321) 
-0.0292067

>  <r_i_glide_emodel>  (321) 
-27.7501

>  <r_i_glide_energy>  (321) 
-15.7593

>  <r_i_glide_einternal>  (321) 
3.24091

>  <r_i_glide_intrahb_reward>  (321) 
-1

>  <i_i_glide_confnum>  (321) 
2

>  <i_i_glide_posenum>  (321) 
5

>  <r_i_glide_eff_state_penalty>  (321) 
0

>  <ligand_id>  (321) 
93

>  <original_smiles>  (321) 
C=C1C(=O)C2(C)C3C4(C)CCC3(CO)C4(C)C(OC(C)=O)C(O)C3(C)COC2(C)C1C3O

>  <smiles>  (321) 
[H]OC([H])([H])C12C([H])([H])C([H])([H])C3(C([H])([H])[H])C1([H])C1(C([H])([H])[H])C(=O)C(=C([H])[H])C4([H])C([H])(O[H])C(C([H])([H])[H])(C([H])([H])OC41C([H])([H])[H])C([H])(O[H])C([H])(OC(=O)C([H])([H])[H])C32C([H])([H])[H]

$$$$
94:0:0
     RDKit          3D

 74 79  0  0  1  0  0  0  0  0999 V2000
    8.1134   -3.5354   -0.4311 C   0  0  0  0  0  0  0  0  0  0  0  0
    7.5259   -4.1847    0.8314 C   0  0  2  0  0  0  0  0  0  0  0  0
    7.0924   -5.4636    0.5543 O   0  0  0  0  0  0  0  0  0  0  0  0
    6.2086   -5.7750    1.5832 C   0  0  1  0  0  0  0  0  0  0  0  0
    7.0113   -6.4118    2.7350 C   0  0  0  0  0  0  0  0  0  0  0  0
    5.5496   -4.4192    1.8588 C   0  0  1  0  0  0  0  0  0  0  0  0
    5.1873   -4.1728    3.3325 C   0  0  2  0  0  0  0  0  0  0  0  0
    4.1876   -5.1901    3.9124 C   0  0  0  0  0  0  0  0  0  0  0  0
    3.3598   -4.4437    4.9841 C   0  0  1  0  0  0  0  0  0  0  0  0
    3.2112   -5.2725    6.2659 C   0  0  0  0  0  0  0  0  0  0  0  0
    4.1290   -3.1301    5.1644 C   0  0  1  0  0  0  0  0  0  0  0  0
    4.6435   -2.8058    3.7497 C   0  0  2  0  0  0  0  0  0  0  0  0
    3.5704   -2.4581    2.8868 O   0  0  0  0  0  0  0  0  0  0  0  0
    3.0893   -1.1513    2.8835 C   0  0  0  0  0  0  0  0  0  0  0  0
    4.1219   -0.2064    2.2589 C   0  0  0  0  0  0  0  0  0  0  0  0
    1.8065   -1.1926    2.0623 C   0  0  0  0  0  0  0  0  0  0  0  0
    2.7920   -0.6087    4.1295 O   0  0  0  0  0  0  0  0  0  0  0  0
    2.2194   -1.4343    5.1238 C   0  0  2  0  0  0  0  0  0  0  0  0
    1.3014   -0.4922    5.9189 C   0  0  0  0  0  0  0  0  0  0  0  0
    1.8829    0.2397    7.1580 C   0  0  1  0  0  0  0  0  0  0  0  0
    1.2754   -0.3015    8.4786 C   0  0  0  0  0  0  0  0  0  0  0  0
    3.4284    0.2748    7.2218 C   0  0  2  0  0  0  0  0  0  0  0  0
    4.1216    1.3649    6.3387 C   0  0  1  0  0  0  0  0  0  0  0  0
    3.5619    2.7848    6.5170 C   0  0  0  0  0  0  0  0  0  0  0  0
    5.6374    1.3592    6.6189 C   0  0  0  0  0  0  0  0  0  0  0  0
    6.2590   -0.0259    6.3879 C   0  0  0  0  0  0  0  0  0  0  0  0
    5.5455   -1.1260    7.1895 C   0  0  1  0  0  0  0  0  0  0  0  0
    5.7968   -0.9393    8.5667 O   0  0  0  0  0  0  0  0  0  0  0  0
    4.0513   -1.0906    6.9320 C   0  0  1  0  0  0  0  0  0  0  0  0
    3.2718   -2.2271    7.3018 O   0  0  0  0  0  0  0  0  0  0  0  0
    3.3879   -2.0239    5.8913 C   0  0  2  0  0  0  0  0  0  0  0  0
    6.4546   -3.4629    1.3277 O   0  0  0  0  0  0  0  0  0  0  0  0
    7.3733   -3.4598   -1.2301 H   0  0  0  0  0  0  0  0  0  0  0  0
    8.9478   -4.1355   -0.7927 H   0  0  0  0  0  0  0  0  0  0  0  0
    8.4903   -2.5418   -0.1912 H   0  0  0  0  0  0  0  0  0  0  0  0
    8.2901   -4.2293    1.6039 H   0  0  0  0  0  0  0  0  0  0  0  0
    5.4740   -6.4875    1.2258 H   0  0  0  0  0  0  0  0  0  0  0  0
    6.4248   -6.6940    3.5814 H   0  0  0  0  0  0  0  0  0  0  0  0
    7.8404   -5.7944    3.0807 H   0  0  0  0  0  0  0  0  0  0  0  0
    7.5440   -7.3224    2.3932 H   0  0  0  0  0  0  0  0  0  0  0  0
    4.6611   -4.3258    1.2383 H   0  0  0  0  0  0  0  0  0  0  0  0
    6.1005   -4.3003    3.9093 H   0  0  0  0  0  0  0  0  0  0  0  0
    3.5016   -5.5708    3.1543 H   0  0  0  0  0  0  0  0  0  0  0  0
    4.7459   -6.0203    4.3128 H   0  0  0  0  0  0  0  0  0  0  0  0
    2.3673   -4.2523    4.5718 H   0  0  0  0  0  0  0  0  0  0  0  0
    4.1835   -5.4709    6.7108 H   0  0  0  0  0  0  0  0  0  0  0  0
    2.7579   -6.2379    6.0469 H   0  0  0  0  0  0  0  0  0  0  0  0
    2.5967   -4.7719    7.0121 H   0  0  0  0  0  0  0  0  0  0  0  0
    4.9834   -3.3941    5.7503 H   0  0  0  0  0  0  0  0  0  0  0  0
    5.4330   -2.0595    3.7463 H   0  0  0  0  0  0  0  0  0  0  0  0
    4.9833   -0.0763    2.9135 H   0  0  0  0  0  0  0  0  0  0  0  0
    3.6690    0.7756    2.1124 H   0  0  0  0  0  0  0  0  0  0  0  0
    4.4532   -0.5925    1.2905 H   0  0  0  0  0  0  0  0  0  0  0  0
    1.1132   -1.9288    2.4820 H   0  0  0  0  0  0  0  0  0  0  0  0
    2.0573   -1.4955    1.0517 H   0  0  0  0  0  0  0  0  0  0  0  0
    1.3225   -0.2147    2.0459 H   0  0  0  0  0  0  0  0  0  0  0  0
    1.6108   -2.2383    4.6965 H   0  0  0  0  0  0  0  0  0  0  0  0
    0.9211    0.2744    5.2175 H   0  0  0  0  0  0  0  0  0  0  0  0
    0.4294   -1.0551    6.2339 H   0  0  0  0  0  0  0  0  0  0  0  0
    1.5289    1.2605    7.1286 H   0  0  0  0  0  0  0  0  0  0  0  0
    1.4747   -1.3601    8.6640 H   0  0  0  0  0  0  0  0  0  0  0  0
    0.1903   -0.1648    8.4879 H   0  0  0  0  0  0  0  0  0  0  0  0
    1.6617    0.2588    9.3303 H   0  0  0  0  0  0  0  0  0  0  0  0
    3.6964    0.5193    8.2584 H   0  0  0  0  0  0  0  0  0  0  0  0
    3.9849    1.1119    5.2898 H   0  0  0  0  0  0  0  0  0  0  0  0
    3.5381    3.0772    7.5665 H   0  0  0  0  0  0  0  0  0  0  0  0
    2.5565    2.8717    6.1079 H   0  0  0  0  0  0  0  0  0  0  0  0
    4.1769    3.5058    5.9798 H   0  0  0  0  0  0  0  0  0  0  0  0
    6.1430    2.0904    5.9845 H   0  0  0  0  0  0  0  0  0  0  0  0
    5.8137    1.6666    7.6499 H   0  0  0  0  0  0  0  0  0  0  0  0
    6.1936   -0.2641    5.3281 H   0  0  0  0  0  0  0  0  0  0  0  0
    7.3204   -0.0082    6.6465 H   0  0  0  0  0  0  0  0  0  0  0  0
    5.9691   -2.0731    6.9293 H   0  0  0  0  0  0  0  0  0  0  0  0
    5.4247   -1.6772    9.0300 H   0  0  0  0  0  0  0  0  0  0  0  0
  1  2  1  0
  1 33  1  0
  1 34  1  0
  1 35  1  0
  2 32  1  0
  2  3  1  0
  2 36  1  1
  3  4  1  0
  4  5  1  0
  4  6  1  0
  4 37  1  6
  5 38  1  0
  5 39  1  0
  5 40  1  0
  6  7  1  0
  6 32  1  0
  6 41  1  6
  7 12  1  0
  7  8  1  0
  7 42  1  1
  8  9  1  0
  8 43  1  0
  8 44  1  0
  9 10  1  0
  9 11  1  0
  9 45  1  6
 10 46  1  0
 10 47  1  0
 10 48  1  0
 11 31  1  0
 11 12  1  0
 11 49  1  1
 12 13  1  0
 12 50  1  1
 13 14  1  0
 14 15  1  0
 14 16  1  0
 14 17  1  0
 15 51  1  0
 15 52  1  0
 15 53  1  0
 16 54  1  0
 16 55  1  0
 16 56  1  0
 17 18  1  0
 18 31  1  0
 18 19  1  0
 18 57  1  6
 19 20  1  0
 19 58  1  0
 19 59  1  0
 20 21  1  0
 20 22  1  0
 20 60  1  6
 21 61  1  0
 21 62  1  0
 21 63  1  0
 22 29  1  0
 22 23  1  0
 22 64  1  1
 23 24  1  0
 23 25  1  0
 23 65  1  6
 24 66  1  0
 24 67  1  0
 24 68  1  0
 25 26  1  0
 25 69  1  0
 25 70  1  0
 26 27  1  0
 26 71  1  0
 26 72  1  0
 27 28  1  0
 27 29  1  0
 27 73  1  6
 28 74  1  0
 29 31  1  0
 29 30  1  1
 31 30  1  1
M  END
>  <i_m_ct_stereo_status>  (322) 
1

>  <s_m_source_file>  (322) 
/var/tmp/pbs.5076255.sched01/tmpoq50wh_d/842pmd5wfz.sdf

>  <i_m_source_file_index>  (322) 
41

>  <i_lp_mmshare_version>  (322) 
48012

>  <i_f3d_flags>  (322) 
0

>  <s_epik_input>  (322) 
W0NIM11bQ0BASF0xT1tDQEBIXShbQ0gzXSlbQ0BIXShPMSlbQ0BIXShbQ0gyXVtDQEhdMltDSDNdKVtDQEhdKFtDQEhdMltDQF0zKFtDQF00NTYpTzYpT0MoW0NIM10pKFtDSDNdKU9bQ0BASF0zW0NIMl1bQ0BASF0oW0NIM10pW0NAQEhdNFtDQEBIXShbQ0gzXSlbQ0gyXVtDSDJdW0NASF01W09IXQ==

>  <s_epik_cmdline>  (322) 
J2VwaWtfcHl0aG9uJywgJy1waHQnLCAnMi4wJywgJy1waCcsICc3LjAnLCAnLXRuJywgJzgnLCAnLW1hJywgJzIwMCcsICctaW1hZScsICc8aW5maWxlLm1hZT4nLCAnLW9tYWUnLCAnPG91dGZpbGUubWFlPic=

>  <r_lp_tautomer_probability>  (322) 
1

>  <r_epik_Ionization_Penalty>  (322) 
1.55359e-07

>  <r_epik_Ionization_Penalty_Charging>  (322) 
0

>  <r_epik_Ionization_Penalty_Neutral>  (322) 
1.55359e-07

>  <r_epik_State_Penalty>  (322) 
-0

>  <r_epik_Charging_Adjusted_Penalty>  (322) 
0

>  <i_epik_Tot_Q>  (322) 
0

>  <i_epik_Tot_abs_Q>  (322) 
0

>  <s_epik_Chemistry_Notes>  (322) 
This compound contains an acetal/aminal-like group ( X-CH(R)-Y where X, Y are N, S, or O) that may be acid/base labile, releasing an aldehyde.

>  <s_lp_Force_Field>  (322) 
OPLS3e

>  <r_lp_Energy>  (322) 
21.9135

>  <b_lp_Chiralities_Consistent>  (322) 
1

>  <s_lp_Variant>  (322) 
94:0-1

>  <s_i_glide_gridfile>  (322) 
pfpi4k_grid

>  <i_i_glide_lignum>  (322) 
41

>  <i_i_glide_rotatable_bonds>  (322) 
2

>  <r_i_docking_score>  (322) 
-2.03525

>  <r_i_glide_ligand_efficiency>  (322) 
-0.0636016

>  <r_i_glide_ligand_efficiency_sa>  (322) 
-0.201922

>  <r_i_glide_ligand_efficiency_ln>  (322) 
-0.455748

>  <r_i_glide_gscore>  (322) 
-2.03525

>  <r_i_glide_lipo>  (322) 
-0.526727

>  <r_i_glide_hbond>  (322) 
0

>  <r_i_glide_metal>  (322) 
-0

>  <r_i_glide_rewards>  (322) 
-0.52513

>  <r_i_glide_evdw>  (322) 
-20.0767

>  <r_i_glide_ecoul>  (322) 
-0.505578

>  <r_i_glide_erotb>  (322) 
0.0987471

>  <r_i_glide_esite>  (322) 
-0.00246983

>  <r_i_glide_emodel>  (322) 
-21.4789

>  <r_i_glide_energy>  (322) 
-20.5822

>  <r_i_glide_einternal>  (322) 
0.385753

>  <r_i_glide_intrahb_reward>  (322) 
-0

>  <i_i_glide_confnum>  (322) 
1

>  <i_i_glide_posenum>  (322) 
30

>  <r_i_glide_eff_state_penalty>  (322) 
0

>  <ligand_id>  (322) 
94

>  <original_smiles>  (322) 
CC1OC(C)C(C2CC(C)C3C2OC(C)(C)OC2CC(C)C4C(C)CCC(O)C45OC235)O1

>  <smiles>  (322) 
[H]OC1([H])C([H])([H])C([H])([H])C([H])(C([H])([H])[H])C2([H])C([H])(C([H])([H])[H])C([H])([H])C3([H])OC(C([H])([H])[H])(C([H])([H])[H])OC4([H])C([H])(C5([H])OC([H])(C([H])([H])[H])OC5([H])C([H])([H])[H])C([H])([H])C([H])(C([H])([H])[H])C4([H])C34OC124

$$$$
94:0:1
     RDKit          3D

 74 79  0  0  1  0  0  0  0  0999 V2000
    5.0864   -6.4561    6.3777 C   0  0  0  0  0  0  0  0  0  0  0  0
    4.6648   -5.1808    5.6334 C   0  0  2  0  0  0  0  0  0  0  0  0
    4.1491   -4.2849    6.5579 O   0  0  0  0  0  0  0  0  0  0  0  0
    2.7585   -4.2579    6.3548 C   0  0  1  0  0  0  0  0  0  0  0  0
    2.1712   -2.9314    6.8741 C   0  0  0  0  0  0  0  0  0  0  0  0
    2.6593   -4.5420    4.8458 C   0  0  1  0  0  0  0  0  0  0  0  0
    2.8813   -3.3019    3.9415 C   0  0  2  0  0  0  0  0  0  0  0  0
    1.6422   -2.3795    3.8067 C   0  0  0  0  0  0  0  0  0  0  0  0
    1.6827   -1.7741    2.4030 C   0  0  1  0  0  0  0  0  0  0  0  0
    1.3295   -0.2816    2.4088 C   0  0  0  0  0  0  0  0  0  0  0  0
    3.0645   -2.1667    1.8721 C   0  0  1  0  0  0  0  0  0  0  0  0
    3.3475   -3.5408    2.4984 C   0  0  2  0  0  0  0  0  0  0  0  0
    2.5080   -4.5261    1.9175 O   0  0  0  0  0  0  0  0  0  0  0  0
    2.8800   -5.1415    0.7290 C   0  0  0  0  0  0  0  0  0  0  0  0
    4.1102   -6.0308    0.9176 C   0  0  0  0  0  0  0  0  0  0  0  0
    1.6751   -5.9447    0.2751 C   0  0  0  0  0  0  0  0  0  0  0  0
    3.2472   -4.2898   -0.3050 O   0  0  0  0  0  0  0  0  0  0  0  0
    2.5481   -3.0740   -0.4940 C   0  0  2  0  0  0  0  0  0  0  0  0
    2.5646   -2.8911   -2.0278 C   0  0  0  0  0  0  0  0  0  0  0  0
    3.6471   -1.9982   -2.6419 C   0  0  1  0  0  0  0  0  0  0  0  0
    3.1086   -0.6723   -3.2113 C   0  0  0  0  0  0  0  0  0  0  0  0
    4.8661   -1.7859   -1.7032 C   0  0  2  0  0  0  0  0  0  0  0  0
    5.8062   -3.0279   -1.6805 C   0  0  1  0  0  0  0  0  0  0  0  0
    6.1569   -3.4518   -3.0361 C   0  0  0  0  0  0  0  0  0  0  0  0
    7.0900   -2.6967   -0.8965 C   0  0  0  0  0  0  0  0  0  0  0  0
    6.7607   -2.3191    0.5522 C   0  0  0  0  0  0  0  0  0  0  0  0
    5.7159   -1.2095    0.6164 C   0  0  1  0  0  0  0  0  0  0  0  0
    6.4178   -0.1355    0.0896 O   0  0  0  0  0  0  0  0  0  0  0  0
    4.5173   -1.4700   -0.2576 C   0  0  1  0  0  0  0  0  0  0  0  0
    3.3721   -0.6560   -0.0300 O   0  0  0  0  0  0  0  0  0  0  0  0
    3.2659   -2.0420    0.3641 C   0  0  2  0  0  0  0  0  0  0  0  0
    3.6995   -5.4878    4.6853 O   0  0  0  0  0  0  0  0  0  0  0  0
    4.2362   -6.8870    6.9123 H   0  0  0  0  0  0  0  0  0  0  0  0
    5.8665   -6.2291    7.1069 H   0  0  0  0  0  0  0  0  0  0  0  0
    5.4665   -7.2002    5.6778 H   0  0  0  0  0  0  0  0  0  0  0  0
    5.4988   -4.7036    5.1193 H   0  0  0  0  0  0  0  0  0  0  0  0
    2.3277   -5.1056    6.8899 H   0  0  0  0  0  0  0  0  0  0  0  0
    1.1282   -2.8492    6.5895 H   0  0  0  0  0  0  0  0  0  0  0  0
    2.6967   -2.0686    6.4661 H   0  0  0  0  0  0  0  0  0  0  0  0
    2.2167   -2.8346    7.9673 H   0  0  0  0  0  0  0  0  0  0  0  0
    1.7287   -5.0524    4.5753 H   0  0  0  0  0  0  0  0  0  0  0  0
    3.7051   -2.7065    4.3342 H   0  0  0  0  0  0  0  0  0  0  0  0
    0.7266   -2.9509    3.9209 H   0  0  0  0  0  0  0  0  0  0  0  0
    1.6453   -1.5623    4.5340 H   0  0  0  0  0  0  0  0  0  0  0  0
    0.9120   -2.2294    1.7840 H   0  0  0  0  0  0  0  0  0  0  0  0
    2.0510    0.3297    2.9654 H   0  0  0  0  0  0  0  0  0  0  0  0
    0.3438   -0.1417    2.8632 H   0  0  0  0  0  0  0  0  0  0  0  0
    1.2593    0.0859    1.3819 H   0  0  0  0  0  0  0  0  0  0  0  0
    3.7173   -1.4582    2.3641 H   0  0  0  0  0  0  0  0  0  0  0  0
    4.4031   -3.8104    2.4553 H   0  0  0  0  0  0  0  0  0  0  0  0
    5.0175   -5.4388    1.0828 H   0  0  0  0  0  0  0  0  0  0  0  0
    4.2735   -6.5965   -0.0048 H   0  0  0  0  0  0  0  0  0  0  0  0
    3.9616   -6.7314    1.7429 H   0  0  0  0  0  0  0  0  0  0  0  0
    0.7550   -5.3917    0.1747 H   0  0  0  0  0  0  0  0  0  0  0  0
    1.5147   -6.7934    0.9512 H   0  0  0  0  0  0  0  0  0  0  0  0
    1.8790   -6.2320   -0.7399 H   0  0  0  0  0  0  0  0  0  0  0  0
    1.5094   -3.1479   -0.1870 H   0  0  0  0  0  0  0  0  0  0  0  0
    2.5014   -3.8744   -2.5466 H   0  0  0  0  0  0  0  0  0  0  0  0
    1.6262   -2.4260   -2.2736 H   0  0  0  0  0  0  0  0  0  0  0  0
    3.9322   -2.4761   -3.5616 H   0  0  0  0  0  0  0  0  0  0  0  0
    2.6056   -0.2124   -2.3760 H   0  0  0  0  0  0  0  0  0  0  0  0
    2.3590   -0.7925   -4.0058 H   0  0  0  0  0  0  0  0  0  0  0  0
    3.9074   -0.0389   -3.5976 H   0  0  0  0  0  0  0  0  0  0  0  0
    5.4143   -0.9359   -2.0862 H   0  0  0  0  0  0  0  0  0  0  0  0
    5.3107   -3.8677   -1.2059 H   0  0  0  0  0  0  0  0  0  0  0  0
    6.5306   -2.6390   -3.6069 H   0  0  0  0  0  0  0  0  0  0  0  0
    5.3236   -3.9453   -3.6093 H   0  0  0  0  0  0  0  0  0  0  0  0
    7.0218   -4.0599   -2.9658 H   0  0  0  0  0  0  0  0  0  0  0  0
    7.7458   -3.5775   -0.8713 H   0  0  0  0  0  0  0  0  0  0  0  0
    7.6309   -1.8687   -1.4112 H   0  0  0  0  0  0  0  0  0  0  0  0
    6.3521   -3.1756    1.0979 H   0  0  0  0  0  0  0  0  0  0  0  0
    7.6711   -1.9492    1.0534 H   0  0  0  0  0  0  0  0  0  0  0  0
    5.4396   -0.9347    1.6277 H   0  0  0  0  0  0  0  0  0  0  0  0
    6.8449    0.2853    0.8216 H   0  0  0  0  0  0  0  0  0  0  0  0
  1  2  1  0
  1 33  1  0
  1 34  1  0
  1 35  1  0
  2 32  1  0
  2  3  1  0
  2 36  1  6
  3  4  1  0
  4  5  1  0
  4  6  1  0
  4 37  1  1
  5 38  1  0
  5 39  1  0
  5 40  1  0
  6  7  1  0
  6 32  1  0
  6 41  1  1
  7 12  1  0
  7  8  1  0
  7 42  1  1
  8  9  1  0
  8 43  1  0
  8 44  1  0
  9 10  1  0
  9 11  1  0
  9 45  1  6
 10 46  1  0
 10 47  1  0
 10 48  1  0
 11 31  1  0
 11 12  1  0
 11 49  1  1
 12 13  1  0
 12 50  1  1
 13 14  1  0
 14 15  1  0
 14 16  1  0
 14 17  1  0
 15 51  1  0
 15 52  1  0
 15 53  1  0
 16 54  1  0
 16 55  1  0
 16 56  1  0
 17 18  1  0
 18 31  1  0
 18 19  1  0
 18 57  1  1
 19 20  1  0
 19 58  1  0
 19 59  1  0
 20 21  1  0
 20 22  1  0
 20 60  1  6
 21 61  1  0
 21 62  1  0
 21 63  1  0
 22 29  1  0
 22 23  1  0
 22 64  1  6
 23 24  1  0
 23 25  1  0
 23 65  1  1
 24 66  1  0
 24 67  1  0
 24 68  1  0
 25 26  1  0
 25 69  1  0
 25 70  1  0
 26 27  1  0
 26 71  1  0
 26 72  1  0
 27 28  1  0
 27 29  1  0
 27 73  1  1
 28 74  1  0
 29 31  1  0
 29 30  1  6
 31 30  1  6
M  END
>  <i_m_ct_stereo_status>  (323) 
1

>  <s_m_source_file>  (323) 
/var/tmp/pbs.5076255.sched01/tmpoq50wh_d/842pmd5wfz.sdf

>  <i_m_source_file_index>  (323) 
41

>  <i_lp_mmshare_version>  (323) 
48012

>  <i_f3d_flags>  (323) 
0

>  <s_epik_input>  (323) 
W0NIM11bQ0BASF0xT1tDQEBIXShbQ0gzXSlbQ0BIXShPMSlbQ0BIXShbQ0gyXVtDQEhdMltDSDNdKVtDQEhdKFtDQEhdMltDQF0zKFtDQF00NTYpTzYpT0MoW0NIM10pKFtDSDNdKU9bQ0BASF0zW0NIMl1bQ0BASF0oW0NIM10pW0NAQEhdNFtDQEBIXShbQ0gzXSlbQ0gyXVtDSDJdW0NASF01W09IXQ==

>  <s_epik_cmdline>  (323) 
J2VwaWtfcHl0aG9uJywgJy1waHQnLCAnMi4wJywgJy1waCcsICc3LjAnLCAnLXRuJywgJzgnLCAnLW1hJywgJzIwMCcsICctaW1hZScsICc8aW5maWxlLm1hZT4nLCAnLW9tYWUnLCAnPG91dGZpbGUubWFlPic=

>  <r_lp_tautomer_probability>  (323) 
1

>  <r_epik_Ionization_Penalty>  (323) 
1.55359e-07

>  <r_epik_Ionization_Penalty_Charging>  (323) 
0

>  <r_epik_Ionization_Penalty_Neutral>  (323) 
1.55359e-07

>  <r_epik_State_Penalty>  (323) 
-0

>  <r_epik_Charging_Adjusted_Penalty>  (323) 
0

>  <i_epik_Tot_Q>  (323) 
0

>  <i_epik_Tot_abs_Q>  (323) 
0

>  <s_epik_Chemistry_Notes>  (323) 
This compound contains an acetal/aminal-like group ( X-CH(R)-Y where X, Y are N, S, or O) that may be acid/base labile, releasing an aldehyde.

>  <s_lp_Force_Field>  (323) 
OPLS3e

>  <r_lp_Energy>  (323) 
21.9135

>  <b_lp_Chiralities_Consistent>  (323) 
1

>  <s_lp_Variant>  (323) 
94:0-1

>  <s_i_glide_gridfile>  (323) 
pfpi4k_grid

>  <i_i_glide_lignum>  (323) 
41

>  <i_i_glide_rotatable_bonds>  (323) 
2

>  <r_i_docking_score>  (323) 
-1.22565

>  <r_i_glide_ligand_efficiency>  (323) 
-0.0383016

>  <r_i_glide_ligand_efficiency_sa>  (323) 
-0.1216

>  <r_i_glide_ligand_efficiency_ln>  (323) 
-0.274457

>  <r_i_glide_gscore>  (323) 
-1.22565

>  <r_i_glide_lipo>  (323) 
-0.575665

>  <r_i_glide_hbond>  (323) 
0

>  <r_i_glide_metal>  (323) 
-0

>  <r_i_glide_rewards>  (323) 
-0.336763

>  <r_i_glide_evdw>  (323) 
-4.7384

>  <r_i_glide_ecoul>  (323) 
-0.996962

>  <r_i_glide_erotb>  (323) 
0.0987471

>  <r_i_glide_esite>  (323) 
-0.0255057

>  <r_i_glide_emodel>  (323) 
-4.70149

>  <r_i_glide_energy>  (323) 
-5.73536

>  <r_i_glide_einternal>  (323) 
0.429601

>  <r_i_glide_intrahb_reward>  (323) 
-0

>  <i_i_glide_confnum>  (323) 
2

>  <i_i_glide_posenum>  (323) 
32

>  <r_i_glide_eff_state_penalty>  (323) 
0

>  <ligand_id>  (323) 
94

>  <original_smiles>  (323) 
CC1OC(C)C(C2CC(C)C3C2OC(C)(C)OC2CC(C)C4C(C)CCC(O)C45OC235)O1

>  <smiles>  (323) 
[H]OC1([H])C([H])([H])C([H])([H])C([H])(C([H])([H])[H])C2([H])C([H])(C([H])([H])[H])C([H])([H])C3([H])OC(C([H])([H])[H])(C([H])([H])[H])OC4([H])C([H])(C5([H])OC([H])(C([H])([H])[H])OC5([H])C([H])([H])[H])C([H])([H])C([H])(C([H])([H])[H])C4([H])C34OC124

$$$$
94:0:2
     RDKit          3D

 74 79  0  0  1  0  0  0  0  0999 V2000
    5.5615   -6.3548    6.7470 C   0  0  0  0  0  0  0  0  0  0  0  0
    5.0429   -5.1250    5.9859 C   0  0  2  0  0  0  0  0  0  0  0  0
    4.5086   -4.2281    6.8990 O   0  0  0  0  0  0  0  0  0  0  0  0
    3.1104   -4.2885    6.7395 C   0  0  1  0  0  0  0  0  0  0  0  0
    2.4548   -2.9824    7.2203 C   0  0  0  0  0  0  0  0  0  0  0  0
    2.9875   -4.6216    5.2422 C   0  0  1  0  0  0  0  0  0  0  0  0
    3.1107   -3.3916    4.2992 C   0  0  2  0  0  0  0  0  0  0  0  0
    1.8052   -2.5743    4.1769 C   0  0  0  0  0  0  0  0  0  0  0  0
    1.7392   -2.0374    2.7447 C   0  0  1  0  0  0  0  0  0  0  0  0
    1.3026   -0.5642    2.7043 C   0  0  0  0  0  0  0  0  0  0  0  0
    3.1516   -2.2993    2.1924 C   0  0  1  0  0  0  0  0  0  0  0  0
    3.5633   -3.6238    2.8472 C   0  0  2  0  0  0  0  0  0  0  0  0
    2.7959   -4.6854    2.3248 O   0  0  0  0  0  0  0  0  0  0  0  0
    3.1630   -5.3015    1.1301 C   0  0  0  0  0  0  0  0  0  0  0  0
    4.4513   -6.1151    1.3144 C   0  0  0  0  0  0  0  0  0  0  0  0
    1.9551   -6.1690    0.7682 C   0  0  0  0  0  0  0  0  0  0  0  0
    3.4393   -4.4559    0.0639 O   0  0  0  0  0  0  0  0  0  0  0  0
    2.6568   -3.2915   -0.1268 C   0  0  2  0  0  0  0  0  0  0  0  0
    2.5962   -3.0691   -1.6634 C   0  0  0  0  0  0  0  0  0  0  0  0
    3.6425   -2.1585   -2.3285 C   0  0  1  0  0  0  0  0  0  0  0  0
    3.0301   -0.8769   -2.8974 C   0  0  0  0  0  0  0  0  0  0  0  0
    4.8749   -1.8892   -1.4304 C   0  0  2  0  0  0  0  0  0  0  0  0
    5.8978   -3.0406   -1.4144 C   0  0  1  0  0  0  0  0  0  0  0  0
    6.2577   -3.4646   -2.8114 C   0  0  0  0  0  0  0  0  0  0  0  0
    7.1689   -2.6391   -0.6299 C   0  0  0  0  0  0  0  0  0  0  0  0
    6.8401   -2.1950    0.8102 C   0  0  0  0  0  0  0  0  0  0  0  0
    5.7081   -1.1579    0.8407 C   0  0  1  0  0  0  0  0  0  0  0  0
    6.2268   -0.0044    0.2488 O   0  0  0  0  0  0  0  0  0  0  0  0
    4.5041   -1.5563    0.0124 C   0  0  1  0  0  0  0  0  0  0  0  0
    3.3024   -0.8068    0.2141 O   0  0  0  0  0  0  0  0  0  0  0  0
    3.3362   -2.1860    0.6708 C   0  0  2  0  0  0  0  0  0  0  0  0
    4.0692   -5.5118    5.0785 O   0  0  0  0  0  0  0  0  0  0  0  0
    4.7558   -6.8170    7.3147 H   0  0  0  0  0  0  0  0  0  0  0  0
    6.3489   -6.0633    7.4459 H   0  0  0  0  0  0  0  0  0  0  0  0
    5.9643   -7.0912    6.0516 H   0  0  0  0  0  0  0  0  0  0  0  0
    5.8422   -4.6253    5.4436 H   0  0  0  0  0  0  0  0  0  0  0  0
    2.7368   -5.1366    7.3141 H   0  0  0  0  0  0  0  0  0  0  0  0
    1.3965   -2.9801    6.9783 H   0  0  0  0  0  0  0  0  0  0  0  0
    2.9006   -2.1091    6.7445 H   0  0  0  0  0  0  0  0  0  0  0  0
    2.5350   -2.8543    8.2960 H   0  0  0  0  0  0  0  0  0  0  0  0
    2.0796   -5.1740    5.0173 H   0  0  0  0  0  0  0  0  0  0  0  0
    3.8865   -2.7396    4.6918 H   0  0  0  0  0  0  0  0  0  0  0  0
    0.9314   -3.1988    4.3555 H   0  0  0  0  0  0  0  0  0  0  0  0
    1.7915   -1.7451    4.8856 H   0  0  0  0  0  0  0  0  0  0  0  0
    1.0175   -2.6388    2.1949 H   0  0  0  0  0  0  0  0  0  0  0  0
    2.0083    0.0840    3.2294 H   0  0  0  0  0  0  0  0  0  0  0  0
    0.3337   -0.4402    3.1877 H   0  0  0  0  0  0  0  0  0  0  0  0
    1.2091   -0.2009    1.6785 H   0  0  0  0  0  0  0  0  0  0  0  0
    3.7558   -1.5272    2.6641 H   0  0  0  0  0  0  0  0  0  0  0  0
    4.6330   -3.8219    2.7870 H   0  0  0  0  0  0  0  0  0  0  0  0
    5.3101   -5.4563    1.4524 H   0  0  0  0  0  0  0  0  0  0  0  0
    4.6400   -6.6910    0.4111 H   0  0  0  0  0  0  0  0  0  0  0  0
    4.3666   -6.7893    2.1595 H   0  0  0  0  0  0  0  0  0  0  0  0
    1.0415   -5.5740    0.7502 H   0  0  0  0  0  0  0  0  0  0  0  0
    1.8579   -6.9721    1.5028 H   0  0  0  0  0  0  0  0  0  0  0  0
    2.1113   -6.5542   -0.2249 H   0  0  0  0  0  0  0  0  0  0  0  0
    1.6439   -3.4188    0.2277 H   0  0  0  0  0  0  0  0  0  0  0  0
    2.6320   -4.0473   -2.1260 H   0  0  0  0  0  0  0  0  0  0  0  0
    1.6049   -2.6996   -1.9160 H   0  0  0  0  0  0  0  0  0  0  0  0
    3.9440   -2.6790   -3.2327 H   0  0  0  0  0  0  0  0  0  0  0  0
    2.5366   -0.2989   -2.1107 H   0  0  0  0  0  0  0  0  0  0  0  0
    2.2843   -1.1059   -3.6526 H   0  0  0  0  0  0  0  0  0  0  0  0
    3.7926   -0.2429   -3.3512 H   0  0  0  0  0  0  0  0  0  0  0  0
    5.3754   -1.0216   -1.8515 H   0  0  0  0  0  0  0  0  0  0  0  0
    5.4939   -3.9226   -0.9130 H   0  0  0  0  0  0  0  0  0  0  0  0
    6.5024   -2.6623   -3.4700 H   0  0  0  0  0  0  0  0  0  0  0  0
    5.4779   -4.0685   -3.2743 H   0  0  0  0  0  0  0  0  0  0  0  0
    7.2124   -3.9579   -2.7239 H   0  0  0  0  0  0  0  0  0  0  0  0
    7.8907   -3.4582   -0.5954 H   0  0  0  0  0  0  0  0  0  0  0  0
    7.6686   -1.8483   -1.1772 H   0  0  0  0  0  0  0  0  0  0  0  0
    6.5258   -3.0688    1.3846 H   0  0  0  0  0  0  0  0  0  0  0  0
    7.7200   -1.7589    1.2907 H   0  0  0  0  0  0  0  0  0  0  0  0
    5.4517   -0.9007    1.8685 H   0  0  0  0  0  0  0  0  0  0  0  0
    5.5172    0.6099    0.0635 H   0  0  0  0  0  0  0  0  0  0  0  0
  1  2  1  0
  1 33  1  0
  1 34  1  0
  1 35  1  0
  2 32  1  0
  2  3  1  0
  2 36  1  6
  3  4  1  0
  4  5  1  0
  4  6  1  0
  4 37  1  1
  5 38  1  0
  5 39  1  0
  5 40  1  0
  6  7  1  0
  6 32  1  0
  6 41  1  1
  7 12  1  0
  7  8  1  0
  7 42  1  1
  8  9  1  0
  8 43  1  0
  8 44  1  0
  9 10  1  0
  9 11  1  0
  9 45  1  6
 10 46  1  0
 10 47  1  0
 10 48  1  0
 11 31  1  0
 11 12  1  0
 11 49  1  1
 12 13  1  0
 12 50  1  1
 13 14  1  0
 14 15  1  0
 14 16  1  0
 14 17  1  0
 15 51  1  0
 15 52  1  0
 15 53  1  0
 16 54  1  0
 16 55  1  0
 16 56  1  0
 17 18  1  0
 18 31  1  0
 18 19  1  0
 18 57  1  1
 19 20  1  0
 19 58  1  0
 19 59  1  0
 20 21  1  0
 20 22  1  0
 20 60  1  6
 21 61  1  0
 21 62  1  0
 21 63  1  0
 22 29  1  0
 22 23  1  0
 22 64  1  6
 23 24  1  0
 23 25  1  0
 23 65  1  1
 24 66  1  0
 24 67  1  0
 24 68  1  0
 25 26  1  0
 25 69  1  0
 25 70  1  0
 26 27  1  0
 26 71  1  0
 26 72  1  0
 27 28  1  0
 27 29  1  0
 27 73  1  1
 28 74  1  0
 29 31  1  0
 29 30  1  6
 31 30  1  6
M  END
>  <i_m_ct_stereo_status>  (324) 
1

>  <s_m_source_file>  (324) 
/var/tmp/pbs.5076255.sched01/tmpoq50wh_d/842pmd5wfz.sdf

>  <i_m_source_file_index>  (324) 
41

>  <i_lp_mmshare_version>  (324) 
48012

>  <i_f3d_flags>  (324) 
0

>  <s_epik_input>  (324) 
W0NIM11bQ0BASF0xT1tDQEBIXShbQ0gzXSlbQ0BIXShPMSlbQ0BIXShbQ0gyXVtDQEhdMltDSDNdKVtDQEhdKFtDQEhdMltDQF0zKFtDQF00NTYpTzYpT0MoW0NIM10pKFtDSDNdKU9bQ0BASF0zW0NIMl1bQ0BASF0oW0NIM10pW0NAQEhdNFtDQEBIXShbQ0gzXSlbQ0gyXVtDSDJdW0NASF01W09IXQ==

>  <s_epik_cmdline>  (324) 
J2VwaWtfcHl0aG9uJywgJy1waHQnLCAnMi4wJywgJy1waCcsICc3LjAnLCAnLXRuJywgJzgnLCAnLW1hJywgJzIwMCcsICctaW1hZScsICc8aW5maWxlLm1hZT4nLCAnLW9tYWUnLCAnPG91dGZpbGUubWFlPic=

>  <r_lp_tautomer_probability>  (324) 
1

>  <r_epik_Ionization_Penalty>  (324) 
1.55359e-07

>  <r_epik_Ionization_Penalty_Charging>  (324) 
0

>  <r_epik_Ionization_Penalty_Neutral>  (324) 
1.55359e-07

>  <r_epik_State_Penalty>  (324) 
-0

>  <r_epik_Charging_Adjusted_Penalty>  (324) 
0

>  <i_epik_Tot_Q>  (324) 
0

>  <i_epik_Tot_abs_Q>  (324) 
0

>  <s_epik_Chemistry_Notes>  (324) 
This compound contains an acetal/aminal-like group ( X-CH(R)-Y where X, Y are N, S, or O) that may be acid/base labile, releasing an aldehyde.

>  <s_lp_Force_Field>  (324) 
OPLS3e

>  <r_lp_Energy>  (324) 
21.9135

>  <b_lp_Chiralities_Consistent>  (324) 
1

>  <s_lp_Variant>  (324) 
94:0-1

>  <s_i_glide_gridfile>  (324) 
pfpi4k_grid

>  <i_i_glide_lignum>  (324) 
41

>  <i_i_glide_rotatable_bonds>  (324) 
2

>  <r_i_docking_score>  (324) 
-1.14284

>  <r_i_glide_ligand_efficiency>  (324) 
-0.0357138

>  <r_i_glide_ligand_efficiency_sa>  (324) 
-0.113384

>  <r_i_glide_ligand_efficiency_ln>  (324) 
-0.255914

>  <r_i_glide_gscore>  (324) 
-1.14284

>  <r_i_glide_lipo>  (324) 
-0.518556

>  <r_i_glide_hbond>  (324) 
0

>  <r_i_glide_metal>  (324) 
-0

>  <r_i_glide_rewards>  (324) 
-0.336763

>  <r_i_glide_evdw>  (324) 
-5.47463

>  <r_i_glide_ecoul>  (324) 
-0.713951

>  <r_i_glide_erotb>  (324) 
0.0987471

>  <r_i_glide_esite>  (324) 
-0.00544586

>  <r_i_glide_emodel>  (324) 
-5.37954

>  <r_i_glide_energy>  (324) 
-6.18858

>  <r_i_glide_einternal>  (324) 
0.690456

>  <r_i_glide_intrahb_reward>  (324) 
-0

>  <i_i_glide_confnum>  (324) 
2

>  <i_i_glide_posenum>  (324) 
21

>  <r_i_glide_eff_state_penalty>  (324) 
0

>  <ligand_id>  (324) 
94

>  <original_smiles>  (324) 
CC1OC(C)C(C2CC(C)C3C2OC(C)(C)OC2CC(C)C4C(C)CCC(O)C45OC235)O1

>  <smiles>  (324) 
[H]OC1([H])C([H])([H])C([H])([H])C([H])(C([H])([H])[H])C2([H])C([H])(C([H])([H])[H])C([H])([H])C3([H])OC(C([H])([H])[H])(C([H])([H])[H])OC4([H])C([H])(C5([H])OC([H])(C([H])([H])[H])OC5([H])C([H])([H])[H])C([H])([H])C([H])(C([H])([H])[H])C4([H])C34OC124

$$$$
95:0:0
     RDKit          3D

 33 34  0  0  1  0  0  0  0  0999 V2000
    2.6612   -0.2437   -3.9738 C   0  0  0  0  0  0  0  0  0  0  0  0
    3.5665   -1.2508   -3.2525 C   0  0  0  0  0  0  0  0  0  0  0  0
    4.3972   -1.9463   -4.3213 C   0  0  0  0  0  0  0  0  0  0  0  0
    4.4616   -0.4582   -2.3122 C   0  0  0  0  0  0  0  0  0  0  0  0
    2.6752   -2.1735   -2.5845 O   0  0  0  0  0  0  0  0  0  0  0  0
    3.0883   -3.2671   -1.8060 C   0  0  2  0  0  0  0  0  0  0  0  0
    1.8030   -3.8918   -1.2424 C   0  0  0  0  0  0  0  0  0  0  0  0
    2.0440   -4.9468   -0.3172 O   0  0  0  0  0  0  0  0  0  0  0  0
    3.9387   -2.8060   -0.6903 N   0  0  0  0  0  0  0  0  0  0  0  0
    3.5592   -2.2627    0.4709 C   0  0  0  0  0  0  0  0  0  0  0  0
    4.5301   -1.8307    1.2839 N   0  0  0  0  0  0  0  0  0  0  0  0
    5.6590   -2.1491    0.5585 C   0  0  0  0  0  0  0  0  0  0  0  0
    7.0134   -1.9232    0.7820 C   0  0  0  0  0  0  0  0  0  0  0  0
    7.8942   -2.2355   -0.2084 N   0  0  0  0  0  0  0  0  0  0  0  0
    7.4675   -2.9067   -1.2797 C   0  0  0  0  0  0  0  0  0  0  0  0
    6.2089   -3.2552   -1.5830 N   0  0  0  0  0  0  0  0  0  0  0  0
    5.3220   -2.8574   -0.6442 C   0  0  0  0  0  0  0  0  0  0  0  0
    3.2405    0.5581   -4.4517 H   0  0  0  0  0  0  0  0  0  0  0  0
    2.0942    0.2455   -3.1828 H   0  0  0  0  0  0  0  0  0  0  0  0
    1.9878   -0.6758   -4.7344 H   0  0  0  0  0  0  0  0  0  0  0  0
    3.7551   -2.4633   -5.0446 H   0  0  0  0  0  0  0  0  0  0  0  0
    5.0817   -2.6692   -3.8873 H   0  0  0  0  0  0  0  0  0  0  0  0
    4.9684   -1.1865   -4.8610 H   0  0  0  0  0  0  0  0  0  0  0  0
    4.8518    0.4698   -2.7588 H   0  0  0  0  0  0  0  0  0  0  0  0
    5.3432   -1.0151   -2.0491 H   0  0  0  0  0  0  0  0  0  0  0  0
    3.8780   -0.3189   -1.4110 H   0  0  0  0  0  0  0  0  0  0  0  0
    3.6522   -3.9813   -2.4127 H   0  0  0  0  0  0  0  0  0  0  0  0
    1.2248   -3.1061   -0.7656 H   0  0  0  0  0  0  0  0  0  0  0  0
    1.1903   -4.2706   -2.0552 H   0  0  0  0  0  0  0  0  0  0  0  0
    2.6078   -5.5524   -0.8010 H   0  0  0  0  0  0  0  0  0  0  0  0
    2.5281   -2.0845    0.7239 H   0  0  0  0  0  0  0  0  0  0  0  0
    7.3806   -1.3912    1.6528 H   0  0  0  0  0  0  0  0  0  0  0  0
    8.2171   -3.0624   -2.0454 H   0  0  0  0  0  0  0  0  0  0  0  0
  1  2  1  0
  1 18  1  0
  1 19  1  0
  1 20  1  0
  2  3  1  0
  2  4  1  0
  2  5  1  0
  3 21  1  0
  3 22  1  0
  3 23  1  0
  4 24  1  0
  4 25  1  0
  4 26  1  0
  5  6  1  0
  6  7  1  0
  6  9  1  0
  6 27  1  6
  7  8  1  0
  7 28  1  0
  7 29  1  0
  8 30  1  0
  9 17  1  0
  9 10  1  0
 10 11  2  0
 10 31  1  0
 11 12  1  0
 12 17  2  0
 12 13  1  0
 13 14  2  0
 13 32  1  0
 14 15  1  0
 15 16  2  0
 15 33  1  0
 16 17  1  0
M  END
>  <i_m_ct_stereo_status>  (325) 
1

>  <s_m_source_file>  (325) 
/var/tmp/pbs.5076255.sched01/tmpoq50wh_d/842pmd5wfz.sdf

>  <i_m_source_file_index>  (325) 
42

>  <i_lp_mmshare_version>  (325) 
48012

>  <i_f3d_flags>  (325) 
0

>  <s_epik_input>  (325) 
W0NIM11DKFtDSDNdKShbQ0gzXSlPW0NASF0oW0NIMl1bT0hdKW4oW2NIXW4xKWMoYzEyKW5bY0hdbltjSF0y

>  <s_epik_cmdline>  (325) 
J2VwaWtfcHl0aG9uJywgJy1waHQnLCAnMi4wJywgJy1waCcsICc3LjAnLCAnLXRuJywgJzgnLCAnLW1hJywgJzIwMCcsICctaW1hZScsICc8aW5maWxlLm1hZT4nLCAnLW9tYWUnLCAnPG91dGZpbGUubWFlPic=

>  <r_lp_tautomer_probability>  (325) 
1

>  <r_epik_Ionization_Penalty>  (325) 
4.05764e-05

>  <r_epik_Ionization_Penalty_Charging>  (325) 
0

>  <r_epik_Ionization_Penalty_Neutral>  (325) 
4.05764e-05

>  <r_epik_State_Penalty>  (325) 
-0

>  <r_epik_Charging_Adjusted_Penalty>  (325) 
0

>  <i_epik_Tot_Q>  (325) 
0

>  <i_epik_Tot_abs_Q>  (325) 
0

>  <s_epik_Chemistry_Notes>  (325) 
This compound contains an acetal/aminal-like group ( X-CH(R)-Y where X, Y are N, S, or O) that may be acid/base labile, releasing an aldehyde.

>  <s_lp_Force_Field>  (325) 
OPLS3e

>  <r_lp_Energy>  (325) 
16.0794

>  <b_lp_Chiralities_Consistent>  (325) 
1

>  <s_lp_Variant>  (325) 
95:0-1

>  <s_i_glide_gridfile>  (325) 
pfpi4k_grid

>  <i_i_glide_lignum>  (325) 
42

>  <i_i_glide_rotatable_bonds>  (325) 
5

>  <r_i_docking_score>  (325) 
-3.6569

>  <r_i_glide_ligand_efficiency>  (325) 
-0.215112

>  <r_i_glide_ligand_efficiency_sa>  (325) 
-0.553112

>  <r_i_glide_ligand_efficiency_ln>  (325) 
-0.954003

>  <r_i_glide_gscore>  (325) 
-3.6569

>  <r_i_glide_lipo>  (325) 
-0.286183

>  <r_i_glide_hbond>  (325) 
-0.359882

>  <r_i_glide_metal>  (325) 
-0

>  <r_i_glide_rewards>  (325) 
-1.88502

>  <r_i_glide_evdw>  (325) 
-15.0653

>  <r_i_glide_ecoul>  (325) 
-6.10341

>  <r_i_glide_erotb>  (325) 
0.616735

>  <r_i_glide_esite>  (325) 
-0.0737704

>  <r_i_glide_emodel>  (325) 
-23.1136

>  <r_i_glide_energy>  (325) 
-21.1687

>  <r_i_glide_einternal>  (325) 
0.814965

>  <r_i_glide_intrahb_reward>  (325) 
-0

>  <i_i_glide_confnum>  (325) 
6

>  <i_i_glide_posenum>  (325) 
38

>  <r_i_glide_eff_state_penalty>  (325) 
0

>  <ligand_id>  (325) 
95

>  <original_smiles>  (325) 
CC(C)(C)OC(CO)n1cnc2cncnc21

>  <smiles>  (325) 
[H]OC([H])([H])C([H])(OC(C([H])([H])[H])(C([H])([H])[H])C([H])([H])[H])n1c([H])nc2c([H])nc([H])nc21

$$$$
95:0:1
     RDKit          3D

 33 34  0  0  1  0  0  0  0  0999 V2000
   -0.3871    3.9327    6.0228 C   0  0  0  0  0  0  0  0  0  0  0  0
   -1.4173    2.7918    6.0428 C   0  0  0  0  0  0  0  0  0  0  0  0
   -0.9170    1.6768    6.9820 C   0  0  0  0  0  0  0  0  0  0  0  0
   -2.7534    3.3408    6.5914 C   0  0  0  0  0  0  0  0  0  0  0  0
   -1.6853    2.3715    4.6887 O   0  0  0  0  0  0  0  0  0  0  0  0
   -0.7719    1.6294    3.9343 C   0  0  2  0  0  0  0  0  0  0  0  0
   -1.1314    1.7545    2.4450 C   0  0  0  0  0  0  0  0  0  0  0  0
   -0.3054    0.9038    1.6670 O   0  0  0  0  0  0  0  0  0  0  0  0
   -0.8206    0.2460    4.3981 N   0  0  0  0  0  0  0  0  0  0  0  0
   -1.7964   -0.3305    5.0851 C   0  0  0  0  0  0  0  0  0  0  0  0
   -1.6354   -1.5891    5.4705 N   0  0  0  0  0  0  0  0  0  0  0  0
   -0.4213   -1.8823    4.8796 C   0  0  0  0  0  0  0  0  0  0  0  0
    0.3384   -3.0734    4.8633 C   0  0  0  0  0  0  0  0  0  0  0  0
    1.4644   -3.0999    4.1088 N   0  0  0  0  0  0  0  0  0  0  0  0
    1.8602   -1.9762    3.4967 C   0  0  0  0  0  0  0  0  0  0  0  0
    1.2930   -0.7711    3.4984 N   0  0  0  0  0  0  0  0  0  0  0  0
    0.1143   -0.7750    4.1941 C   0  0  0  0  0  0  0  0  0  0  0  0
   -0.1818    4.2781    7.0356 H   0  0  0  0  0  0  0  0  0  0  0  0
   -0.7171    4.8021    5.4504 H   0  0  0  0  0  0  0  0  0  0  0  0
    0.5682    3.6092    5.6119 H   0  0  0  0  0  0  0  0  0  0  0  0
   -0.0347    1.1993    6.5733 H   0  0  0  0  0  0  0  0  0  0  0  0
   -1.6897    0.9299    7.1317 H   0  0  0  0  0  0  0  0  0  0  0  0
   -0.6160    2.0890    7.9587 H   0  0  0  0  0  0  0  0  0  0  0  0
   -2.6249    3.7800    7.5822 H   0  0  0  0  0  0  0  0  0  0  0  0
   -3.5031    2.5531    6.6775 H   0  0  0  0  0  0  0  0  0  0  0  0
   -3.1729    4.1143    5.9413 H   0  0  0  0  0  0  0  0  0  0  0  0
    0.2342    1.9832    4.0792 H   0  0  0  0  0  0  0  0  0  0  0  0
   -2.1624    1.4546    2.2890 H   0  0  0  0  0  0  0  0  0  0  0  0
   -1.0027    2.7769    2.0918 H   0  0  0  0  0  0  0  0  0  0  0  0
   -0.5746    0.9049    0.7774 H   0  0  0  0  0  0  0  0  0  0  0  0
   -2.6825    0.2375    5.3696 H   0  0  0  0  0  0  0  0  0  0  0  0
    0.0232   -3.9711    5.3611 H   0  0  0  0  0  0  0  0  0  0  0  0
    2.7527   -2.0510    2.8983 H   0  0  0  0  0  0  0  0  0  0  0  0
  1  2  1  0
  1 18  1  0
  1 19  1  0
  1 20  1  0
  2  3  1  0
  2  4  1  0
  2  5  1  0
  3 21  1  0
  3 22  1  0
  3 23  1  0
  4 24  1  0
  4 25  1  0
  4 26  1  0
  5  6  1  0
  6  7  1  0
  6  9  1  0
  6 27  1  6
  7  8  1  0
  7 28  1  0
  7 29  1  0
  8 30  1  0
  9 17  1  0
  9 10  1  0
 10 11  2  0
 10 31  1  0
 11 12  1  0
 12 17  2  0
 12 13  1  0
 13 14  2  0
 13 32  1  0
 14 15  1  0
 15 16  2  0
 15 33  1  0
 16 17  1  0
M  END
>  <i_m_ct_stereo_status>  (326) 
1

>  <s_m_source_file>  (326) 
/var/tmp/pbs.5076255.sched01/tmpoq50wh_d/842pmd5wfz.sdf

>  <i_m_source_file_index>  (326) 
42

>  <i_lp_mmshare_version>  (326) 
48012

>  <i_f3d_flags>  (326) 
0

>  <s_epik_input>  (326) 
W0NIM11DKFtDSDNdKShbQ0gzXSlPW0NASF0oW0NIMl1bT0hdKW4oW2NIXW4xKWMoYzEyKW5bY0hdbltjSF0y

>  <s_epik_cmdline>  (326) 
J2VwaWtfcHl0aG9uJywgJy1waHQnLCAnMi4wJywgJy1waCcsICc3LjAnLCAnLXRuJywgJzgnLCAnLW1hJywgJzIwMCcsICctaW1hZScsICc8aW5maWxlLm1hZT4nLCAnLW9tYWUnLCAnPG91dGZpbGUubWFlPic=

>  <r_lp_tautomer_probability>  (326) 
1

>  <r_epik_Ionization_Penalty>  (326) 
4.05764e-05

>  <r_epik_Ionization_Penalty_Charging>  (326) 
0

>  <r_epik_Ionization_Penalty_Neutral>  (326) 
4.05764e-05

>  <r_epik_State_Penalty>  (326) 
-0

>  <r_epik_Charging_Adjusted_Penalty>  (326) 
0

>  <i_epik_Tot_Q>  (326) 
0

>  <i_epik_Tot_abs_Q>  (326) 
0

>  <s_epik_Chemistry_Notes>  (326) 
This compound contains an acetal/aminal-like group ( X-CH(R)-Y where X, Y are N, S, or O) that may be acid/base labile, releasing an aldehyde.

>  <s_lp_Force_Field>  (326) 
OPLS3e

>  <r_lp_Energy>  (326) 
16.0794

>  <b_lp_Chiralities_Consistent>  (326) 
1

>  <s_lp_Variant>  (326) 
95:0-1

>  <s_i_glide_gridfile>  (326) 
pfpi4k_grid

>  <i_i_glide_lignum>  (326) 
42

>  <i_i_glide_rotatable_bonds>  (326) 
5

>  <r_i_docking_score>  (326) 
-2.96754

>  <r_i_glide_ligand_efficiency>  (326) 
-0.174561

>  <r_i_glide_ligand_efficiency_sa>  (326) 
-0.448845

>  <r_i_glide_ligand_efficiency_ln>  (326) 
-0.774164

>  <r_i_glide_gscore>  (326) 
-2.96754

>  <r_i_glide_lipo>  (326) 
-0.171676

>  <r_i_glide_hbond>  (326) 
-0.16

>  <r_i_glide_metal>  (326) 
-0

>  <r_i_glide_rewards>  (326) 
-1.80894

>  <r_i_glide_evdw>  (326) 
-15.1843

>  <r_i_glide_ecoul>  (326) 
-3.79682

>  <r_i_glide_erotb>  (326) 
0.616735

>  <r_i_glide_esite>  (326) 
-0.114911

>  <r_i_glide_emodel>  (326) 
-20.889

>  <r_i_glide_energy>  (326) 
-18.9811

>  <r_i_glide_einternal>  (326) 
2.08917

>  <r_i_glide_intrahb_reward>  (326) 
-0

>  <i_i_glide_confnum>  (326) 
1

>  <i_i_glide_posenum>  (326) 
35

>  <r_i_glide_eff_state_penalty>  (326) 
0

>  <ligand_id>  (326) 
95

>  <original_smiles>  (326) 
CC(C)(C)OC(CO)n1cnc2cncnc21

>  <smiles>  (326) 
[H]OC([H])([H])C([H])(OC(C([H])([H])[H])(C([H])([H])[H])C([H])([H])[H])n1c([H])nc2c([H])nc([H])nc21

$$$$
95:0:2
     RDKit          3D

 33 34  0  0  1  0  0  0  0  0999 V2000
   -1.1571    1.4960    2.2344 C   0  0  0  0  0  0  0  0  0  0  0  0
   -0.4490    1.2168    3.5696 C   0  0  0  0  0  0  0  0  0  0  0  0
   -0.2847    2.5164    4.3843 C   0  0  0  0  0  0  0  0  0  0  0  0
   -1.3431    0.2400    4.3818 C   0  0  0  0  0  0  0  0  0  0  0  0
    0.8021    0.5376    3.3581 O   0  0  0  0  0  0  0  0  0  0  0  0
    1.8026    1.0855    2.5303 C   0  0  2  0  0  0  0  0  0  0  0  0
    2.8781   -0.0036    2.2518 C   0  0  0  0  0  0  0  0  0  0  0  0
    2.9765   -0.3584    0.8929 O   0  0  0  0  0  0  0  0  0  0  0  0
    2.3838    2.2354    3.2137 N   0  0  0  0  0  0  0  0  0  0  0  0
    2.3603    3.5246    2.8276 C   0  0  0  0  0  0  0  0  0  0  0  0
    2.9444    4.4135    3.6427 N   0  0  0  0  0  0  0  0  0  0  0  0
    3.3540    3.5949    4.6720 C   0  0  0  0  0  0  0  0  0  0  0  0
    3.9888    3.8807    5.9052 C   0  0  0  0  0  0  0  0  0  0  0  0
    4.2748    2.8574    6.7364 N   0  0  0  0  0  0  0  0  0  0  0  0
    3.9530    1.6140    6.3701 C   0  0  0  0  0  0  0  0  0  0  0  0
    3.3434    1.1920    5.2509 N   0  0  0  0  0  0  0  0  0  0  0  0
    3.0425    2.2290    4.4387 C   0  0  0  0  0  0  0  0  0  0  0  0
   -2.1094    2.0006    2.3856 H   0  0  0  0  0  0  0  0  0  0  0  0
   -1.3623    0.5947    1.6579 H   0  0  0  0  0  0  0  0  0  0  0  0
   -0.5816    2.1606    1.5925 H   0  0  0  0  0  0  0  0  0  0  0  0
    0.2951    3.2379    3.8541 H   0  0  0  0  0  0  0  0  0  0  0  0
    0.2001    2.2656    5.3297 H   0  0  0  0  0  0  0  0  0  0  0  0
   -1.2718    2.9205    4.6547 H   0  0  0  0  0  0  0  0  0  0  0  0
   -2.3372    0.6695    4.5081 H   0  0  0  0  0  0  0  0  0  0  0  0
   -0.9372    0.0738    5.3785 H   0  0  0  0  0  0  0  0  0  0  0  0
   -1.4762   -0.7387    3.9107 H   0  0  0  0  0  0  0  0  0  0  0  0
    1.4070    1.4319    1.5772 H   0  0  0  0  0  0  0  0  0  0  0  0
    3.8740    0.3417    2.5382 H   0  0  0  0  0  0  0  0  0  0  0  0
    2.6595   -0.8893    2.8387 H   0  0  0  0  0  0  0  0  0  0  0  0
    2.1130   -0.5369    0.5260 H   0  0  0  0  0  0  0  0  0  0  0  0
    1.9291    3.8123    1.8738 H   0  0  0  0  0  0  0  0  0  0  0  0
    4.2396    4.8833    6.2090 H   0  0  0  0  0  0  0  0  0  0  0  0
    4.2180    0.8349    7.0649 H   0  0  0  0  0  0  0  0  0  0  0  0
  1  2  1  0
  1 18  1  0
  1 19  1  0
  1 20  1  0
  2  3  1  0
  2  4  1  0
  2  5  1  0
  3 21  1  0
  3 22  1  0
  3 23  1  0
  4 24  1  0
  4 25  1  0
  4 26  1  0
  5  6  1  0
  6  7  1  0
  6  9  1  0
  6 27  1  6
  7  8  1  0
  7 28  1  0
  7 29  1  0
  8 30  1  0
  9 17  1  0
  9 10  1  0
 10 11  2  0
 10 31  1  0
 11 12  1  0
 12 17  2  0
 12 13  1  0
 13 14  2  0
 13 32  1  0
 14 15  1  0
 15 16  2  0
 15 33  1  0
 16 17  1  0
M  END
>  <i_m_ct_stereo_status>  (327) 
1

>  <s_m_source_file>  (327) 
/var/tmp/pbs.5076255.sched01/tmpoq50wh_d/842pmd5wfz.sdf

>  <i_m_source_file_index>  (327) 
42

>  <i_lp_mmshare_version>  (327) 
48012

>  <i_f3d_flags>  (327) 
0

>  <s_epik_input>  (327) 
W0NIM11DKFtDSDNdKShbQ0gzXSlPW0NASF0oW0NIMl1bT0hdKW4oW2NIXW4xKWMoYzEyKW5bY0hdbltjSF0y

>  <s_epik_cmdline>  (327) 
J2VwaWtfcHl0aG9uJywgJy1waHQnLCAnMi4wJywgJy1waCcsICc3LjAnLCAnLXRuJywgJzgnLCAnLW1hJywgJzIwMCcsICctaW1hZScsICc8aW5maWxlLm1hZT4nLCAnLW9tYWUnLCAnPG91dGZpbGUubWFlPic=

>  <r_lp_tautomer_probability>  (327) 
1

>  <r_epik_Ionization_Penalty>  (327) 
4.05764e-05

>  <r_epik_Ionization_Penalty_Charging>  (327) 
0

>  <r_epik_Ionization_Penalty_Neutral>  (327) 
4.05764e-05

>  <r_epik_State_Penalty>  (327) 
-0

>  <r_epik_Charging_Adjusted_Penalty>  (327) 
0

>  <i_epik_Tot_Q>  (327) 
0

>  <i_epik_Tot_abs_Q>  (327) 
0

>  <s_epik_Chemistry_Notes>  (327) 
This compound contains an acetal/aminal-like group ( X-CH(R)-Y where X, Y are N, S, or O) that may be acid/base labile, releasing an aldehyde.

>  <s_lp_Force_Field>  (327) 
OPLS3e

>  <r_lp_Energy>  (327) 
16.0794

>  <b_lp_Chiralities_Consistent>  (327) 
1

>  <s_lp_Variant>  (327) 
95:0-1

>  <s_i_glide_gridfile>  (327) 
pfpi4k_grid

>  <i_i_glide_lignum>  (327) 
42

>  <i_i_glide_rotatable_bonds>  (327) 
5

>  <r_i_docking_score>  (327) 
-2.64212

>  <r_i_glide_ligand_efficiency>  (327) 
-0.155419

>  <r_i_glide_ligand_efficiency_sa>  (327) 
-0.399626

>  <r_i_glide_ligand_efficiency_ln>  (327) 
-0.689271

>  <r_i_glide_gscore>  (327) 
-2.64212

>  <r_i_glide_lipo>  (327) 
0

>  <r_i_glide_hbond>  (327) 
0

>  <r_i_glide_metal>  (327) 
-0

>  <r_i_glide_rewards>  (327) 
-1.79816

>  <r_i_glide_evdw>  (327) 
-15.8514

>  <r_i_glide_ecoul>  (327) 
-3.7952

>  <r_i_glide_erotb>  (327) 
0.616735

>  <r_i_glide_esite>  (327) 
-0.0988526

>  <r_i_glide_emodel>  (327) 
-20.6025

>  <r_i_glide_energy>  (327) 
-19.6466

>  <r_i_glide_einternal>  (327) 
4.12168

>  <r_i_glide_intrahb_reward>  (327) 
-0

>  <i_i_glide_confnum>  (327) 
2

>  <i_i_glide_posenum>  (327) 
17

>  <r_i_glide_eff_state_penalty>  (327) 
0

>  <ligand_id>  (327) 
95

>  <original_smiles>  (327) 
CC(C)(C)OC(CO)n1cnc2cncnc21

>  <smiles>  (327) 
[H]OC([H])([H])C([H])(OC(C([H])([H])[H])(C([H])([H])[H])C([H])([H])[H])n1c([H])nc2c([H])nc([H])nc21

$$$$
96:0:0
     RDKit          3D

 45 48  0  0  1  0  0  0  0  0999 V2000
    2.2090   -2.9834   -2.9533 C   0  0  0  0  0  0  0  0  0  0  0  0
    3.5441   -2.7769   -2.2343 C   0  0  2  0  0  0  0  0  0  0  0  0
    4.6554   -3.0503   -3.2656 C   0  0  0  0  0  0  0  0  0  0  0  0
    6.0507   -3.1892   -2.6450 C   0  0  0  0  0  0  0  0  0  0  0  0
    6.0680   -2.6734   -1.2128 C   0  0  2  0  0  0  0  0  0  0  0  0
    7.4354   -2.3815   -0.5886 C   0  0  0  0  0  0  0  0  0  0  0  0
    7.2057   -1.4624    0.6362 C   0  0  0  0  0  0  0  0  0  0  0  0
    5.9217   -1.7832    1.4571 C   0  0  1  0  0  0  0  0  0  0  0  0
    4.8023   -0.7372    1.2778 C   0  0  0  0  0  0  0  0  0  0  0  0
    5.4794   -3.2244    1.1753 C   0  0  1  0  0  0  0  0  0  0  0  0
    4.5541   -3.7387    2.0972 O   0  0  0  0  0  0  0  0  0  0  0  0
    4.0156   -4.9836    1.6645 C   0  0  1  0  0  0  0  0  0  0  0  0
    3.9020   -5.8843    2.9061 C   0  0  0  0  0  0  0  0  0  0  0  0
    2.6258   -4.6769    1.0882 C   0  0  0  0  0  0  0  0  0  0  0  0
    2.6271   -3.5004    0.1032 C   0  0  0  0  0  0  0  0  0  0  0  0
    3.7385   -3.6304   -0.9318 C   0  0  2  0  0  0  0  0  0  0  0  0
    5.1771   -3.5530   -0.3138 C   0  0  1  0  0  0  0  0  0  0  0  0
    5.6305   -4.8974   -0.2852 O   0  0  0  0  0  0  0  0  0  0  0  0
    4.8145   -5.7482    0.7203 O   0  0  0  0  0  0  0  0  0  0  0  0
    2.0218   -4.0328   -3.1833 H   0  0  0  0  0  0  0  0  0  0  0  0
    2.1580   -2.4189   -3.8913 H   0  0  0  0  0  0  0  0  0  0  0  0
    1.3830   -2.6420   -2.3356 H   0  0  0  0  0  0  0  0  0  0  0  0
    3.5693   -1.7167   -1.9644 H   0  0  0  0  0  0  0  0  0  0  0  0
    4.4329   -3.9454   -3.8537 H   0  0  0  0  0  0  0  0  0  0  0  0
    4.6707   -2.2235   -3.9736 H   0  0  0  0  0  0  0  0  0  0  0  0
    6.3123   -4.2410   -2.6909 H   0  0  0  0  0  0  0  0  0  0  0  0
    6.7907   -2.6596   -3.2142 H   0  0  0  0  0  0  0  0  0  0  0  0
    5.6276   -1.6812   -1.2752 H   0  0  0  0  0  0  0  0  0  0  0  0
    7.9230   -3.3076   -0.2864 H   0  0  0  0  0  0  0  0  0  0  0  0
    8.1039   -1.8952   -1.3006 H   0  0  0  0  0  0  0  0  0  0  0  0
    8.0894   -1.5302    1.2677 H   0  0  0  0  0  0  0  0  0  0  0  0
    7.1597   -0.4235    0.3231 H   0  0  0  0  0  0  0  0  0  0  0  0
    6.1959   -1.7272    2.5074 H   0  0  0  0  0  0  0  0  0  0  0  0
    4.4043   -0.6974    0.2657 H   0  0  0  0  0  0  0  0  0  0  0  0
    5.1645    0.2585    1.5270 H   0  0  0  0  0  0  0  0  0  0  0  0
    3.9723   -0.9480    1.9521 H   0  0  0  0  0  0  0  0  0  0  0  0
    6.3786   -3.7930    1.4407 H   0  0  0  0  0  0  0  0  0  0  0  0
    4.8870   -6.0988    3.3246 H   0  0  0  0  0  0  0  0  0  0  0  0
    3.4402   -6.8431    2.6623 H   0  0  0  0  0  0  0  0  0  0  0  0
    3.3056   -5.4205    3.6938 H   0  0  0  0  0  0  0  0  0  0  0  0
    2.2392   -5.5788    0.6123 H   0  0  0  0  0  0  0  0  0  0  0  0
    1.9438   -4.4379    1.9056 H   0  0  0  0  0  0  0  0  0  0  0  0
    1.6702   -3.4995   -0.3983 H   0  0  0  0  0  0  0  0  0  0  0  0
    2.7057   -2.5482    0.6250 H   0  0  0  0  0  0  0  0  0  0  0  0
    3.6573   -4.6538   -1.2843 H   0  0  0  0  0  0  0  0  0  0  0  0
  1  2  1  0
  1 20  1  0
  1 21  1  0
  1 22  1  0
  2 16  1  0
  2  3  1  0
  2 23  1  1
  3  4  1  0
  3 24  1  0
  3 25  1  0
  4  5  1  0
  4 26  1  0
  4 27  1  0
  5 17  1  0
  5  6  1  0
  5 28  1  6
  6  7  1  0
  6 29  1  0
  6 30  1  0
  7  8  1  0
  7 31  1  0
  7 32  1  0
  8  9  1  0
  8 10  1  0
  8 33  1  1
  9 34  1  0
  9 35  1  0
  9 36  1  0
 10 17  1  0
 10 11  1  0
 10 37  1  1
 11 12  1  0
 12 19  1  0
 12 13  1  1
 12 14  1  0
 13 38  1  0
 13 39  1  0
 13 40  1  0
 14 15  1  0
 14 41  1  0
 14 42  1  0
 15 16  1  0
 15 43  1  0
 15 44  1  0
 16 17  1  0
 16 45  1  6
 17 18  1  1
 18 19  1  0
M  END
>  <i_m_ct_stereo_status>  (328) 
1

>  <s_m_source_file>  (328) 
/var/tmp/pbs.5076255.sched01/tmpxe1g82q3/12669a6jj4p.sdf

>  <i_m_source_file_index>  (328) 
1

>  <i_lp_mmshare_version>  (328) 
48012

>  <i_f3d_flags>  (328) 
0

>  <s_epik_input>  (328) 
W0NAXTEyM1tDQEBIXTRbQ0gyXVtDSDJdW0NAQEhdKFtDSDNdKVtDQEBIXTJbQ0gyXVtDSDJdW0NAQF0oW0NIM10pKE9PMylPW0NAQEhdMVtDQEhdKFtDSDNdKVtDSDJdW0NIMl00

>  <s_epik_cmdline>  (328) 
J2VwaWtfcHl0aG9uJywgJy1waHQnLCAnMi4wJywgJy1waCcsICc3LjAnLCAnLXRuJywgJzgnLCAnLW1hJywgJzIwMCcsICctaW1hZScsICc8aW5maWxlLm1hZT4nLCAnLW9tYWUnLCAnPG91dGZpbGUubWFlPic=

>  <r_lp_tautomer_probability>  (328) 
1

>  <r_epik_Ionization_Penalty>  (328) 
3.31527e-14

>  <r_epik_Ionization_Penalty_Charging>  (328) 
0

>  <r_epik_Ionization_Penalty_Neutral>  (328) 
3.31527e-14

>  <r_epik_State_Penalty>  (328) 
-0

>  <r_epik_Charging_Adjusted_Penalty>  (328) 
0

>  <i_epik_Tot_Q>  (328) 
0

>  <i_epik_Tot_abs_Q>  (328) 
0

>  <s_lp_Force_Field>  (328) 
OPLS3e

>  <r_lp_Energy>  (328) 
58.2517

>  <b_lp_Chiralities_Consistent>  (328) 
1

>  <s_lp_Variant>  (328) 
96:0-1

>  <s_i_glide_gridfile>  (328) 
pfpi4k_grid

>  <i_i_glide_lignum>  (328) 
1

>  <i_i_glide_rotatable_bonds>  (328) 
0

>  <r_i_docking_score>  (328) 
-3.50438

>  <r_i_glide_ligand_efficiency>  (328) 
-0.184441

>  <r_i_glide_ligand_efficiency_sa>  (328) 
-0.492162

>  <r_i_glide_ligand_efficiency_ln>  (328) 
-0.888435

>  <r_i_glide_gscore>  (328) 
-3.50438

>  <r_i_glide_lipo>  (328) 
-0.947535

>  <r_i_glide_hbond>  (328) 
0

>  <r_i_glide_metal>  (328) 
-0

>  <r_i_glide_rewards>  (328) 
-1.61261

>  <r_i_glide_evdw>  (328) 
-18.7035

>  <r_i_glide_ecoul>  (328) 
-0.0604164

>  <r_i_glide_erotb>  (328) 
0

>  <r_i_glide_esite>  (328) 
0

>  <r_i_glide_emodel>  (328) 
-22.7937

>  <r_i_glide_energy>  (328) 
-18.7639

>  <r_i_glide_einternal>  (328) 
0

>  <r_i_glide_intrahb_reward>  (328) 
-0

>  <i_i_glide_confnum>  (328) 
2

>  <i_i_glide_posenum>  (328) 
3

>  <r_i_glide_eff_state_penalty>  (328) 
0

>  <ligand_id>  (328) 
96

>  <original_smiles>  (328) 
CC1CCC2CCC(C)C3OC4(C)CCC1C23OO4

>  <smiles>  (328) 
[H]C([H])([H])C12OOC34C([H])(O1)C([H])(C([H])([H])[H])C([H])([H])C([H])([H])C3([H])C([H])([H])C([H])([H])C([H])(C([H])([H])[H])C4([H])C([H])([H])C2([H])[H]

$$$$
96:0:1
     RDKit          3D

 45 48  0  0  1  0  0  0  0  0999 V2000
    3.9693   -1.2308   -3.2751 C   0  0  0  0  0  0  0  0  0  0  0  0
    3.7619   -2.3322   -2.2169 C   0  0  2  0  0  0  0  0  0  0  0  0
    2.3827   -3.0057   -2.4574 C   0  0  0  0  0  0  0  0  0  0  0  0
    1.8773   -3.8555   -1.2865 C   0  0  0  0  0  0  0  0  0  0  0  0
    3.0323   -4.2128   -0.3461 C   0  0  2  0  0  0  0  0  0  0  0  0
    2.8427   -5.4027    0.6053 C   0  0  0  0  0  0  0  0  0  0  0  0
    4.2342   -5.8645    1.1166 C   0  0  0  0  0  0  0  0  0  0  0  0
    5.2528   -4.7084    1.3423 C   0  0  1  0  0  0  0  0  0  0  0  0
    6.3587   -4.6322    0.2756 C   0  0  0  0  0  0  0  0  0  0  0  0
    4.4963   -3.3808    1.5263 C   0  0  1  0  0  0  0  0  0  0  0  0
    5.2592   -2.3502    2.0947 O   0  0  0  0  0  0  0  0  0  0  0  0
    4.5797   -1.1061    2.0519 C   0  0  1  0  0  0  0  0  0  0  0  0
    4.8725   -0.3805    3.3773 C   0  0  0  0  0  0  0  0  0  0  0  0
    5.1707   -0.3251    0.8699 C   0  0  0  0  0  0  0  0  0  0  0  0
    5.2471   -1.1376   -0.4285 C   0  0  0  0  0  0  0  0  0  0  0  0
    3.9274   -1.8495   -0.7305 C   0  0  2  0  0  0  0  0  0  0  0  0
    3.5575   -2.9395    0.3569 C   0  0  1  0  0  0  0  0  0  0  0  0
    2.5623   -2.3357    1.1652 O   0  0  0  0  0  0  0  0  0  0  0  0
    3.1339   -1.1499    1.9693 O   0  0  0  0  0  0  0  0  0  0  0  0
    3.3291   -0.3684   -3.0806 H   0  0  0  0  0  0  0  0  0  0  0  0
    3.7248   -1.6013   -4.2735 H   0  0  0  0  0  0  0  0  0  0  0  0
    5.0045   -0.8918   -3.3090 H   0  0  0  0  0  0  0  0  0  0  0  0
    4.5263   -3.0829   -2.4160 H   0  0  0  0  0  0  0  0  0  0  0  0
    1.6221   -2.2566   -2.6657 H   0  0  0  0  0  0  0  0  0  0  0  0
    2.4222   -3.6110   -3.3647 H   0  0  0  0  0  0  0  0  0  0  0  0
    1.1161   -3.2883   -0.7711 H   0  0  0  0  0  0  0  0  0  0  0  0
    1.3992   -4.7499   -1.6785 H   0  0  0  0  0  0  0  0  0  0  0  0
    3.8184   -4.5834   -1.0093 H   0  0  0  0  0  0  0  0  0  0  0  0
    2.2044   -5.1223    1.4467 H   0  0  0  0  0  0  0  0  0  0  0  0
    2.3558   -6.2287    0.0825 H   0  0  0  0  0  0  0  0  0  0  0  0
    4.0920   -6.4075    2.0524 H   0  0  0  0  0  0  0  0  0  0  0  0
    4.6547   -6.5854    0.4126 H   0  0  0  0  0  0  0  0  0  0  0  0
    5.7690   -4.9222    2.2801 H   0  0  0  0  0  0  0  0  0  0  0  0
    5.9853   -4.3819   -0.7168 H   0  0  0  0  0  0  0  0  0  0  0  0
    6.8895   -5.5807    0.1993 H   0  0  0  0  0  0  0  0  0  0  0  0
    7.0975   -3.8787    0.5466 H   0  0  0  0  0  0  0  0  0  0  0  0
    3.8405   -3.6292    2.3647 H   0  0  0  0  0  0  0  0  0  0  0  0
    4.4597   -0.9357    4.2215 H   0  0  0  0  0  0  0  0  0  0  0  0
    4.4223    0.6130    3.3913 H   0  0  0  0  0  0  0  0  0  0  0  0
    5.9431   -0.2625    3.5497 H   0  0  0  0  0  0  0  0  0  0  0  0
    4.5727    0.5709    0.7118 H   0  0  0  0  0  0  0  0  0  0  0  0
    6.1793    0.0057    1.1171 H   0  0  0  0  0  0  0  0  0  0  0  0
    5.5093   -0.4398   -1.2194 H   0  0  0  0  0  0  0  0  0  0  0  0
    6.0597   -1.8588   -0.3804 H   0  0  0  0  0  0  0  0  0  0  0  0
    3.1666   -1.0746   -0.6479 H   0  0  0  0  0  0  0  0  0  0  0  0
  1  2  1  0
  1 20  1  0
  1 21  1  0
  1 22  1  0
  2 16  1  0
  2  3  1  0
  2 23  1  6
  3  4  1  0
  3 24  1  0
  3 25  1  0
  4  5  1  0
  4 26  1  0
  4 27  1  0
  5 17  1  0
  5  6  1  0
  5 28  1  6
  6  7  1  0
  6 29  1  0
  6 30  1  0
  7  8  1  0
  7 31  1  0
  7 32  1  0
  8  9  1  0
  8 10  1  0
  8 33  1  1
  9 34  1  0
  9 35  1  0
  9 36  1  0
 10 17  1  0
 10 11  1  0
 10 37  1  1
 11 12  1  0
 12 19  1  0
 12 13  1  1
 12 14  1  0
 13 38  1  0
 13 39  1  0
 13 40  1  0
 14 15  1  0
 14 41  1  0
 14 42  1  0
 15 16  1  0
 15 43  1  0
 15 44  1  0
 16 17  1  0
 16 45  1  1
 17 18  1  1
 18 19  1  0
M  END
>  <i_m_ct_stereo_status>  (329) 
1

>  <s_m_source_file>  (329) 
/var/tmp/pbs.5076255.sched01/tmpxe1g82q3/12669a6jj4p.sdf

>  <i_m_source_file_index>  (329) 
1

>  <i_lp_mmshare_version>  (329) 
48012

>  <i_f3d_flags>  (329) 
0

>  <s_epik_input>  (329) 
W0NAXTEyM1tDQEBIXTRbQ0gyXVtDSDJdW0NAQEhdKFtDSDNdKVtDQEBIXTJbQ0gyXVtDSDJdW0NAQF0oW0NIM10pKE9PMylPW0NAQEhdMVtDQEhdKFtDSDNdKVtDSDJdW0NIMl00

>  <s_epik_cmdline>  (329) 
J2VwaWtfcHl0aG9uJywgJy1waHQnLCAnMi4wJywgJy1waCcsICc3LjAnLCAnLXRuJywgJzgnLCAnLW1hJywgJzIwMCcsICctaW1hZScsICc8aW5maWxlLm1hZT4nLCAnLW9tYWUnLCAnPG91dGZpbGUubWFlPic=

>  <r_lp_tautomer_probability>  (329) 
1

>  <r_epik_Ionization_Penalty>  (329) 
3.31527e-14

>  <r_epik_Ionization_Penalty_Charging>  (329) 
0

>  <r_epik_Ionization_Penalty_Neutral>  (329) 
3.31527e-14

>  <r_epik_State_Penalty>  (329) 
-0

>  <r_epik_Charging_Adjusted_Penalty>  (329) 
0

>  <i_epik_Tot_Q>  (329) 
0

>  <i_epik_Tot_abs_Q>  (329) 
0

>  <s_lp_Force_Field>  (329) 
OPLS3e

>  <r_lp_Energy>  (329) 
58.2517

>  <b_lp_Chiralities_Consistent>  (329) 
1

>  <s_lp_Variant>  (329) 
96:0-1

>  <s_i_glide_gridfile>  (329) 
pfpi4k_grid

>  <i_i_glide_lignum>  (329) 
1

>  <i_i_glide_rotatable_bonds>  (329) 
0

>  <r_i_docking_score>  (329) 
-3.28176

>  <r_i_glide_ligand_efficiency>  (329) 
-0.172724

>  <r_i_glide_ligand_efficiency_sa>  (329) 
-0.460897

>  <r_i_glide_ligand_efficiency_ln>  (329) 
-0.831995

>  <r_i_glide_gscore>  (329) 
-3.28176

>  <r_i_glide_lipo>  (329) 
-0.680243

>  <r_i_glide_hbond>  (329) 
0

>  <r_i_glide_metal>  (329) 
-0

>  <r_i_glide_rewards>  (329) 
-1.67529

>  <r_i_glide_evdw>  (329) 
-21.6626

>  <r_i_glide_ecoul>  (329) 
1.04605

>  <r_i_glide_erotb>  (329) 
0

>  <r_i_glide_esite>  (329) 
0

>  <r_i_glide_emodel>  (329) 
-24.3524

>  <r_i_glide_energy>  (329) 
-20.6166

>  <r_i_glide_einternal>  (329) 
0

>  <r_i_glide_intrahb_reward>  (329) 
-0

>  <i_i_glide_confnum>  (329) 
2

>  <i_i_glide_posenum>  (329) 
16

>  <r_i_glide_eff_state_penalty>  (329) 
0

>  <ligand_id>  (329) 
96

>  <original_smiles>  (329) 
CC1CCC2CCC(C)C3OC4(C)CCC1C23OO4

>  <smiles>  (329) 
[H]C([H])([H])C12OOC34C([H])(O1)C([H])(C([H])([H])[H])C([H])([H])C([H])([H])C3([H])C([H])([H])C([H])([H])C([H])(C([H])([H])[H])C4([H])C([H])([H])C2([H])[H]

$$$$
96:0:2
     RDKit          3D

 45 48  0  0  1  0  0  0  0  0999 V2000
    4.2485   -1.6208   -0.5987 C   0  0  0  0  0  0  0  0  0  0  0  0
    4.2422   -2.0006    0.8971 C   0  0  2  0  0  0  0  0  0  0  0  0
    4.2139   -3.5552    1.0249 C   0  0  0  0  0  0  0  0  0  0  0  0
    3.9211   -4.0854    2.4454 C   0  0  0  0  0  0  0  0  0  0  0  0
    4.0767   -2.9589    3.4676 C   0  0  2  0  0  0  0  0  0  0  0  0
    4.2103   -3.3580    4.9432 C   0  0  0  0  0  0  0  0  0  0  0  0
    4.7902   -2.1651    5.7469 C   0  0  0  0  0  0  0  0  0  0  0  0
    4.3144   -0.7649    5.2547 C   0  0  1  0  0  0  0  0  0  0  0  0
    5.3860    0.0320    4.4869 C   0  0  0  0  0  0  0  0  0  0  0  0
    2.9882   -0.9140    4.4819 C   0  0  1  0  0  0  0  0  0  0  0  0
    2.2635    0.2789    4.3208 O   0  0  0  0  0  0  0  0  0  0  0  0
    1.1723    0.1248    3.4263 C   0  0  1  0  0  0  0  0  0  0  0  0
    0.0045    0.9475    3.9995 C   0  0  0  0  0  0  0  0  0  0  0  0
    1.6246    0.7010    2.0761 C   0  0  0  0  0  0  0  0  0  0  0  0
    2.9995    0.1836    1.6265 C   0  0  0  0  0  0  0  0  0  0  0  0
    3.0951   -1.3418    1.7353 C   0  0  2  0  0  0  0  0  0  0  0  0
    3.0094   -1.8505    3.2280 C   0  0  1  0  0  0  0  0  0  0  0  0
    1.6855   -2.3527    3.3539 O   0  0  0  0  0  0  0  0  0  0  0  0
    0.6417   -1.2148    3.2823 O   0  0  0  0  0  0  0  0  0  0  0  0
    3.2838   -1.8229   -1.0630 H   0  0  0  0  0  0  0  0  0  0  0  0
    5.0006   -2.1933   -1.1423 H   0  0  0  0  0  0  0  0  0  0  0  0
    4.4879   -0.5696   -0.7571 H   0  0  0  0  0  0  0  0  0  0  0  0
    5.1943   -1.6474    1.2918 H   0  0  0  0  0  0  0  0  0  0  0  0
    3.4858   -3.9760    0.3291 H   0  0  0  0  0  0  0  0  0  0  0  0
    5.1825   -3.9418    0.7032 H   0  0  0  0  0  0  0  0  0  0  0  0
    2.9109   -4.4935    2.4860 H   0  0  0  0  0  0  0  0  0  0  0  0
    4.5952   -4.9101    2.6769 H   0  0  0  0  0  0  0  0  0  0  0  0
    5.0645   -2.5419    3.2621 H   0  0  0  0  0  0  0  0  0  0  0  0
    3.2359   -3.6506    5.3417 H   0  0  0  0  0  0  0  0  0  0  0  0
    4.8669   -4.2236    5.0491 H   0  0  0  0  0  0  0  0  0  0  0  0
    4.5163   -2.2935    6.7947 H   0  0  0  0  0  0  0  0  0  0  0  0
    5.8792   -2.2067    5.7198 H   0  0  0  0  0  0  0  0  0  0  0  0
    4.1029   -0.1774    6.1510 H   0  0  0  0  0  0  0  0  0  0  0  0
    5.6633   -0.4287    3.5393 H   0  0  0  0  0  0  0  0  0  0  0  0
    6.2950    0.1423    5.0781 H   0  0  0  0  0  0  0  0  0  0  0  0
    5.0245    1.0349    4.2674 H   0  0  0  0  0  0  0  0  0  0  0  0
    2.3688   -1.4194    5.2268 H   0  0  0  0  0  0  0  0  0  0  0  0
   -0.3145    0.5538    4.9660 H   0  0  0  0  0  0  0  0  0  0  0  0
   -0.8639    0.9239    3.3370 H   0  0  0  0  0  0  0  0  0  0  0  0
    0.2746    1.9945    4.1472 H   0  0  0  0  0  0  0  0  0  0  0  0
    0.8726    0.4765    1.3173 H   0  0  0  0  0  0  0  0  0  0  0  0
    1.6757    1.7903    2.1316 H   0  0  0  0  0  0  0  0  0  0  0  0
    3.1450    0.5040    0.6008 H   0  0  0  0  0  0  0  0  0  0  0  0
    3.7972    0.6564    2.1967 H   0  0  0  0  0  0  0  0  0  0  0  0
    2.2018   -1.7097    1.2315 H   0  0  0  0  0  0  0  0  0  0  0  0
  1  2  1  0
  1 20  1  0
  1 21  1  0
  1 22  1  0
  2 16  1  0
  2  3  1  0
  2 23  1  1
  3  4  1  0
  3 24  1  0
  3 25  1  0
  4  5  1  0
  4 26  1  0
  4 27  1  0
  5 17  1  0
  5  6  1  0
  5 28  1  6
  6  7  1  0
  6 29  1  0
  6 30  1  0
  7  8  1  0
  7 31  1  0
  7 32  1  0
  8  9  1  0
  8 10  1  0
  8 33  1  1
  9 34  1  0
  9 35  1  0
  9 36  1  0
 10 17  1  0
 10 11  1  0
 10 37  1  1
 11 12  1  0
 12 19  1  0
 12 13  1  1
 12 14  1  0
 13 38  1  0
 13 39  1  0
 13 40  1  0
 14 15  1  0
 14 41  1  0
 14 42  1  0
 15 16  1  0
 15 43  1  0
 15 44  1  0
 16 17  1  0
 16 45  1  6
 17 18  1  6
 18 19  1  0
M  END
>  <i_m_ct_stereo_status>  (330) 
1

>  <s_m_source_file>  (330) 
/var/tmp/pbs.5076255.sched01/tmpxe1g82q3/12669a6jj4p.sdf

>  <i_m_source_file_index>  (330) 
1

>  <i_lp_mmshare_version>  (330) 
48012

>  <i_f3d_flags>  (330) 
0

>  <s_epik_input>  (330) 
W0NAXTEyM1tDQEBIXTRbQ0gyXVtDSDJdW0NAQEhdKFtDSDNdKVtDQEBIXTJbQ0gyXVtDSDJdW0NAQF0oW0NIM10pKE9PMylPW0NAQEhdMVtDQEhdKFtDSDNdKVtDSDJdW0NIMl00

>  <s_epik_cmdline>  (330) 
J2VwaWtfcHl0aG9uJywgJy1waHQnLCAnMi4wJywgJy1waCcsICc3LjAnLCAnLXRuJywgJzgnLCAnLW1hJywgJzIwMCcsICctaW1hZScsICc8aW5maWxlLm1hZT4nLCAnLW9tYWUnLCAnPG91dGZpbGUubWFlPic=

>  <r_lp_tautomer_probability>  (330) 
1

>  <r_epik_Ionization_Penalty>  (330) 
3.31527e-14

>  <r_epik_Ionization_Penalty_Charging>  (330) 
0

>  <r_epik_Ionization_Penalty_Neutral>  (330) 
3.31527e-14

>  <r_epik_State_Penalty>  (330) 
-0

>  <r_epik_Charging_Adjusted_Penalty>  (330) 
0

>  <i_epik_Tot_Q>  (330) 
0

>  <i_epik_Tot_abs_Q>  (330) 
0

>  <s_lp_Force_Field>  (330) 
OPLS3e

>  <r_lp_Energy>  (330) 
58.2517

>  <b_lp_Chiralities_Consistent>  (330) 
1

>  <s_lp_Variant>  (330) 
96:0-1

>  <s_i_glide_gridfile>  (330) 
pfpi4k_grid

>  <i_i_glide_lignum>  (330) 
1

>  <i_i_glide_rotatable_bonds>  (330) 
0

>  <r_i_docking_score>  (330) 
-2.47358

>  <r_i_glide_ligand_efficiency>  (330) 
-0.130189

>  <r_i_glide_ligand_efficiency_sa>  (330) 
-0.347395

>  <r_i_glide_ligand_efficiency_ln>  (330) 
-0.627106

>  <r_i_glide_gscore>  (330) 
-2.47358

>  <r_i_glide_lipo>  (330) 
-0.150579

>  <r_i_glide_hbond>  (330) 
0

>  <r_i_glide_metal>  (330) 
-0

>  <r_i_glide_rewards>  (330) 
-1.59289

>  <r_i_glide_evdw>  (330) 
-17.0488

>  <r_i_glide_ecoul>  (330) 
0.890455

>  <r_i_glide_erotb>  (330) 
0

>  <r_i_glide_esite>  (330) 
-0.0112405

>  <r_i_glide_emodel>  (330) 
-19.0117

>  <r_i_glide_energy>  (330) 
-16.1583

>  <r_i_glide_einternal>  (330) 
0

>  <r_i_glide_intrahb_reward>  (330) 
-0

>  <i_i_glide_confnum>  (330) 
2

>  <i_i_glide_posenum>  (330) 
2

>  <r_i_glide_eff_state_penalty>  (330) 
0

>  <ligand_id>  (330) 
96

>  <original_smiles>  (330) 
CC1CCC2CCC(C)C3OC4(C)CCC1C23OO4

>  <smiles>  (330) 
[H]C([H])([H])C12OOC34C([H])(O1)C([H])(C([H])([H])[H])C([H])([H])C([H])([H])C3([H])C([H])([H])C([H])([H])C([H])(C([H])([H])[H])C4([H])C([H])([H])C2([H])[H]

$$$$
97:0:0
     RDKit          3D

 80 86  0  0  1  0  0  0  0  0999 V2000
   -2.7871    2.6800    3.2838 C   0  0  0  0  0  0  0  0  0  0  0  0
   -1.5619    3.5217    3.6319 C   0  0  0  0  0  0  0  0  0  0  0  0
   -1.6720    4.7975    3.1872 N   0  0  0  0  0  0  0  0  0  0  0  0
   -0.5812    5.5973    3.3127 C   0  0  0  0  0  0  0  0  0  0  0  0
    0.5462    5.2622    4.0268 C   0  0  0  0  0  0  0  0  0  0  0  0
    0.6428    3.9531    4.5491 C   0  0  0  0  0  0  0  0  0  0  0  0
   -0.3983    3.0388    4.2807 C   0  0  0  0  0  0  0  0  0  0  0  0
   -0.2439    1.5886    4.7091 C   0  0  0  0  0  0  0  0  0  0  0  0
   -1.1474    1.0773    5.3634 O   0  0  0  0  0  0  0  0  0  0  0  0
    0.8573    0.9033    4.2889 N   0  0  0  0  0  0  0  0  0  0  0  0
    2.0205    1.4127    3.5158 C   0  0  0  0  0  0  0  0  0  0  0  0
    3.2870    1.1397    4.3589 C   0  0  0  0  0  0  0  0  0  0  0  0
    3.5324   -0.3622    4.6805 C   0  0  0  0  0  0  0  0  0  0  0  0
    3.8083   -1.1091    3.3466 C   0  0  0  0  0  0  0  0  0  0  0  0
    4.0816   -2.6170    3.5037 C   0  0  0  0  0  0  0  0  0  0  0  0
    4.6477   -3.2218    2.2533 N   0  0  2  0  0  0  0  0  0  0  0  0
    3.7509   -3.4647    1.0917 C   0  0  1  0  0  0  0  0  0  0  0  0
    4.6983   -4.1231    0.0853 C   0  0  0  0  0  0  0  0  0  0  0  0
    5.7724   -4.8144    0.9608 C   0  0  0  0  0  0  0  0  0  0  0  0
    5.3556   -4.5177    2.4078 C   0  0  2  0  0  0  0  0  0  0  0  0
    4.3912   -5.5713    2.9955 C   0  0  0  0  0  0  0  0  0  0  0  0
    3.1418   -5.7626    2.1038 C   0  0  1  0  0  0  0  0  0  0  0  0
    2.0869   -6.4797    2.8136 N   0  0  0  0  0  0  0  0  0  0  0  0
    1.1256   -5.9605    3.6297 C   0  0  0  0  0  0  0  0  0  0  0  0
    0.2530   -6.8171    4.1369 N   0  0  0  0  0  0  0  0  0  0  0  0
    0.7169   -8.0298    3.6607 C   0  0  0  0  0  0  0  0  0  0  0  0
    0.2218   -9.3246    3.8976 C   0  0  0  0  0  0  0  0  0  0  0  0
    0.8694  -10.4364    3.3248 C   0  0  0  0  0  0  0  0  0  0  0  0
    2.0166  -10.2605    2.5264 C   0  0  0  0  0  0  0  0  0  0  0  0
    2.5089   -8.9693    2.2648 C   0  0  0  0  0  0  0  0  0  0  0  0
    1.8596   -7.8589    2.8428 C   0  0  0  0  0  0  0  0  0  0  0  0
    2.6187   -4.4285    1.4925 C   0  0  0  0  0  0  0  0  0  0  0  0
    4.7694   -0.5287    5.5969 C   0  0  0  0  0  0  0  0  0  0  0  0
    5.9350    0.2487    5.3668 C   0  0  0  0  0  0  0  0  0  0  0  0
    7.0822    0.0980    6.1677 C   0  0  0  0  0  0  0  0  0  0  0  0
    7.0996   -0.8728    7.1897 C   0  0  0  0  0  0  0  0  0  0  0  0
    5.9566   -1.6629    7.4300 C   0  0  0  0  0  0  0  0  0  0  0  0
    4.7990   -1.4808    6.6489 C   0  0  0  0  0  0  0  0  0  0  0  0
    2.2267   -0.8761    5.3633 C   0  0  0  0  0  0  0  0  0  0  0  0
    0.9497   -0.5517    4.5754 C   0  0  0  0  0  0  0  0  0  0  0  0
   -2.9912    1.9540    4.0629 H   0  0  0  0  0  0  0  0  0  0  0  0
   -2.6757    2.1558    2.3261 H   0  0  0  0  0  0  0  0  0  0  0  0
   -3.6757    3.3133    3.2200 H   0  0  0  0  0  0  0  0  0  0  0  0
   -0.7254    6.5782    2.8696 H   0  0  0  0  0  0  0  0  0  0  0  0
    1.3413    5.9725    4.1468 H   0  0  0  0  0  0  0  0  0  0  0  0
    1.4963    3.7016    5.1689 H   0  0  0  0  0  0  0  0  0  0  0  0
    2.0579    0.8418    2.5647 H   0  0  0  0  0  0  0  0  0  0  0  0
    2.0632    2.4663    3.2476 H   0  0  0  0  0  0  0  0  0  0  0  0
    4.0922    1.5849    3.7938 H   0  0  0  0  0  0  0  0  0  0  0  0
    3.2451    1.6937    5.2987 H   0  0  0  0  0  0  0  0  0  0  0  0
    2.9832   -1.0258    2.6411 H   0  0  0  0  0  0  0  0  0  0  0  0
    4.6602   -0.6408    2.8414 H   0  0  0  0  0  0  0  0  0  0  0  0
    4.8579   -2.7758    4.2445 H   0  0  0  0  0  0  0  0  0  0  0  0
    3.2022   -3.1551    3.8595 H   0  0  0  0  0  0  0  0  0  0  0  0
    3.3205   -2.5211    0.7370 H   0  0  0  0  0  0  0  0  0  0  0  0
    4.1599   -4.8161   -0.5605 H   0  0  0  0  0  0  0  0  0  0  0  0
    5.1526   -3.3519   -0.5333 H   0  0  0  0  0  0  0  0  0  0  0  0
    5.8703   -5.8809    0.7667 H   0  0  0  0  0  0  0  0  0  0  0  0
    6.7342   -4.3504    0.7500 H   0  0  0  0  0  0  0  0  0  0  0  0
    6.2047   -4.3547    3.0733 H   0  0  0  0  0  0  0  0  0  0  0  0
    4.9266   -6.5108    3.1152 H   0  0  0  0  0  0  0  0  0  0  0  0
    4.0971   -5.2829    4.0077 H   0  0  0  0  0  0  0  0  0  0  0  0
    3.4664   -6.3782    1.2567 H   0  0  0  0  0  0  0  0  0  0  0  0
    1.0678   -4.8975    3.8516 H   0  0  0  0  0  0  0  0  0  0  0  0
   -0.6427   -9.4572    4.5287 H   0  0  0  0  0  0  0  0  0  0  0  0
    0.4733  -11.4216    3.5171 H   0  0  0  0  0  0  0  0  0  0  0  0
    2.5401  -11.1074    2.0787 H   0  0  0  0  0  0  0  0  0  0  0  0
    3.3705   -8.8420    1.6454 H   0  0  0  0  0  0  0  0  0  0  0  0
    1.9886   -3.8571    2.1754 H   0  0  0  0  0  0  0  0  0  0  0  0
    2.0128   -4.6626    0.6164 H   0  0  0  0  0  0  0  0  0  0  0  0
    5.9954    0.9425    4.5432 H   0  0  0  0  0  0  0  0  0  0  0  0
    7.9593    0.6916    5.9421 H   0  0  0  0  0  0  0  0  0  0  0  0
    7.9942   -1.0321    7.7723 H   0  0  0  0  0  0  0  0  0  0  0  0
    5.9558   -2.4327    8.1897 H   0  0  0  0  0  0  0  0  0  0  0  0
    3.9550   -2.1197    6.8603 H   0  0  0  0  0  0  0  0  0  0  0  0
    2.2242   -1.9565    5.5199 H   0  0  0  0  0  0  0  0  0  0  0  0
    2.1344   -0.4280    6.3548 H   0  0  0  0  0  0  0  0  0  0  0  0
    0.1076   -0.9646    5.1383 H   0  0  0  0  0  0  0  0  0  0  0  0
    0.9352   -1.0962    3.6341 H   0  0  0  0  0  0  0  0  0  0  0  0
    5.3391   -2.5437    1.9299 H   0  0  0  0  0  0  0  0  0  0  0  0
  1  2  1  0
  1 41  1  0
  1 42  1  0
  1 43  1  0
  2  7  2  0
  2  3  1  0
  3  4  2  0
  4  5  1  0
  4 44  1  0
  5  6  2  0
  5 45  1  0
  6  7  1  0
  6 46  1  0
  7  8  1  0
  8  9  2  0
  8 10  1  0
 10 40  1  0
 10 11  1  0
 11 12  1  0
 11 47  1  0
 11 48  1  0
 12 13  1  0
 12 49  1  0
 12 50  1  0
 13 14  1  0
 13 33  1  0
 13 39  1  0
 14 15  1  0
 14 51  1  0
 14 52  1  0
 15 16  1  0
 15 53  1  0
 15 54  1  0
 16 20  1  0
 16 17  1  0
 16 80  1  6
 17 32  1  0
 17 18  1  0
 17 55  1  6
 18 19  1  0
 18 56  1  0
 18 57  1  0
 19 20  1  0
 19 58  1  0
 19 59  1  0
 20 21  1  0
 20 60  1  1
 21 22  1  0
 21 61  1  0
 21 62  1  0
 22 23  1  0
 22 32  1  0
 22 63  1  6
 23 31  1  0
 23 24  1  0
 24 25  2  0
 24 64  1  0
 25 26  1  0
 26 31  2  0
 26 27  1  0
 27 28  2  0
 27 65  1  0
 28 29  1  0
 28 66  1  0
 29 30  2  0
 29 67  1  0
 30 31  1  0
 30 68  1  0
 32 69  1  0
 32 70  1  0
 33 38  1  0
 33 34  2  0
 34 35  1  0
 34 71  1  0
 35 36  2  0
 35 72  1  0
 36 37  1  0
 36 73  1  0
 37 38  2  0
 37 74  1  0
 38 75  1  0
 39 40  1  0
 39 76  1  0
 39 77  1  0
 40 78  1  0
 40 79  1  0
M  CHG  1  16   1
M  END
>  <i_m_ct_stereo_status>  (331) 
1

>  <s_m_source_file>  (331) 
/var/tmp/pbs.5076255.sched01/tmpxe1g82q3/12669a6jj4p.sdf

>  <i_m_source_file_index>  (331) 
2

>  <i_lp_mmshare_version>  (331) 
48012

>  <i_f3d_flags>  (331) 
0

>  <s_epik_input>  (331) 
W0NIM11jMW5bY0hdW2NIXVtjSF1jMUMoPU8pTihbQ0gyXVtDSDJdMilbQ0gyXVtDSDJdQzIoYzNbY0hdW2NIXVtjSF1bY0hdW2NIXTMpW0NIMl1bQ0gyXU4oW0NAQEhdNDUpW0NASF0oW0NIMl1bQ0gyXTQpW0NIMl1bQ0BIXShbQ0gyXTUpbihbY0hdbjYpYyhjNjcpW2NIXVtjSF1bY0hdW2NIXTc=

>  <s_epik_cmdline>  (331) 
J2VwaWtfcHl0aG9uJywgJy1waHQnLCAnMi4wJywgJy1waCcsICc3LjAnLCAnLXRuJywgJzgnLCAnLW1hJywgJzIwMCcsICctaW1hZScsICc8aW5maWxlLm1hZT4nLCAnLW9tYWUnLCAnPG91dGZpbGUubWFlPic=

>  <r_epik_Ionization_Penalty>  (331) 
0.047045

>  <r_epik_Ionization_Penalty_Charging>  (331) 
0.00195196

>  <r_epik_Ionization_Penalty_Neutral>  (331) 
0.045093

>  <r_epik_State_Penalty>  (331) 
0.0372816

>  <r_epik_Charging_Adjusted_Penalty>  (331) 
0.0392336

>  <i_epik_Tot_Q>  (331) 
1

>  <i_epik_Tot_abs_Q>  (331) 
1

>  <s_lp_Force_Field>  (331) 
OPLS3e

>  <r_lp_Energy>  (331) 
73.8619

>  <b_lp_Chiralities_Consistent>  (331) 
1

>  <s_lp_Variant>  (331) 
97:0-1

>  <s_i_glide_gridfile>  (331) 
pfpi4k_grid

>  <i_i_glide_lignum>  (331) 
2

>  <i_i_glide_rotatable_bonds>  (331) 
7

>  <r_i_docking_score>  (331) 
-3.01606

>  <r_i_glide_ligand_efficiency>  (331) 
-0.0754015

>  <r_i_glide_ligand_efficiency_sa>  (331) 
-0.257869

>  <r_i_glide_ligand_efficiency_ln>  (331) 
-0.643237

>  <r_i_glide_gscore>  (331) 
-3.01606

>  <r_i_glide_lipo>  (331) 
-0.655461

>  <r_i_glide_hbond>  (331) 
-0.16

>  <r_i_glide_metal>  (331) 
-0

>  <r_i_glide_rewards>  (331) 
0

>  <r_i_glide_evdw>  (331) 
-28.8066

>  <r_i_glide_ecoul>  (331) 
-8.1318

>  <r_i_glide_erotb>  (331) 
0.505317

>  <r_i_glide_esite>  (331) 
-0.0458174

>  <r_i_glide_emodel>  (331) 
-40.5155

>  <r_i_glide_energy>  (331) 
-36.9384

>  <r_i_glide_einternal>  (331) 
5.33218

>  <r_i_glide_intrahb_reward>  (331) 
-0

>  <i_i_glide_confnum>  (331) 
4

>  <i_i_glide_posenum>  (331) 
16

>  <r_i_glide_eff_state_penalty>  (331) 
0

>  <ligand_id>  (331) 
97

>  <original_smiles>  (331) 
Cc1ncccc1C(=O)N1CCC(CCN2C3CCC2CC(n2cnc4ccccc42)C3)(c2ccccc2)CC1

>  <smiles>  (331) 
[H]c1nc(C([H])([H])[H])c(C(=O)N2C([H])([H])C([H])([H])C(c3c([H])c([H])c([H])c([H])c3[H])(C([H])([H])C([H])([H])[N+]3([H])C4([H])C([H])([H])C([H])([H])C3([H])C([H])([H])C([H])(n3c([H])nc5c([H])c([H])c([H])c([H])c53)C4([H])[H])C([H])([H])C2([H])[H])c([H])c1[H]

$$$$
97:0:1
     RDKit          3D

 80 86  0  0  1  0  0  0  0  0999 V2000
   -0.8435   -8.4417    3.1012 C   0  0  0  0  0  0  0  0  0  0  0  0
    0.5135   -9.1062    2.8805 C   0  0  0  0  0  0  0  0  0  0  0  0
    0.6032  -10.3382    3.4154 N   0  0  0  0  0  0  0  0  0  0  0  0
    1.7459  -11.0419    3.2848 C   0  0  0  0  0  0  0  0  0  0  0  0
    2.8565  -10.5330    2.6008 C   0  0  0  0  0  0  0  0  0  0  0  0
    2.7613   -9.2682    1.9981 C   0  0  0  0  0  0  0  0  0  0  0  0
    1.6105   -8.4781    2.1966 C   0  0  0  0  0  0  0  0  0  0  0  0
    1.5607   -7.0603    1.6952 C   0  0  0  0  0  0  0  0  0  0  0  0
    0.6046   -6.6939    0.9958 O   0  0  0  0  0  0  0  0  0  0  0  0
    2.5229   -6.1865    2.1071 N   0  0  0  0  0  0  0  0  0  0  0  0
    3.7833   -6.4871    2.8246 C   0  0  0  0  0  0  0  0  0  0  0  0
    4.9614   -5.9526    1.9927 C   0  0  0  0  0  0  0  0  0  0  0  0
    4.8780   -4.4284    1.7325 C   0  0  0  0  0  0  0  0  0  0  0  0
    5.0116   -3.6844    3.0949 C   0  0  0  0  0  0  0  0  0  0  0  0
    4.9360   -2.1456    3.0023 C   0  0  0  0  0  0  0  0  0  0  0  0
    5.1449   -1.4898    4.3220 N   0  0  2  0  0  0  0  0  0  0  0  0
    4.1466   -1.6974    5.3970 C   0  0  1  0  0  0  0  0  0  0  0  0
    4.7157   -0.8296    6.5310 C   0  0  0  0  0  0  0  0  0  0  0  0
    5.5074    0.2838    5.8060 C   0  0  0  0  0  0  0  0  0  0  0  0
    5.3287   -0.0242    4.3110 C   0  0  2  0  0  0  0  0  0  0  0  0
    4.0672    0.6575    3.7180 C   0  0  0  0  0  0  0  0  0  0  0  0
    2.7889    0.3025    4.5151 C   0  0  1  0  0  0  0  0  0  0  0  0
    1.5942    0.6309    3.7586 N   0  0  0  0  0  0  0  0  0  0  0  0
    1.2455    0.1448    2.5564 C   0  0  0  0  0  0  0  0  0  0  0  0
    0.0743    0.5465    2.0744 N   0  0  0  0  0  0  0  0  0  0  0  0
   -0.3685    1.4034    3.0584 C   0  0  0  0  0  0  0  0  0  0  0  0
   -1.5594    2.1466    3.1167 C   0  0  0  0  0  0  0  0  0  0  0  0
   -1.8386    2.9434    4.2456 C   0  0  0  0  0  0  0  0  0  0  0  0
   -0.9238    2.9988    5.3179 C   0  0  0  0  0  0  0  0  0  0  0  0
    0.2738    2.2632    5.2689 C   0  0  0  0  0  0  0  0  0  0  0  0
    0.5478    1.4711    4.1370 C   0  0  0  0  0  0  0  0  0  0  0  0
    2.7531   -1.1837    4.9516 C   0  0  0  0  0  0  0  0  0  0  0  0
    6.0335   -3.9714    0.8267 C   0  0  0  0  0  0  0  0  0  0  0  0
    7.3634   -4.2566    1.2100 C   0  0  0  0  0  0  0  0  0  0  0  0
    8.4501   -3.8180    0.4407 C   0  0  0  0  0  0  0  0  0  0  0  0
    8.2094   -3.0978   -0.7449 C   0  0  0  0  0  0  0  0  0  0  0  0
    6.8969   -2.8216   -1.1603 C   0  0  0  0  0  0  0  0  0  0  0  0
    5.8196   -3.2495   -0.3750 C   0  0  0  0  0  0  0  0  0  0  0  0
    3.4923   -4.1457    1.0842 C   0  0  0  0  0  0  0  0  0  0  0  0
    2.3392   -4.7363    1.9031 C   0  0  0  0  0  0  0  0  0  0  0  0
   -1.1385   -7.7982    2.2777 H   0  0  0  0  0  0  0  0  0  0  0  0
   -0.8649   -7.8632    4.0265 H   0  0  0  0  0  0  0  0  0  0  0  0
   -1.6208   -9.2058    3.1714 H   0  0  0  0  0  0  0  0  0  0  0  0
    1.7648  -12.0253    3.7349 H   0  0  0  0  0  0  0  0  0  0  0  0
    3.7524  -11.1226    2.5018 H   0  0  0  0  0  0  0  0  0  0  0  0
    3.5934   -8.9016    1.4084 H   0  0  0  0  0  0  0  0  0  0  0  0
    3.7383   -6.0082    3.8030 H   0  0  0  0  0  0  0  0  0  0  0  0
    4.0115   -7.5361    3.0191 H   0  0  0  0  0  0  0  0  0  0  0  0
    5.8869   -6.2098    2.4960 H   0  0  0  0  0  0  0  0  0  0  0  0
    5.0049   -6.4568    1.0296 H   0  0  0  0  0  0  0  0  0  0  0  0
    4.2447   -3.9984    3.7970 H   0  0  0  0  0  0  0  0  0  0  0  0
    5.9460   -3.9703    3.5835 H   0  0  0  0  0  0  0  0  0  0  0  0
    5.7243   -1.7841    2.3385 H   0  0  0  0  0  0  0  0  0  0  0  0
    3.9822   -1.8342    2.5714 H   0  0  0  0  0  0  0  0  0  0  0  0
    4.0790   -2.7492    5.6923 H   0  0  0  0  0  0  0  0  0  0  0  0
    3.9332   -0.4320    7.1790 H   0  0  0  0  0  0  0  0  0  0  0  0
    5.3897   -1.4237    7.1481 H   0  0  0  0  0  0  0  0  0  0  0  0
    5.1643    1.2835    6.0628 H   0  0  0  0  0  0  0  0  0  0  0  0
    6.5616    0.2174    6.0754 H   0  0  0  0  0  0  0  0  0  0  0  0
    6.2172    0.2344    3.7270 H   0  0  0  0  0  0  0  0  0  0  0  0
    4.2014    1.7378    3.7066 H   0  0  0  0  0  0  0  0  0  0  0  0
    3.9728    0.3732    2.6685 H   0  0  0  0  0  0  0  0  0  0  0  0
    2.8002    0.9090    5.4228 H   0  0  0  0  0  0  0  0  0  0  0  0
    1.8722   -0.5630    2.0111 H   0  0  0  0  0  0  0  0  0  0  0  0
   -2.2535    2.0870    2.2931 H   0  0  0  0  0  0  0  0  0  0  0  0
   -2.7578    3.4994    4.2817 H   0  0  0  0  0  0  0  0  0  0  0  0
   -1.1333    3.6091    6.1839 H   0  0  0  0  0  0  0  0  0  0  0  0
    0.9799    2.2942    6.0787 H   0  0  0  0  0  0  0  0  0  0  0  0
    2.3814   -1.8194    4.1453 H   0  0  0  0  0  0  0  0  0  0  0  0
    2.0386   -1.2992    5.7705 H   0  0  0  0  0  0  0  0  0  0  0  0
    7.5689   -4.8016    2.1147 H   0  0  0  0  0  0  0  0  0  0  0  0
    9.4531   -4.0252    0.7805 H   0  0  0  0  0  0  0  0  0  0  0  0
    9.0157   -2.7519   -1.3618 H   0  0  0  0  0  0  0  0  0  0  0  0
    6.7081   -2.2779   -2.0738 H   0  0  0  0  0  0  0  0  0  0  0  0
    4.8356   -3.0031   -0.7283 H   0  0  0  0  0  0  0  0  0  0  0  0
    3.3131   -3.0751    0.9330 H   0  0  0  0  0  0  0  0  0  0  0  0
    3.4486   -4.5974    0.0910 H   0  0  0  0  0  0  0  0  0  0  0  0
    1.4206   -4.4994    1.3767 H   0  0  0  0  0  0  0  0  0  0  0  0
    2.2373   -4.2239    2.8609 H   0  0  0  0  0  0  0  0  0  0  0  0
    6.0093   -1.8848    4.6836 H   0  0  0  0  0  0  0  0  0  0  0  0
  1  2  1  0
  1 41  1  0
  1 42  1  0
  1 43  1  0
  2  7  2  0
  2  3  1  0
  3  4  2  0
  4  5  1  0
  4 44  1  0
  5  6  2  0
  5 45  1  0
  6  7  1  0
  6 46  1  0
  7  8  1  0
  8  9  2  0
  8 10  1  0
 10 40  1  0
 10 11  1  0
 11 12  1  0
 11 47  1  0
 11 48  1  0
 12 13  1  0
 12 49  1  0
 12 50  1  0
 13 14  1  0
 13 33  1  0
 13 39  1  0
 14 15  1  0
 14 51  1  0
 14 52  1  0
 15 16  1  0
 15 53  1  0
 15 54  1  0
 16 20  1  0
 16 17  1  0
 16 80  1  1
 17 32  1  0
 17 18  1  0
 17 55  1  1
 18 19  1  0
 18 56  1  0
 18 57  1  0
 19 20  1  0
 19 58  1  0
 19 59  1  0
 20 21  1  0
 20 60  1  6
 21 22  1  0
 21 61  1  0
 21 62  1  0
 22 23  1  0
 22 32  1  0
 22 63  1  1
 23 31  1  0
 23 24  1  0
 24 25  2  0
 24 64  1  0
 25 26  1  0
 26 31  2  0
 26 27  1  0
 27 28  2  0
 27 65  1  0
 28 29  1  0
 28 66  1  0
 29 30  2  0
 29 67  1  0
 30 31  1  0
 30 68  1  0
 32 69  1  0
 32 70  1  0
 33 38  1  0
 33 34  2  0
 34 35  1  0
 34 71  1  0
 35 36  2  0
 35 72  1  0
 36 37  1  0
 36 73  1  0
 37 38  2  0
 37 74  1  0
 38 75  1  0
 39 40  1  0
 39 76  1  0
 39 77  1  0
 40 78  1  0
 40 79  1  0
M  CHG  1  16   1
M  END
>  <i_m_ct_stereo_status>  (332) 
1

>  <s_m_source_file>  (332) 
/var/tmp/pbs.5076255.sched01/tmpxe1g82q3/12669a6jj4p.sdf

>  <i_m_source_file_index>  (332) 
2

>  <i_lp_mmshare_version>  (332) 
48012

>  <i_f3d_flags>  (332) 
0

>  <s_epik_input>  (332) 
W0NIM11jMW5bY0hdW2NIXVtjSF1jMUMoPU8pTihbQ0gyXVtDSDJdMilbQ0gyXVtDSDJdQzIoYzNbY0hdW2NIXVtjSF1bY0hdW2NIXTMpW0NIMl1bQ0gyXU4oW0NAQEhdNDUpW0NASF0oW0NIMl1bQ0gyXTQpW0NIMl1bQ0BIXShbQ0gyXTUpbihbY0hdbjYpYyhjNjcpW2NIXVtjSF1bY0hdW2NIXTc=

>  <s_epik_cmdline>  (332) 
J2VwaWtfcHl0aG9uJywgJy1waHQnLCAnMi4wJywgJy1waCcsICc3LjAnLCAnLXRuJywgJzgnLCAnLW1hJywgJzIwMCcsICctaW1hZScsICc8aW5maWxlLm1hZT4nLCAnLW9tYWUnLCAnPG91dGZpbGUubWFlPic=

>  <r_epik_Ionization_Penalty>  (332) 
0.047045

>  <r_epik_Ionization_Penalty_Charging>  (332) 
0.00195196

>  <r_epik_Ionization_Penalty_Neutral>  (332) 
0.045093

>  <r_epik_State_Penalty>  (332) 
0.0372816

>  <r_epik_Charging_Adjusted_Penalty>  (332) 
0.0392336

>  <i_epik_Tot_Q>  (332) 
1

>  <i_epik_Tot_abs_Q>  (332) 
1

>  <s_lp_Force_Field>  (332) 
OPLS3e

>  <r_lp_Energy>  (332) 
73.8619

>  <b_lp_Chiralities_Consistent>  (332) 
1

>  <s_lp_Variant>  (332) 
97:0-1

>  <s_i_glide_gridfile>  (332) 
pfpi4k_grid

>  <i_i_glide_lignum>  (332) 
2

>  <i_i_glide_rotatable_bonds>  (332) 
7

>  <r_i_docking_score>  (332) 
-2.89456

>  <r_i_glide_ligand_efficiency>  (332) 
-0.072364

>  <r_i_glide_ligand_efficiency_sa>  (332) 
-0.247481

>  <r_i_glide_ligand_efficiency_ln>  (332) 
-0.617324

>  <r_i_glide_gscore>  (332) 
-2.89456

>  <r_i_glide_lipo>  (332) 
-0.856232

>  <r_i_glide_hbond>  (332) 
-0.105151

>  <r_i_glide_metal>  (332) 
-0

>  <r_i_glide_rewards>  (332) 
0

>  <r_i_glide_evdw>  (332) 
-39.5014

>  <r_i_glide_ecoul>  (332) 
-2.52454

>  <r_i_glide_erotb>  (332) 
0.505317

>  <r_i_glide_esite>  (332) 
-0.0847446

>  <r_i_glide_emodel>  (332) 
-47.2768

>  <r_i_glide_energy>  (332) 
-42.0259

>  <r_i_glide_einternal>  (332) 
1.95953

>  <r_i_glide_intrahb_reward>  (332) 
-0

>  <i_i_glide_confnum>  (332) 
5

>  <i_i_glide_posenum>  (332) 
2

>  <r_i_glide_eff_state_penalty>  (332) 
0

>  <ligand_id>  (332) 
97

>  <original_smiles>  (332) 
Cc1ncccc1C(=O)N1CCC(CCN2C3CCC2CC(n2cnc4ccccc42)C3)(c2ccccc2)CC1

>  <smiles>  (332) 
[H]c1nc(C([H])([H])[H])c(C(=O)N2C([H])([H])C([H])([H])C(c3c([H])c([H])c([H])c([H])c3[H])(C([H])([H])C([H])([H])[N+]3([H])C4([H])C([H])([H])C([H])([H])C3([H])C([H])([H])C([H])(n3c([H])nc5c([H])c([H])c([H])c([H])c53)C4([H])[H])C([H])([H])C2([H])[H])c([H])c1[H]

$$$$
97:0:2
     RDKit          3D

 80 86  0  0  1  0  0  0  0  0999 V2000
    3.5159   -9.3674    1.0491 C   0  0  0  0  0  0  0  0  0  0  0  0
    2.6831   -9.6269    2.3108 C   0  0  0  0  0  0  0  0  0  0  0  0
    2.9048  -10.8152    2.8937 N   0  0  0  0  0  0  0  0  0  0  0  0
    2.2116  -11.1677    3.9836 C   0  0  0  0  0  0  0  0  0  0  0  0
    1.2522  -10.3328    4.5843 C   0  0  0  0  0  0  0  0  0  0  0  0
    1.0134   -9.0738    3.9938 C   0  0  0  0  0  0  0  0  0  0  0  0
    1.7439   -8.6896    2.8410 C   0  0  0  0  0  0  0  0  0  0  0  0
    1.4765   -7.3239    2.2676 C   0  0  0  0  0  0  0  0  0  0  0  0
    0.3525   -7.0851    1.8189 O   0  0  0  0  0  0  0  0  0  0  0  0
    2.4287   -6.3764    2.4129 N   0  0  0  0  0  0  0  0  0  0  0  0
    3.8585   -6.5893    2.7588 C   0  0  0  0  0  0  0  0  0  0  0  0
    4.7259   -5.9407    1.6353 C   0  0  0  0  0  0  0  0  0  0  0  0
    4.4456   -4.4342    1.4272 C   0  0  0  0  0  0  0  0  0  0  0  0
    4.8960   -3.6930    2.7220 C   0  0  0  0  0  0  0  0  0  0  0  0
    4.6037   -2.1897    2.7083 C   0  0  0  0  0  0  0  0  0  0  0  0
    5.2643   -1.4871    3.8332 N   0  0  2  0  0  0  0  0  0  0  0  0
    4.9261   -1.8407    5.2175 C   0  0  1  0  0  0  0  0  0  0  0  0
    5.7742   -0.8717    6.0511 C   0  0  0  0  0  0  0  0  0  0  0  0
    5.9655    0.3563    5.1119 C   0  0  0  0  0  0  0  0  0  0  0  0
    5.2090   -0.0426    3.8300 C   0  0  2  0  0  0  0  0  0  0  0  0
    3.7230    0.4276    3.8955 C   0  0  0  0  0  0  0  0  0  0  0  0
    2.9784   -0.1326    5.1493 C   0  0  1  0  0  0  0  0  0  0  0  0
    1.5227   -0.0291    5.0236 N   0  0  0  0  0  0  0  0  0  0  0  0
    0.6008   -0.9431    5.3791 C   0  0  0  0  0  0  0  0  0  0  0  0
   -0.6819   -0.6299    5.1711 N   0  0  0  0  0  0  0  0  0  0  0  0
   -0.5706    0.6501    4.6512 C   0  0  0  0  0  0  0  0  0  0  0  0
   -1.5855    1.5264    4.2305 C   0  0  0  0  0  0  0  0  0  0  0  0
   -1.2634    2.8104    3.7424 C   0  0  0  0  0  0  0  0  0  0  0  0
    0.0873    3.2327    3.6822 C   0  0  0  0  0  0  0  0  0  0  0  0
    1.1117    2.3691    4.1083 C   0  0  0  0  0  0  0  0  0  0  0  0
    0.7891    1.0759    4.5736 C   0  0  0  0  0  0  0  0  0  0  0  0
    3.4253   -1.5872    5.4693 C   0  0  0  0  0  0  0  0  0  0  0  0
    5.2646   -3.9032    0.2371 C   0  0  0  0  0  0  0  0  0  0  0  0
    6.6834   -3.9139    0.3076 C   0  0  0  0  0  0  0  0  0  0  0  0
    7.4718   -3.3755   -0.7305 C   0  0  0  0  0  0  0  0  0  0  0  0
    6.8457   -2.8503   -1.8835 C   0  0  0  0  0  0  0  0  0  0  0  0
    5.4372   -2.8550   -1.9887 C   0  0  0  0  0  0  0  0  0  0  0  0
    4.6549   -3.3708   -0.9345 C   0  0  0  0  0  0  0  0  0  0  0  0
    2.9038   -4.2869    1.2021 C   0  0  0  0  0  0  0  0  0  0  0  0
    2.0811   -4.9429    2.3075 C   0  0  0  0  0  0  0  0  0  0  0  0
    3.7227   -8.3138    0.9370 H   0  0  0  0  0  0  0  0  0  0  0  0
    3.0222   -9.7993    0.1694 H   0  0  0  0  0  0  0  0  0  0  0  0
    4.4796   -9.8869    1.1588 H   0  0  0  0  0  0  0  0  0  0  0  0
    2.4240  -12.1465    4.3995 H   0  0  0  0  0  0  0  0  0  0  0  0
    0.7224  -10.6610    5.4651 H   0  0  0  0  0  0  0  0  0  0  0  0
    0.2908   -8.4152    4.4412 H   0  0  0  0  0  0  0  0  0  0  0  0
    4.0243   -6.0955    3.7228 H   0  0  0  0  0  0  0  0  0  0  0  0
    4.1553   -7.6315    2.8374 H   0  0  0  0  0  0  0  0  0  0  0  0
    5.7727   -6.1325    1.8479 H   0  0  0  0  0  0  0  0  0  0  0  0
    4.5428   -6.4028    0.6691 H   0  0  0  0  0  0  0  0  0  0  0  0
    4.4115   -4.0841    3.6117 H   0  0  0  0  0  0  0  0  0  0  0  0
    5.9636   -3.8485    2.9155 H   0  0  0  0  0  0  0  0  0  0  0  0
    4.9754   -1.7425    1.7868 H   0  0  0  0  0  0  0  0  0  0  0  0
    3.5190   -2.0248    2.7247 H   0  0  0  0  0  0  0  0  0  0  0  0
    5.1628   -2.8900    5.4474 H   0  0  0  0  0  0  0  0  0  0  0  0
    5.2952   -0.6079    6.9913 H   0  0  0  0  0  0  0  0  0  0  0  0
    6.7377   -1.3214    6.2733 H   0  0  0  0  0  0  0  0  0  0  0  0
    5.6220    1.2819    5.5480 H   0  0  0  0  0  0  0  0  0  0  0  0
    7.0286    0.4686    4.8881 H   0  0  0  0  0  0  0  0  0  0  0  0
    5.6842    0.3605    2.9309 H   0  0  0  0  0  0  0  0  0  0  0  0
    3.7683    1.5007    3.8833 H   0  0  0  0  0  0  0  0  0  0  0  0
    3.1934    0.1161    2.9870 H   0  0  0  0  0  0  0  0  0  0  0  0
    3.2814    0.4899    6.0012 H   0  0  0  0  0  0  0  0  0  0  0  0
    0.8537   -1.9126    5.8188 H   0  0  0  0  0  0  0  0  0  0  0  0
   -2.5948    1.1990    4.2639 H   0  0  0  0  0  0  0  0  0  0  0  0
   -2.0368    3.4659    3.3905 H   0  0  0  0  0  0  0  0  0  0  0  0
    0.3487    4.1864    3.2722 H   0  0  0  0  0  0  0  0  0  0  0  0
    2.1207    2.7178    4.0428 H   0  0  0  0  0  0  0  0  0  0  0  0
    2.8804   -2.3001    4.8395 H   0  0  0  0  0  0  0  0  0  0  0  0
    3.1866   -1.8278    6.5045 H   0  0  0  0  0  0  0  0  0  0  0  0
    7.1890   -4.3364    1.1542 H   0  0  0  0  0  0  0  0  0  0  0  0
    8.5440   -3.3751   -0.6439 H   0  0  0  0  0  0  0  0  0  0  0  0
    7.4379   -2.4678   -2.6884 H   0  0  0  0  0  0  0  0  0  0  0  0
    4.9436   -2.4606   -2.8581 H   0  0  0  0  0  0  0  0  0  0  0  0
    3.5919   -3.3369   -1.0711 H   0  0  0  0  0  0  0  0  0  0  0  0
    2.6111   -3.2351    1.0912 H   0  0  0  0  0  0  0  0  0  0  0  0
    2.6042   -4.7710    0.2665 H   0  0  0  0  0  0  0  0  0  0  0  0
    1.0216   -4.7850    2.1057 H   0  0  0  0  0  0  0  0  0  0  0  0
    2.2321   -4.4470    3.2661 H   0  0  0  0  0  0  0  0  0  0  0  0
    6.2815   -1.7289    3.7326 H   0  0  0  0  0  0  0  0  0  0  0  0
  1  2  1  0
  1 41  1  0
  1 42  1  0
  1 43  1  0
  2  7  2  0
  2  3  1  0
  3  4  2  0
  4  5  1  0
  4 44  1  0
  5  6  2  0
  5 45  1  0
  6  7  1  0
  6 46  1  0
  7  8  1  0
  8  9  2  0
  8 10  1  0
 10 40  1  0
 10 11  1  0
 11 12  1  0
 11 47  1  0
 11 48  1  0
 12 13  1  0
 12 49  1  0
 12 50  1  0
 13 14  1  0
 13 33  1  0
 13 39  1  0
 14 15  1  0
 14 51  1  0
 14 52  1  0
 15 16  1  0
 15 53  1  0
 15 54  1  0
 16 20  1  0
 16 17  1  0
 16 80  1  1
 17 32  1  0
 17 18  1  0
 17 55  1  1
 18 19  1  0
 18 56  1  0
 18 57  1  0
 19 20  1  0
 19 58  1  0
 19 59  1  0
 20 21  1  0
 20 60  1  6
 21 22  1  0
 21 61  1  0
 21 62  1  0
 22 23  1  0
 22 32  1  0
 22 63  1  1
 23 31  1  0
 23 24  1  0
 24 25  2  0
 24 64  1  0
 25 26  1  0
 26 31  2  0
 26 27  1  0
 27 28  2  0
 27 65  1  0
 28 29  1  0
 28 66  1  0
 29 30  2  0
 29 67  1  0
 30 31  1  0
 30 68  1  0
 32 69  1  0
 32 70  1  0
 33 38  1  0
 33 34  2  0
 34 35  1  0
 34 71  1  0
 35 36  2  0
 35 72  1  0
 36 37  1  0
 36 73  1  0
 37 38  2  0
 37 74  1  0
 38 75  1  0
 39 40  1  0
 39 76  1  0
 39 77  1  0
 40 78  1  0
 40 79  1  0
M  CHG  1  16   1
M  END
>  <i_m_ct_stereo_status>  (333) 
1

>  <s_m_source_file>  (333) 
/var/tmp/pbs.5076255.sched01/tmpxe1g82q3/12669a6jj4p.sdf

>  <i_m_source_file_index>  (333) 
2

>  <i_lp_mmshare_version>  (333) 
48012

>  <i_f3d_flags>  (333) 
0

>  <s_epik_input>  (333) 
W0NIM11jMW5bY0hdW2NIXVtjSF1jMUMoPU8pTihbQ0gyXVtDSDJdMilbQ0gyXVtDSDJdQzIoYzNbY0hdW2NIXVtjSF1bY0hdW2NIXTMpW0NIMl1bQ0gyXU4oW0NAQEhdNDUpW0NASF0oW0NIMl1bQ0gyXTQpW0NIMl1bQ0BIXShbQ0gyXTUpbihbY0hdbjYpYyhjNjcpW2NIXVtjSF1bY0hdW2NIXTc=

>  <s_epik_cmdline>  (333) 
J2VwaWtfcHl0aG9uJywgJy1waHQnLCAnMi4wJywgJy1waCcsICc3LjAnLCAnLXRuJywgJzgnLCAnLW1hJywgJzIwMCcsICctaW1hZScsICc8aW5maWxlLm1hZT4nLCAnLW9tYWUnLCAnPG91dGZpbGUubWFlPic=

>  <r_epik_Ionization_Penalty>  (333) 
0.047045

>  <r_epik_Ionization_Penalty_Charging>  (333) 
0.00195196

>  <r_epik_Ionization_Penalty_Neutral>  (333) 
0.045093

>  <r_epik_State_Penalty>  (333) 
0.0372816

>  <r_epik_Charging_Adjusted_Penalty>  (333) 
0.0392336

>  <i_epik_Tot_Q>  (333) 
1

>  <i_epik_Tot_abs_Q>  (333) 
1

>  <s_lp_Force_Field>  (333) 
OPLS3e

>  <r_lp_Energy>  (333) 
73.8619

>  <b_lp_Chiralities_Consistent>  (333) 
1

>  <s_lp_Variant>  (333) 
97:0-1

>  <s_i_glide_gridfile>  (333) 
pfpi4k_grid

>  <i_i_glide_lignum>  (333) 
2

>  <i_i_glide_rotatable_bonds>  (333) 
7

>  <r_i_docking_score>  (333) 
-2.6932

>  <r_i_glide_ligand_efficiency>  (333) 
-0.0673301

>  <r_i_glide_ligand_efficiency_sa>  (333) 
-0.230266

>  <r_i_glide_ligand_efficiency_ln>  (333) 
-0.574381

>  <r_i_glide_gscore>  (333) 
-2.6932

>  <r_i_glide_lipo>  (333) 
-0.855769

>  <r_i_glide_hbond>  (333) 
0

>  <r_i_glide_metal>  (333) 
-0

>  <r_i_glide_rewards>  (333) 
0

>  <r_i_glide_evdw>  (333) 
-37.1335

>  <r_i_glide_ecoul>  (333) 
-2.96841

>  <r_i_glide_erotb>  (333) 
0.505317

>  <r_i_glide_esite>  (333) 
-0.0408122

>  <r_i_glide_emodel>  (333) 
-42.3327

>  <r_i_glide_energy>  (333) 
-40.1019

>  <r_i_glide_einternal>  (333) 
6.49564

>  <r_i_glide_intrahb_reward>  (333) 
-0

>  <i_i_glide_confnum>  (333) 
5

>  <i_i_glide_posenum>  (333) 
9

>  <r_i_glide_eff_state_penalty>  (333) 
0

>  <ligand_id>  (333) 
97

>  <original_smiles>  (333) 
Cc1ncccc1C(=O)N1CCC(CCN2C3CCC2CC(n2cnc4ccccc42)C3)(c2ccccc2)CC1

>  <smiles>  (333) 
[H]c1nc(C([H])([H])[H])c(C(=O)N2C([H])([H])C([H])([H])C(c3c([H])c([H])c([H])c([H])c3[H])(C([H])([H])C([H])([H])[N+]3([H])C4([H])C([H])([H])C([H])([H])C3([H])C([H])([H])C([H])(n3c([H])nc5c([H])c([H])c([H])c([H])c53)C4([H])[H])C([H])([H])C2([H])[H])c([H])c1[H]

$$$$
97:1:0
     RDKit          3D

 80 86  0  0  1  0  0  0  0  0999 V2000
    6.1456    1.5569    9.6488 C   0  0  0  0  0  0  0  0  0  0  0  0
    7.5321    1.0284    9.3012 C   0  0  0  0  0  0  0  0  0  0  0  0
    8.4624    2.0015    9.2483 N   0  0  0  0  0  0  0  0  0  0  0  0
    9.7536    1.6684    9.0750 C   0  0  0  0  0  0  0  0  0  0  0  0
   10.1816    0.3417    8.8788 C   0  0  0  0  0  0  0  0  0  0  0  0
    9.2051   -0.6739    8.8630 C   0  0  0  0  0  0  0  0  0  0  0  0
    7.8399   -0.3451    9.0464 C   0  0  0  0  0  0  0  0  0  0  0  0
    6.8188   -1.4551    8.9771 C   0  0  0  0  0  0  0  0  0  0  0  0
    7.0536   -2.4887    9.6123 O   0  0  0  0  0  0  0  0  0  0  0  0
    5.7197   -1.3012    8.1906 N   0  0  0  0  0  0  0  0  0  0  0  0
    4.6795   -2.3440    8.1078 C   0  0  0  0  0  0  0  0  0  0  0  0
    3.3067   -1.7289    8.4184 C   0  0  0  0  0  0  0  0  0  0  0  0
    2.9210   -0.5170    7.5213 C   0  0  0  0  0  0  0  0  0  0  0  0
    2.8668   -1.0090    6.0414 C   0  0  0  0  0  0  0  0  0  0  0  0
    2.6605    0.0847    4.9807 C   0  0  0  0  0  0  0  0  0  0  0  0
    3.1147   -0.3060    3.6591 N   0  0  1  0  0  0  0  0  0  0  0  0
    2.2237   -1.2933    3.0255 C   0  0  1  0  0  0  0  0  0  0  0  0
    1.0276   -0.4663    2.5015 C   0  0  0  0  0  0  0  0  0  0  0  0
    1.5977    0.9444    2.2904 C   0  0  0  0  0  0  0  0  0  0  0  0
    3.0747    0.8196    2.7042 C   0  0  2  0  0  0  0  0  0  0  0  0
    3.9814    0.4152    1.5434 C   0  0  0  0  0  0  0  0  0  0  0  0
    3.5065   -0.8988    0.8711 C   0  0  1  0  0  0  0  0  0  0  0  0
    4.5459   -1.4455    0.0256 N   0  0  0  0  0  0  0  0  0  0  0  0
    5.8738   -1.4614    0.2448 C   0  0  0  0  0  0  0  0  0  0  0  0
    6.6299   -2.0240   -0.6941 N   0  0  0  0  0  0  0  0  0  0  0  0
    5.6726   -2.4542   -1.5891 C   0  0  0  0  0  0  0  0  0  0  0  0
    5.8372   -3.1520   -2.7990 C   0  0  0  0  0  0  0  0  0  0  0  0
    4.7283   -3.4846   -3.5808 C   0  0  0  0  0  0  0  0  0  0  0  0
    3.4245   -3.1345   -3.1746 C   0  0  0  0  0  0  0  0  0  0  0  0
    3.2399   -2.4548   -1.9540 C   0  0  0  0  0  0  0  0  0  0  0  0
    4.3574   -2.1159   -1.1873 C   0  0  0  0  0  0  0  0  0  0  0  0
    3.0335   -1.9525    1.9033 C   0  0  0  0  0  0  0  0  0  0  0  0
    1.5878    0.1544    7.9647 C   0  0  0  0  0  0  0  0  0  0  0  0
    1.0692   -0.0420    9.2931 C   0  0  0  0  0  0  0  0  0  0  0  0
   -0.1527    0.5713    9.6764 C   0  0  0  0  0  0  0  0  0  0  0  0
   -0.8972    1.3498    8.7540 C   0  0  0  0  0  0  0  0  0  0  0  0
   -0.3670    1.5411    7.4604 C   0  0  0  0  0  0  0  0  0  0  0  0
    0.8603    1.0219    7.1311 C   0  0  0  0  0  0  0  0  0  0  0  0
    4.0821    0.4945    7.6515 C   0  0  0  0  0  0  0  0  0  0  0  0
    5.4689   -0.1440    7.2975 C   0  0  0  0  0  0  0  0  0  0  0  0
    5.5251    0.7822   10.0889 H   0  0  0  0  0  0  0  0  0  0  0  0
    5.6925    1.8905    8.7126 H   0  0  0  0  0  0  0  0  0  0  0  0
    6.1593    2.4072   10.3453 H   0  0  0  0  0  0  0  0  0  0  0  0
   10.4574    2.4849    9.1168 H   0  0  0  0  0  0  0  0  0  0  0  0
   11.2268    0.1238    8.7518 H   0  0  0  0  0  0  0  0  0  0  0  0
    9.5139   -1.6972    8.6814 H   0  0  0  0  0  0  0  0  0  0  0  0
    4.6886   -2.8112    7.1240 H   0  0  0  0  0  0  0  0  0  0  0  0
    4.8525   -3.1720    8.8056 H   0  0  0  0  0  0  0  0  0  0  0  0
    2.5277   -2.4921    8.3695 H   0  0  0  0  0  0  0  0  0  0  0  0
    3.3781   -1.4310    9.4643 H   0  0  0  0  0  0  0  0  0  0  0  0
    3.7940   -1.5050    5.7582 H   0  0  0  0  0  0  0  0  0  0  0  0
    2.1047   -1.7803    5.9481 H   0  0  0  0  0  0  0  0  0  0  0  0
    1.5980    0.2533    4.8631 H   0  0  0  0  0  0  0  0  0  0  0  0
    3.1534    1.0331    5.2165 H   0  0  0  0  0  0  0  0  0  0  0  0
    1.8957   -2.0622    3.7266 H   0  0  0  0  0  0  0  0  0  0  0  0
    0.5975   -0.8891    1.5971 H   0  0  0  0  0  0  0  0  0  0  0  0
    0.2267   -0.4300    3.2401 H   0  0  0  0  0  0  0  0  0  0  0  0
    1.4809    1.2990    1.2655 H   0  0  0  0  0  0  0  0  0  0  0  0
    1.0890    1.6677    2.9288 H   0  0  0  0  0  0  0  0  0  0  0  0
    3.4483    1.7472    3.1412 H   0  0  0  0  0  0  0  0  0  0  0  0
    4.0485    1.2121    0.8032 H   0  0  0  0  0  0  0  0  0  0  0  0
    4.9769    0.3008    1.9693 H   0  0  0  0  0  0  0  0  0  0  0  0
    2.6521   -0.6469    0.2411 H   0  0  0  0  0  0  0  0  0  0  0  0
    6.3293   -1.0320    1.1374 H   0  0  0  0  0  0  0  0  0  0  0  0
    6.8361   -3.4232   -3.1136 H   0  0  0  0  0  0  0  0  0  0  0  0
    4.8681   -4.0302   -4.4968 H   0  0  0  0  0  0  0  0  0  0  0  0
    2.5733   -3.4125   -3.7661 H   0  0  0  0  0  0  0  0  0  0  0  0
    2.2394   -2.2176   -1.6286 H   0  0  0  0  0  0  0  0  0  0  0  0
    3.8979   -2.4494    2.3502 H   0  0  0  0  0  0  0  0  0  0  0  0
    2.4379   -2.7306    1.4167 H   0  0  0  0  0  0  0  0  0  0  0  0
    1.5848   -0.6087   10.0528 H   0  0  0  0  0  0  0  0  0  0  0  0
   -0.5263    0.4457   10.6939 H   0  0  0  0  0  0  0  0  0  0  0  0
   -1.8171    1.8180    9.0345 H   0  0  0  0  0  0  0  0  0  0  0  0
   -0.8919    2.1419    6.7377 H   0  0  0  0  0  0  0  0  0  0  0  0
    1.2206    1.4008    6.1814 H   0  0  0  0  0  0  0  0  0  0  0  0
    3.9342    1.3962    7.0561 H   0  0  0  0  0  0  0  0  0  0  0  0
    4.0371    0.8658    8.6777 H   0  0  0  0  0  0  0  0  0  0  0  0
    6.2517    0.6259    7.3458 H   0  0  0  0  0  0  0  0  0  0  0  0
    5.5075   -0.4864    6.2547 H   0  0  0  0  0  0  0  0  0  0  0  0
    4.0600   -0.6629    3.7429 H   0  0  0  0  0  0  0  0  0  0  0  0
  1  2  1  0
  1 41  1  0
  1 42  1  0
  1 43  1  0
  2  7  2  0
  2  3  1  0
  3  4  2  0
  4  5  1  0
  4 44  1  0
  5  6  2  0
  5 45  1  0
  6  7  1  0
  6 46  1  0
  7  8  1  0
  8  9  2  0
  8 10  1  0
 10 40  1  0
 10 11  1  0
 11 12  1  0
 11 47  1  0
 11 48  1  0
 12 13  1  0
 12 49  1  0
 12 50  1  0
 13 14  1  0
 13 33  1  0
 13 39  1  0
 14 15  1  0
 14 51  1  0
 14 52  1  0
 15 16  1  0
 15 53  1  0
 15 54  1  0
 16 20  1  0
 16 17  1  0
 16 80  1  1
 17 32  1  0
 17 18  1  0
 17 55  1  1
 18 19  1  0
 18 56  1  0
 18 57  1  0
 19 20  1  0
 19 58  1  0
 19 59  1  0
 20 21  1  0
 20 60  1  1
 21 22  1  0
 21 61  1  0
 21 62  1  0
 22 23  1  0
 22 32  1  0
 22 63  1  6
 23 31  1  0
 23 24  1  0
 24 25  2  0
 24 64  1  0
 25 26  1  0
 26 31  2  0
 26 27  1  0
 27 28  2  0
 27 65  1  0
 28 29  1  0
 28 66  1  0
 29 30  2  0
 29 67  1  0
 30 31  1  0
 30 68  1  0
 32 69  1  0
 32 70  1  0
 33 38  1  0
 33 34  2  0
 34 35  1  0
 34 71  1  0
 35 36  2  0
 35 72  1  0
 36 37  1  0
 36 73  1  0
 37 38  2  0
 37 74  1  0
 38 75  1  0
 39 40  1  0
 39 76  1  0
 39 77  1  0
 40 78  1  0
 40 79  1  0
M  CHG  1  16   1
M  END
>  <i_m_ct_stereo_status>  (334) 
1

>  <s_m_source_file>  (334) 
/var/tmp/pbs.5076255.sched01/tmpxe1g82q3/12669a6jj4p.sdf

>  <i_m_source_file_index>  (334) 
3

>  <i_lp_mmshare_version>  (334) 
48012

>  <i_f3d_flags>  (334) 
0

>  <s_epik_input>  (334) 
W0NIM11jMW5bY0hdW2NIXVtjSF1jMUMoPU8pTihbQ0gyXVtDSDJdMilbQ0gyXVtDSDJdQzIoYzNbY0hdW2NIXVtjSF1bY0hdW2NIXTMpW0NIMl1bQ0gyXU4oW0NAQEhdNDUpW0NASF0oW0NIMl1bQ0gyXTQpW0NIMl1bQ0BIXShbQ0gyXTUpbihbY0hdbjYpYyhjNjcpW2NIXVtjSF1bY0hdW2NIXTc=

>  <s_epik_cmdline>  (334) 
J2VwaWtfcHl0aG9uJywgJy1waHQnLCAnMi4wJywgJy1waCcsICc3LjAnLCAnLXRuJywgJzgnLCAnLW1hJywgJzIwMCcsICctaW1hZScsICc8aW5maWxlLm1hZT4nLCAnLW9tYWUnLCAnPG91dGZpbGUubWFlPic=

>  <r_epik_Ionization_Penalty>  (334) 
0.047045

>  <r_epik_Ionization_Penalty_Charging>  (334) 
0.00195196

>  <r_epik_Ionization_Penalty_Neutral>  (334) 
0.045093

>  <r_epik_State_Penalty>  (334) 
0.0372816

>  <r_epik_Charging_Adjusted_Penalty>  (334) 
0.0392336

>  <i_epik_Tot_Q>  (334) 
1

>  <i_epik_Tot_abs_Q>  (334) 
1

>  <s_lp_Force_Field>  (334) 
OPLS3e

>  <r_lp_Energy>  (334) 
73.7709

>  <b_lp_Chiralities_Consistent>  (334) 
1

>  <s_lp_Variant>  (334) 
97:0-2

>  <s_i_glide_gridfile>  (334) 
pfpi4k_grid

>  <i_i_glide_lignum>  (334) 
3

>  <i_i_glide_rotatable_bonds>  (334) 
7

>  <r_i_docking_score>  (334) 
-2.94864

>  <r_i_glide_ligand_efficiency>  (334) 
-0.0737159

>  <r_i_glide_ligand_efficiency_sa>  (334) 
-0.252105

>  <r_i_glide_ligand_efficiency_ln>  (334) 
-0.628858

>  <r_i_glide_gscore>  (334) 
-2.94864

>  <r_i_glide_lipo>  (334) 
-0.833745

>  <r_i_glide_hbond>  (334) 
-0.148098

>  <r_i_glide_metal>  (334) 
-0

>  <r_i_glide_rewards>  (334) 
-0.075532

>  <r_i_glide_evdw>  (334) 
-31.3815

>  <r_i_glide_ecoul>  (334) 
-7.91237

>  <r_i_glide_erotb>  (334) 
0.505317

>  <r_i_glide_esite>  (334) 
-0.0171605

>  <r_i_glide_emodel>  (334) 
-39.9679

>  <r_i_glide_energy>  (334) 
-39.2938

>  <r_i_glide_einternal>  (334) 
4.50814

>  <r_i_glide_intrahb_reward>  (334) 
-0

>  <i_i_glide_confnum>  (334) 
8

>  <i_i_glide_posenum>  (334) 
12

>  <r_i_glide_eff_state_penalty>  (334) 
0

>  <ligand_id>  (334) 
97

>  <original_smiles>  (334) 
Cc1ncccc1C(=O)N1CCC(CCN2C3CCC2CC(n2cnc4ccccc42)C3)(c2ccccc2)CC1

>  <smiles>  (334) 
[H]c1nc(C([H])([H])[H])c(C(=O)N2C([H])([H])C([H])([H])C(c3c([H])c([H])c([H])c([H])c3[H])(C([H])([H])C([H])([H])[N+]3([H])C4([H])C([H])([H])C([H])([H])C3([H])C([H])([H])C([H])(n3c([H])nc5c([H])c([H])c([H])c([H])c53)C4([H])[H])C([H])([H])C2([H])[H])c([H])c1[H]

$$$$
97:1:1
     RDKit          3D

 80 86  0  0  1  0  0  0  0  0999 V2000
    5.6235   -0.9173    9.8700 C   0  0  0  0  0  0  0  0  0  0  0  0
    6.8858   -1.6621    9.4646 C   0  0  0  0  0  0  0  0  0  0  0  0
    7.9910   -0.9454    9.7352 N   0  0  0  0  0  0  0  0  0  0  0  0
    9.1921   -1.4550    9.4204 C   0  0  0  0  0  0  0  0  0  0  0  0
    9.3512   -2.7265    8.8423 C   0  0  0  0  0  0  0  0  0  0  0  0
    8.2061   -3.4706    8.5027 C   0  0  0  0  0  0  0  0  0  0  0  0
    6.9312   -2.9266    8.7879 C   0  0  0  0  0  0  0  0  0  0  0  0
    5.7009   -3.7127    8.3615 C   0  0  0  0  0  0  0  0  0  0  0  0
    5.6402   -4.9003    8.6799 O   0  0  0  0  0  0  0  0  0  0  0  0
    4.7054   -3.0936    7.6553 N   0  0  0  0  0  0  0  0  0  0  0  0
    3.3921   -3.7526    7.4558 C   0  0  0  0  0  0  0  0  0  0  0  0
    2.2481   -2.8178    7.8748 C   0  0  0  0  0  0  0  0  0  0  0  0
    2.2505   -1.4137    7.1710 C   0  0  0  0  0  0  0  0  0  0  0  0
    2.0936   -1.6391    5.6367 C   0  0  0  0  0  0  0  0  0  0  0  0
    2.2914   -0.3990    4.7493 C   0  0  0  0  0  0  0  0  0  0  0  0
    2.8319   -0.6652    3.4572 N   0  0  1  0  0  0  0  0  0  0  0  0
    1.8302   -1.2140    2.5135 C   0  0  1  0  0  0  0  0  0  0  0  0
    1.0252    0.0390    2.0607 C   0  0  0  0  0  0  0  0  0  0  0  0
    1.9892    1.2179    2.2283 C   0  0  0  0  0  0  0  0  0  0  0  0
    3.2722    0.5702    2.7779 C   0  0  2  0  0  0  0  0  0  0  0  0
    4.2221    0.1118    1.6952 C   0  0  0  0  0  0  0  0  0  0  0  0
    3.5501   -0.8717    0.7037 C   0  0  1  0  0  0  0  0  0  0  0  0
    4.5562   -1.5484   -0.1181 N   0  0  0  0  0  0  0  0  0  0  0  0
    5.8338   -1.7787    0.1581 C   0  0  0  0  0  0  0  0  0  0  0  0
    6.5630   -2.4219   -0.7612 N   0  0  0  0  0  0  0  0  0  0  0  0
    5.5788   -2.6759   -1.7155 C   0  0  0  0  0  0  0  0  0  0  0  0
    5.7056   -3.3550   -2.9220 C   0  0  0  0  0  0  0  0  0  0  0  0
    4.5937   -3.4984   -3.7935 C   0  0  0  0  0  0  0  0  0  0  0  0
    3.3404   -2.9532   -3.4298 C   0  0  0  0  0  0  0  0  0  0  0  0
    3.2092   -2.2800   -2.2144 C   0  0  0  0  0  0  0  0  0  0  0  0
    4.3284   -2.1368   -1.3547 C   0  0  0  0  0  0  0  0  0  0  0  0
    2.6182   -1.8907    1.3955 C   0  0  0  0  0  0  0  0  0  0  0  0
    1.1745   -0.4550    7.7805 C   0  0  0  0  0  0  0  0  0  0  0  0
    0.8639   -0.4886    9.2039 C   0  0  0  0  0  0  0  0  0  0  0  0
   -0.1081    0.4144    9.7023 C   0  0  0  0  0  0  0  0  0  0  0  0
   -0.7836    1.3525    8.8896 C   0  0  0  0  0  0  0  0  0  0  0  0
   -0.4381    1.3903    7.5137 C   0  0  0  0  0  0  0  0  0  0  0  0
    0.5250    0.5442    6.9602 C   0  0  0  0  0  0  0  0  0  0  0  0
    3.6705   -0.8209    7.4207 C   0  0  0  0  0  0  0  0  0  0  0  0
    4.8203   -1.7885    6.9639 C   0  0  0  0  0  0  0  0  0  0  0  0
    4.7838   -1.6045    9.9662 H   0  0  0  0  0  0  0  0  0  0  0  0
    5.4310   -0.2195    9.0659 H   0  0  0  0  0  0  0  0  0  0  0  0
    5.7301   -0.3210   10.7822 H   0  0  0  0  0  0  0  0  0  0  0  0
   10.0270   -0.8334    9.6995 H   0  0  0  0  0  0  0  0  0  0  0  0
   10.3318   -3.1129    8.6731 H   0  0  0  0  0  0  0  0  0  0  0  0
    8.2989   -4.4512    8.0369 H   0  0  0  0  0  0  0  0  0  0  0  0
    3.2943   -4.0555    6.4242 H   0  0  0  0  0  0  0  0  0  0  0  0
    3.2924   -4.6799    8.0139 H   0  0  0  0  0  0  0  0  0  0  0  0
    1.2686   -3.2950    7.7744 H   0  0  0  0  0  0  0  0  0  0  0  0
    2.4011   -2.6638    8.9342 H   0  0  0  0  0  0  0  0  0  0  0  0
    2.8358   -2.3485    5.2620 H   0  0  0  0  0  0  0  0  0  0  0  0
    1.1270   -2.1187    5.4508 H   0  0  0  0  0  0  0  0  0  0  0  0
    1.3148   -0.0025    4.5425 H   0  0  0  0  0  0  0  0  0  0  0  0
    2.8339    0.4318    5.2181 H   0  0  0  0  0  0  0  0  0  0  0  0
    1.1771   -1.9473    3.0003 H   0  0  0  0  0  0  0  0  0  0  0  0
    0.6482    0.0008    1.0470 H   0  0  0  0  0  0  0  0  0  0  0  0
    0.1335    0.1848    2.6672 H   0  0  0  0  0  0  0  0  0  0  0  0
    2.1676    1.7567    1.2940 H   0  0  0  0  0  0  0  0  0  0  0  0
    1.5894    1.9343    2.9446 H   0  0  0  0  0  0  0  0  0  0  0  0
    3.8135    1.2483    3.4511 H   0  0  0  0  0  0  0  0  0  0  0  0
    4.6076    0.9583    1.1059 H   0  0  0  0  0  0  0  0  0  0  0  0
    5.0376   -0.3368    2.2639 H   0  0  0  0  0  0  0  0  0  0  0  0
    2.9204   -0.2693    0.0656 H   0  0  0  0  0  0  0  0  0  0  0  0
    6.3448   -1.4686    1.0712 H   0  0  0  0  0  0  0  0  0  0  0  0
    6.6622   -3.7613   -3.1789 H   0  0  0  0  0  0  0  0  0  0  0  0
    4.7120   -4.0329   -4.7161 H   0  0  0  0  0  0  0  0  0  0  0  0
    2.4768   -3.0740   -4.0870 H   0  0  0  0  0  0  0  0  0  0  0  0
    2.2588   -1.8650   -1.9195 H   0  0  0  0  0  0  0  0  0  0  0  0
    3.2127   -2.6959    1.8365 H   0  0  0  0  0  0  0  0  0  0  0  0
    1.9287   -2.3456    0.6793 H   0  0  0  0  0  0  0  0  0  0  0  0
    1.3688   -1.1661    9.9018 H   0  0  0  0  0  0  0  0  0  0  0  0
   -0.3773    0.3896   10.7650 H   0  0  0  0  0  0  0  0  0  0  0  0
   -1.5442    2.0534    9.2303 H   0  0  0  0  0  0  0  0  0  0  0  0
   -0.8703    2.0614    6.8022 H   0  0  0  0  0  0  0  0  0  0  0  0
    0.6649    0.8028    5.9714 H   0  0  0  0  0  0  0  0  0  0  0  0
    3.8542    0.1607    6.9749 H   0  0  0  0  0  0  0  0  0  0  0  0
    3.6797   -0.6049    8.4830 H   0  0  0  0  0  0  0  0  0  0  0  0
    5.7813   -1.2897    7.0939 H   0  0  0  0  0  0  0  0  0  0  0  0
    4.8576   -1.9608    5.8840 H   0  0  0  0  0  0  0  0  0  0  0  0
    3.6308   -1.3211    3.5587 H   0  0  0  0  0  0  0  0  0  0  0  0
  1  2  1  0
  1 41  1  0
  1 42  1  0
  1 43  1  0
  2  7  2  0
  2  3  1  0
  3  4  2  0
  4  5  1  0
  4 44  1  0
  5  6  2  0
  5 45  1  0
  6  7  1  0
  6 46  1  0
  7  8  1  0
  8  9  2  0
  8 10  1  0
 10 40  1  0
 10 11  1  0
 11 12  1  0
 11 47  1  0
 11 48  1  0
 12 13  1  0
 12 49  1  0
 12 50  1  0
 13 14  1  0
 13 33  1  0
 13 39  1  0
 14 15  1  0
 14 51  1  0
 14 52  1  0
 15 16  1  0
 15 53  1  0
 15 54  1  0
 16 20  1  0
 16 17  1  0
 16 80  1  1
 17 32  1  0
 17 18  1  0
 17 55  1  1
 18 19  1  0
 18 56  1  0
 18 57  1  0
 19 20  1  0
 19 58  1  0
 19 59  1  0
 20 21  1  0
 20 60  1  1
 21 22  1  0
 21 61  1  0
 21 62  1  0
 22 23  1  0
 22 32  1  0
 22 63  1  6
 23 31  1  0
 23 24  1  0
 24 25  2  0
 24 64  1  0
 25 26  1  0
 26 31  2  0
 26 27  1  0
 27 28  2  0
 27 65  1  0
 28 29  1  0
 28 66  1  0
 29 30  2  0
 29 67  1  0
 30 31  1  0
 30 68  1  0
 32 69  1  0
 32 70  1  0
 33 38  1  0
 33 34  2  0
 34 35  1  0
 34 71  1  0
 35 36  2  0
 35 72  1  0
 36 37  1  0
 36 73  1  0
 37 38  2  0
 37 74  1  0
 38 75  1  0
 39 40  1  0
 39 76  1  0
 39 77  1  0
 40 78  1  0
 40 79  1  0
M  CHG  1  16   1
M  END
>  <i_m_ct_stereo_status>  (335) 
1

>  <s_m_source_file>  (335) 
/var/tmp/pbs.5076255.sched01/tmpxe1g82q3/12669a6jj4p.sdf

>  <i_m_source_file_index>  (335) 
3

>  <i_lp_mmshare_version>  (335) 
48012

>  <i_f3d_flags>  (335) 
0

>  <s_epik_input>  (335) 
W0NIM11jMW5bY0hdW2NIXVtjSF1jMUMoPU8pTihbQ0gyXVtDSDJdMilbQ0gyXVtDSDJdQzIoYzNbY0hdW2NIXVtjSF1bY0hdW2NIXTMpW0NIMl1bQ0gyXU4oW0NAQEhdNDUpW0NASF0oW0NIMl1bQ0gyXTQpW0NIMl1bQ0BIXShbQ0gyXTUpbihbY0hdbjYpYyhjNjcpW2NIXVtjSF1bY0hdW2NIXTc=

>  <s_epik_cmdline>  (335) 
J2VwaWtfcHl0aG9uJywgJy1waHQnLCAnMi4wJywgJy1waCcsICc3LjAnLCAnLXRuJywgJzgnLCAnLW1hJywgJzIwMCcsICctaW1hZScsICc8aW5maWxlLm1hZT4nLCAnLW9tYWUnLCAnPG91dGZpbGUubWFlPic=

>  <r_epik_Ionization_Penalty>  (335) 
0.047045

>  <r_epik_Ionization_Penalty_Charging>  (335) 
0.00195196

>  <r_epik_Ionization_Penalty_Neutral>  (335) 
0.045093

>  <r_epik_State_Penalty>  (335) 
0.0372816

>  <r_epik_Charging_Adjusted_Penalty>  (335) 
0.0392336

>  <i_epik_Tot_Q>  (335) 
1

>  <i_epik_Tot_abs_Q>  (335) 
1

>  <s_lp_Force_Field>  (335) 
OPLS3e

>  <r_lp_Energy>  (335) 
73.7709

>  <b_lp_Chiralities_Consistent>  (335) 
1

>  <s_lp_Variant>  (335) 
97:0-2

>  <s_i_glide_gridfile>  (335) 
pfpi4k_grid

>  <i_i_glide_lignum>  (335) 
3

>  <i_i_glide_rotatable_bonds>  (335) 
7

>  <r_i_docking_score>  (335) 
-2.4686

>  <r_i_glide_ligand_efficiency>  (335) 
-0.0617149

>  <r_i_glide_ligand_efficiency_sa>  (335) 
-0.211062

>  <r_i_glide_ligand_efficiency_ln>  (335) 
-0.526479

>  <r_i_glide_gscore>  (335) 
-2.4686

>  <r_i_glide_lipo>  (335) 
-0.777754

>  <r_i_glide_hbond>  (335) 
-0.0294059

>  <r_i_glide_metal>  (335) 
-0

>  <r_i_glide_rewards>  (335) 
-0.0357925

>  <r_i_glide_evdw>  (335) 
-28.8808

>  <r_i_glide_ecoul>  (335) 
-7.14572

>  <r_i_glide_erotb>  (335) 
0.505317

>  <r_i_glide_esite>  (335) 
-0.0202908

>  <r_i_glide_emodel>  (335) 
-34.7752

>  <r_i_glide_energy>  (335) 
-36.0265

>  <r_i_glide_einternal>  (335) 
5.83946

>  <r_i_glide_intrahb_reward>  (335) 
-0

>  <i_i_glide_confnum>  (335) 
8

>  <i_i_glide_posenum>  (335) 
1

>  <r_i_glide_eff_state_penalty>  (335) 
0

>  <ligand_id>  (335) 
97

>  <original_smiles>  (335) 
Cc1ncccc1C(=O)N1CCC(CCN2C3CCC2CC(n2cnc4ccccc42)C3)(c2ccccc2)CC1

>  <smiles>  (335) 
[H]c1nc(C([H])([H])[H])c(C(=O)N2C([H])([H])C([H])([H])C(c3c([H])c([H])c([H])c([H])c3[H])(C([H])([H])C([H])([H])[N+]3([H])C4([H])C([H])([H])C([H])([H])C3([H])C([H])([H])C([H])(n3c([H])nc5c([H])c([H])c([H])c([H])c53)C4([H])[H])C([H])([H])C2([H])[H])c([H])c1[H]

$$$$
97:1:2
     RDKit          3D

 80 86  0  0  1  0  0  0  0  0999 V2000
    6.4521   -2.9334   -0.1909 C   0  0  0  0  0  0  0  0  0  0  0  0
    5.2180   -2.7821   -1.0701 C   0  0  0  0  0  0  0  0  0  0  0  0
    5.4511   -2.1716   -2.2517 N   0  0  0  0  0  0  0  0  0  0  0  0
    4.4258   -2.0212   -3.1152 C   0  0  0  0  0  0  0  0  0  0  0  0
    3.1205   -2.4627   -2.8432 C   0  0  0  0  0  0  0  0  0  0  0  0
    2.8725   -3.0786   -1.6051 C   0  0  0  0  0  0  0  0  0  0  0  0
    3.9306   -3.2403   -0.6920 C   0  0  0  0  0  0  0  0  0  0  0  0
    3.6557   -3.8847    0.6345 C   0  0  0  0  0  0  0  0  0  0  0  0
    3.5897   -5.1137    0.6975 O   0  0  0  0  0  0  0  0  0  0  0  0
    3.5201   -3.0707    1.7119 N   0  0  0  0  0  0  0  0  0  0  0  0
    3.4613   -3.6184    3.0831 C   0  0  0  0  0  0  0  0  0  0  0  0
    4.4709   -2.9086    3.9855 C   0  0  0  0  0  0  0  0  0  0  0  0
    4.2850   -1.3620    4.0213 C   0  0  0  0  0  0  0  0  0  0  0  0
    2.8990   -0.9884    4.6216 C   0  0  0  0  0  0  0  0  0  0  0  0
    2.7319   -1.3126    6.1089 C   0  0  0  0  0  0  0  0  0  0  0  0
    1.6609   -0.5032    6.7078 N   0  0  1  0  0  0  0  0  0  0  0  0
    0.3209   -1.0844    6.5637 C   0  0  1  0  0  0  0  0  0  0  0  0
    0.2659   -2.1476    7.6764 C   0  0  0  0  0  0  0  0  0  0  0  0
    1.2495   -1.6403    8.7466 C   0  0  0  0  0  0  0  0  0  0  0  0
    1.7986   -0.3286    8.1636 C   0  0  2  0  0  0  0  0  0  0  0  0
    0.9744    0.9037    8.5538 C   0  0  0  0  0  0  0  0  0  0  0  0
   -0.5184    0.7374    8.1773 C   0  0  1  0  0  0  0  0  0  0  0  0
   -1.2340    2.0093    8.2409 N   0  0  0  0  0  0  0  0  0  0  0  0
   -2.0002    2.5796    7.2948 C   0  0  0  0  0  0  0  0  0  0  0  0
   -2.5524    3.7502    7.5896 N   0  0  0  0  0  0  0  0  0  0  0  0
   -2.0957    3.9567    8.8776 C   0  0  0  0  0  0  0  0  0  0  0  0
   -2.3331    5.0396    9.7477 C   0  0  0  0  0  0  0  0  0  0  0  0
   -1.7767    5.0441   11.0419 C   0  0  0  0  0  0  0  0  0  0  0  0
   -0.9792    3.9696   11.4806 C   0  0  0  0  0  0  0  0  0  0  0  0
   -0.7355    2.8813   10.6287 C   0  0  0  0  0  0  0  0  0  0  0  0
   -1.2842    2.8852    9.3345 C   0  0  0  0  0  0  0  0  0  0  0  0
   -0.6754    0.0660    6.7790 C   0  0  0  0  0  0  0  0  0  0  0  0
    5.4381   -0.7036    4.8321 C   0  0  0  0  0  0  0  0  0  0  0  0
    6.2147    0.3623    4.3036 C   0  0  0  0  0  0  0  0  0  0  0  0
    7.2570    0.9470    5.0499 C   0  0  0  0  0  0  0  0  0  0  0  0
    7.5093    0.5393    6.3665 C   0  0  0  0  0  0  0  0  0  0  0  0
    6.7646   -0.5312    6.8962 C   0  0  0  0  0  0  0  0  0  0  0  0
    5.8032   -1.1778    6.1149 C   0  0  0  0  0  0  0  0  0  0  0  0
    4.3048   -0.8845    2.5365 C   0  0  0  0  0  0  0  0  0  0  0  0
    3.3032   -1.6125    1.6267 C   0  0  0  0  0  0  0  0  0  0  0  0
    6.4149   -3.8371    0.4158 H   0  0  0  0  0  0  0  0  0  0  0  0
    6.5691   -2.0749    0.4714 H   0  0  0  0  0  0  0  0  0  0  0  0
    7.3537   -2.9983   -0.8047 H   0  0  0  0  0  0  0  0  0  0  0  0
    4.6553   -1.5404   -4.0550 H   0  0  0  0  0  0  0  0  0  0  0  0
    2.3244   -2.3242   -3.5624 H   0  0  0  0  0  0  0  0  0  0  0  0
    1.8746   -3.4075   -1.3574 H   0  0  0  0  0  0  0  0  0  0  0  0
    2.4424   -3.5357    3.4632 H   0  0  0  0  0  0  0  0  0  0  0  0
    3.6740   -4.6921    3.1129 H   0  0  0  0  0  0  0  0  0  0  0  0
    4.4381   -3.3500    4.9875 H   0  0  0  0  0  0  0  0  0  0  0  0
    5.4784   -3.1134    3.6178 H   0  0  0  0  0  0  0  0  0  0  0  0
    2.7270    0.0723    4.4512 H   0  0  0  0  0  0  0  0  0  0  0  0
    2.0909   -1.4830    4.0887 H   0  0  0  0  0  0  0  0  0  0  0  0
    2.5858   -2.3876    6.2674 H   0  0  0  0  0  0  0  0  0  0  0  0
    3.5985   -1.0215    6.6716 H   0  0  0  0  0  0  0  0  0  0  0  0
    0.1590   -1.5066    5.5685 H   0  0  0  0  0  0  0  0  0  0  0  0
   -0.7311   -2.3075    8.0734 H   0  0  0  0  0  0  0  0  0  0  0  0
    0.5982   -3.1092    7.2863 H   0  0  0  0  0  0  0  0  0  0  0  0
    0.7924   -1.4988    9.7277 H   0  0  0  0  0  0  0  0  0  0  0  0
    2.0603   -2.3590    8.8691 H   0  0  0  0  0  0  0  0  0  0  0  0
    2.8239   -0.1446    8.4855 H   0  0  0  0  0  0  0  0  0  0  0  0
    1.1166    1.0567    9.6239 H   0  0  0  0  0  0  0  0  0  0  0  0
    1.3930    1.7875    8.0654 H   0  0  0  0  0  0  0  0  0  0  0  0
   -0.9627    0.0976    8.9352 H   0  0  0  0  0  0  0  0  0  0  0  0
   -2.1753    2.1383    6.3187 H   0  0  0  0  0  0  0  0  0  0  0  0
   -2.9563    5.8497    9.4125 H   0  0  0  0  0  0  0  0  0  0  0  0
   -1.9788    5.8677   11.7070 H   0  0  0  0  0  0  0  0  0  0  0  0
   -0.5668    3.9641   12.4799 H   0  0  0  0  0  0  0  0  0  0  0  0
   -0.1476    2.0586   10.9960 H   0  0  0  0  0  0  0  0  0  0  0  0
   -0.4629    0.7904    5.9906 H   0  0  0  0  0  0  0  0  0  0  0  0
   -1.7003   -0.2724    6.6088 H   0  0  0  0  0  0  0  0  0  0  0  0
    6.0687    0.7405    3.3042 H   0  0  0  0  0  0  0  0  0  0  0  0
    7.8542    1.7289    4.6106 H   0  0  0  0  0  0  0  0  0  0  0  0
    8.2931    1.0126    6.9440 H   0  0  0  0  0  0  0  0  0  0  0  0
    6.9478   -0.8599    7.9133 H   0  0  0  0  0  0  0  0  0  0  0  0
    5.2718   -2.0155    6.5529 H   0  0  0  0  0  0  0  0  0  0  0  0
    4.0995    0.1811    2.4691 H   0  0  0  0  0  0  0  0  0  0  0  0
    5.2969   -1.0347    2.1089 H   0  0  0  0  0  0  0  0  0  0  0  0
    3.4054   -1.1915    0.6271 H   0  0  0  0  0  0  0  0  0  0  0  0
    2.2786   -1.3748    1.9118 H   0  0  0  0  0  0  0  0  0  0  0  0
    1.6899    0.4091    6.2760 H   0  0  0  0  0  0  0  0  0  0  0  0
  1  2  1  0
  1 41  1  0
  1 42  1  0
  1 43  1  0
  2  7  2  0
  2  3  1  0
  3  4  2  0
  4  5  1  0
  4 44  1  0
  5  6  2  0
  5 45  1  0
  6  7  1  0
  6 46  1  0
  7  8  1  0
  8  9  2  0
  8 10  1  0
 10 40  1  0
 10 11  1  0
 11 12  1  0
 11 47  1  0
 11 48  1  0
 12 13  1  0
 12 49  1  0
 12 50  1  0
 13 14  1  0
 13 33  1  0
 13 39  1  0
 14 15  1  0
 14 51  1  0
 14 52  1  0
 15 16  1  0
 15 53  1  0
 15 54  1  0
 16 20  1  0
 16 17  1  0
 16 80  1  6
 17 32  1  0
 17 18  1  0
 17 55  1  6
 18 19  1  0
 18 56  1  0
 18 57  1  0
 19 20  1  0
 19 58  1  0
 19 59  1  0
 20 21  1  0
 20 60  1  6
 21 22  1  0
 21 61  1  0
 21 62  1  0
 22 23  1  0
 22 32  1  0
 22 63  1  1
 23 31  1  0
 23 24  1  0
 24 25  2  0
 24 64  1  0
 25 26  1  0
 26 31  2  0
 26 27  1  0
 27 28  2  0
 27 65  1  0
 28 29  1  0
 28 66  1  0
 29 30  2  0
 29 67  1  0
 30 31  1  0
 30 68  1  0
 32 69  1  0
 32 70  1  0
 33 38  1  0
 33 34  2  0
 34 35  1  0
 34 71  1  0
 35 36  2  0
 35 72  1  0
 36 37  1  0
 36 73  1  0
 37 38  2  0
 37 74  1  0
 38 75  1  0
 39 40  1  0
 39 76  1  0
 39 77  1  0
 40 78  1  0
 40 79  1  0
M  CHG  1  16   1
M  END
>  <i_m_ct_stereo_status>  (336) 
1

>  <s_m_source_file>  (336) 
/var/tmp/pbs.5076255.sched01/tmpxe1g82q3/12669a6jj4p.sdf

>  <i_m_source_file_index>  (336) 
3

>  <i_lp_mmshare_version>  (336) 
48012

>  <i_f3d_flags>  (336) 
0

>  <s_epik_input>  (336) 
W0NIM11jMW5bY0hdW2NIXVtjSF1jMUMoPU8pTihbQ0gyXVtDSDJdMilbQ0gyXVtDSDJdQzIoYzNbY0hdW2NIXVtjSF1bY0hdW2NIXTMpW0NIMl1bQ0gyXU4oW0NAQEhdNDUpW0NASF0oW0NIMl1bQ0gyXTQpW0NIMl1bQ0BIXShbQ0gyXTUpbihbY0hdbjYpYyhjNjcpW2NIXVtjSF1bY0hdW2NIXTc=

>  <s_epik_cmdline>  (336) 
J2VwaWtfcHl0aG9uJywgJy1waHQnLCAnMi4wJywgJy1waCcsICc3LjAnLCAnLXRuJywgJzgnLCAnLW1hJywgJzIwMCcsICctaW1hZScsICc8aW5maWxlLm1hZT4nLCAnLW9tYWUnLCAnPG91dGZpbGUubWFlPic=

>  <r_epik_Ionization_Penalty>  (336) 
0.047045

>  <r_epik_Ionization_Penalty_Charging>  (336) 
0.00195196

>  <r_epik_Ionization_Penalty_Neutral>  (336) 
0.045093

>  <r_epik_State_Penalty>  (336) 
0.0372816

>  <r_epik_Charging_Adjusted_Penalty>  (336) 
0.0392336

>  <i_epik_Tot_Q>  (336) 
1

>  <i_epik_Tot_abs_Q>  (336) 
1

>  <s_lp_Force_Field>  (336) 
OPLS3e

>  <r_lp_Energy>  (336) 
73.7709

>  <b_lp_Chiralities_Consistent>  (336) 
1

>  <s_lp_Variant>  (336) 
97:0-2

>  <s_i_glide_gridfile>  (336) 
pfpi4k_grid

>  <i_i_glide_lignum>  (336) 
3

>  <i_i_glide_rotatable_bonds>  (336) 
7

>  <r_i_docking_score>  (336) 
-1.99611

>  <r_i_glide_ligand_efficiency>  (336) 
-0.0499027

>  <r_i_glide_ligand_efficiency_sa>  (336) 
-0.170665

>  <r_i_glide_ligand_efficiency_ln>  (336) 
-0.425711

>  <r_i_glide_gscore>  (336) 
-1.99611

>  <r_i_glide_lipo>  (336) 
-0.826293

>  <r_i_glide_hbond>  (336) 
0

>  <r_i_glide_metal>  (336) 
-0

>  <r_i_glide_rewards>  (336) 
-0.0587065

>  <r_i_glide_evdw>  (336) 
-30.9386

>  <r_i_glide_ecoul>  (336) 
-0.275492

>  <r_i_glide_erotb>  (336) 
0.505317

>  <r_i_glide_esite>  (336) 
-0.0281715

>  <r_i_glide_emodel>  (336) 
-31.2932

>  <r_i_glide_energy>  (336) 
-31.2141

>  <r_i_glide_einternal>  (336) 
7.02442

>  <r_i_glide_intrahb_reward>  (336) 
-0

>  <i_i_glide_confnum>  (336) 
7

>  <i_i_glide_posenum>  (336) 
3

>  <r_i_glide_eff_state_penalty>  (336) 
0

>  <ligand_id>  (336) 
97

>  <original_smiles>  (336) 
Cc1ncccc1C(=O)N1CCC(CCN2C3CCC2CC(n2cnc4ccccc42)C3)(c2ccccc2)CC1

>  <smiles>  (336) 
[H]c1nc(C([H])([H])[H])c(C(=O)N2C([H])([H])C([H])([H])C(c3c([H])c([H])c([H])c([H])c3[H])(C([H])([H])C([H])([H])[N+]3([H])C4([H])C([H])([H])C([H])([H])C3([H])C([H])([H])C([H])(n3c([H])nc5c([H])c([H])c([H])c([H])c53)C4([H])[H])C([H])([H])C2([H])[H])c([H])c1[H]

$$$$
97:2:0
     RDKit          3D

 81 87  0  0  1  0  0  0  0  0999 V2000
    1.3742   -0.0420    3.1623 C   0  0  0  0  0  0  0  0  0  0  0  0
    2.7854   -0.6128    3.0190 C   0  0  0  0  0  0  0  0  0  0  0  0
    3.4363   -0.1900    1.9110 N   0  0  0  0  0  0  0  0  0  0  0  0
    4.6926   -0.6237    1.6804 C   0  0  0  0  0  0  0  0  0  0  0  0
    5.3577   -1.4975    2.5535 C   0  0  0  0  0  0  0  0  0  0  0  0
    4.6901   -1.9510    3.6999 C   0  0  0  0  0  0  0  0  0  0  0  0
    3.3549   -1.5454    3.9425 C   0  0  0  0  0  0  0  0  0  0  0  0
    2.5859   -2.1053    5.1144 C   0  0  0  0  0  0  0  0  0  0  0  0
    2.0787   -1.3266    5.9332 O   0  0  0  0  0  0  0  0  0  0  0  0
    2.4036   -3.4566    5.1894 N   0  0  0  0  0  0  0  0  0  0  0  0
    1.4436   -4.0402    6.1509 C   0  0  0  0  0  0  0  0  0  0  0  0
    0.4722   -5.0093    5.4457 C   0  0  0  0  0  0  0  0  0  0  0  0
    1.1841   -6.1058    4.6346 C   0  0  0  0  0  0  0  0  0  0  0  0
    1.9193   -7.0962    5.6052 C   0  0  0  0  0  0  0  0  0  0  0  0
    2.5156   -8.3709    4.8962 C   0  0  0  0  0  0  0  0  0  0  0  0
    3.2884   -9.2402    5.8364 N   0  0  2  0  0  0  0  0  0  0  0  0
    4.3947   -8.6527    6.6522 C   0  0  1  0  0  0  0  0  0  0  0  0
    4.8834   -9.8984    7.4128 C   0  0  0  0  0  0  0  0  0  0  0  0
    4.5753  -11.0735    6.4675 C   0  0  0  0  0  0  0  0  0  0  0  0
    3.9484  -10.4218    5.2274 C   0  0  2  0  0  0  0  0  0  0  0  0
    5.0184  -10.0026    4.1624 C   0  0  0  0  0  0  0  0  0  0  0  0
    6.1147   -9.0764    4.7478 C   0  0  1  0  0  0  0  0  0  0  0  0
    6.9732   -8.4476    3.7348 N   0  0  0  0  0  0  0  0  0  0  0  0
    8.2989   -8.6403    3.5262 C   0  0  0  0  0  0  0  0  0  0  0  0
    8.6201   -7.8671    2.4491 N   0  0  0  0  0  0  0  0  0  0  0  0
    7.5438   -7.1228    1.9860 C   0  0  0  0  0  0  0  0  0  0  0  0
    7.4160   -6.1884    0.9372 C   0  0  0  0  0  0  0  0  0  0  0  0
    6.1203   -5.6400    0.7103 C   0  0  0  0  0  0  0  0  0  0  0  0
    5.0528   -6.0396    1.5529 C   0  0  0  0  0  0  0  0  0  0  0  0
    5.2076   -6.9467    2.6158 C   0  0  0  0  0  0  0  0  0  0  0  0
    6.4683   -7.4990    2.8091 C   0  0  0  0  0  0  0  0  0  0  0  0
    5.5450   -8.0612    5.7692 C   0  0  0  0  0  0  0  0  0  0  0  0
    0.1832   -6.9013    3.7857 C   0  0  0  0  0  0  0  0  0  0  0  0
   -0.8315   -7.6087    4.4573 C   0  0  0  0  0  0  0  0  0  0  0  0
   -1.7404   -8.4037    3.7477 C   0  0  0  0  0  0  0  0  0  0  0  0
   -1.6441   -8.5007    2.3540 C   0  0  0  0  0  0  0  0  0  0  0  0
   -0.6372   -7.7980    1.6785 C   0  0  0  0  0  0  0  0  0  0  0  0
    0.2734   -7.0004    2.3730 C   0  0  0  0  0  0  0  0  0  0  0  0
    2.1702   -5.3685    3.7064 C   0  0  0  0  0  0  0  0  0  0  0  0
    3.1605   -4.4787    4.4336 C   0  0  0  0  0  0  0  0  0  0  0  0
    1.0919    0.1127    4.2007 H   0  0  0  0  0  0  0  0  0  0  0  0
    0.6236   -0.6777    2.6877 H   0  0  0  0  0  0  0  0  0  0  0  0
    1.3283    0.9403    2.6946 H   0  0  0  0  0  0  0  0  0  0  0  0
    5.1665   -0.2604    0.7830 H   0  0  0  0  0  0  0  0  0  0  0  0
    6.3543   -1.8446    2.3223 H   0  0  0  0  0  0  0  0  0  0  0  0
    5.2156   -2.5906    4.4090 H   0  0  0  0  0  0  0  0  0  0  0  0
    2.0054   -4.5496    6.9320 H   0  0  0  0  0  0  0  0  0  0  0  0
    0.8297   -3.3037    6.6850 H   0  0  0  0  0  0  0  0  0  0  0  0
   -0.1823   -5.4595    6.1822 H   0  0  0  0  0  0  0  0  0  0  0  0
   -0.1595   -4.4323    4.7800 H   0  0  0  0  0  0  0  0  0  0  0  0
    2.7258   -6.5708    6.1267 H   0  0  0  0  0  0  0  0  0  0  0  0
    1.2408   -7.4260    6.3923 H   0  0  0  0  0  0  0  0  0  0  0  0
    1.6960   -8.9895    4.4628 H   0  0  0  0  0  0  0  0  0  0  0  0
    3.0987   -8.1031    4.0697 H   0  0  0  0  0  0  0  0  0  0  0  0
    4.0379   -7.8812    7.3381 H   0  0  0  0  0  0  0  0  0  0  0  0
    5.9374   -9.8277    7.6902 H   0  0  0  0  0  0  0  0  0  0  0  0
    4.2991   -9.9957    8.3309 H   0  0  0  0  0  0  0  0  0  0  0  0
    5.4530  -11.6750    6.2206 H   0  0  0  0  0  0  0  0  0  0  0  0
    3.8365  -11.7275    6.9301 H   0  0  0  0  0  0  0  0  0  0  0  0
    3.1762  -11.0401    4.7631 H   0  0  0  0  0  0  0  0  0  0  0  0
    5.4868  -10.9060    3.7508 H   0  0  0  0  0  0  0  0  0  0  0  0
    4.5367   -9.5423    3.3090 H   0  0  0  0  0  0  0  0  0  0  0  0
    6.7631   -9.7322    5.3380 H   0  0  0  0  0  0  0  0  0  0  0  0
    8.9834   -9.3184    4.0561 H   0  0  0  0  0  0  0  0  0  0  0  0
    8.2657   -5.9223    0.3039 H   0  0  0  0  0  0  0  0  0  0  0  0
    5.9307   -4.9281   -0.0732 H   0  0  0  0  0  0  0  0  0  0  0  0
    4.0772   -5.6096    1.3783 H   0  0  0  0  0  0  0  0  0  0  0  0
    4.4557   -7.1619    3.2657 H   0  0  0  0  0  0  0  0  0  0  0  0
    5.1841   -7.1619    5.2895 H   0  0  0  0  0  0  0  0  0  0  0  0
    6.3643   -7.7188    6.4227 H   0  0  0  0  0  0  0  0  0  0  0  0
   -0.8688   -7.5860    5.5309 H   0  0  0  0  0  0  0  0  0  0  0  0
   -2.4783   -8.9805    4.2882 H   0  0  0  0  0  0  0  0  0  0  0  0
   -2.3404   -9.1205    1.8000 H   0  0  0  0  0  0  0  0  0  0  0  0
   -0.5574   -7.8659    0.5989 H   0  0  0  0  0  0  0  0  0  0  0  0
    1.0386   -6.5161    1.7708 H   0  0  0  0  0  0  0  0  0  0  0  0
    2.7140   -6.0818    3.1132 H   0  0  0  0  0  0  0  0  0  0  0  0
    1.6599   -4.7157    2.9934 H   0  0  0  0  0  0  0  0  0  0  0  0
    3.7750   -4.1266    3.5976 H   0  0  0  0  0  0  0  0  0  0  0  0
    3.8179   -5.0215    5.1210 H   0  0  0  0  0  0  0  0  0  0  0  0
    2.6252   -9.5992    6.5194 H   0  0  0  0  0  0  0  0  0  0  0  0
    9.5641   -7.8390    2.0174 H   0  0  0  0  0  0  0  0  0  0  0  0
  1  2  1  0
  1 41  1  0
  1 42  1  0
  1 43  1  0
  2  7  2  0
  2  3  1  0
  3  4  2  0
  4  5  1  0
  4 44  1  0
  5  6  2  0
  5 45  1  0
  6  7  1  0
  6 46  1  0
  7  8  1  0
  8  9  2  0
  8 10  1  0
 10 40  1  0
 10 11  1  0
 11 12  1  0
 11 47  1  0
 11 48  1  0
 12 13  1  0
 12 49  1  0
 12 50  1  0
 13 14  1  0
 13 33  1  0
 13 39  1  0
 14 15  1  0
 14 51  1  0
 14 52  1  0
 15 16  1  0
 15 53  1  0
 15 54  1  0
 16 20  1  0
 16 17  1  0
 16 80  1  1
 17 32  1  0
 17 18  1  0
 17 55  1  1
 18 19  1  0
 18 56  1  0
 18 57  1  0
 19 20  1  0
 19 58  1  0
 19 59  1  0
 20 21  1  0
 20 60  1  6
 21 22  1  0
 21 61  1  0
 21 62  1  0
 22 23  1  0
 22 32  1  0
 22 63  1  1
 23 31  1  0
 23 24  1  0
 24 25  2  0
 24 64  1  0
 25 26  1  0
 25 81  1  0
 26 31  2  0
 26 27  1  0
 27 28  2  0
 27 65  1  0
 28 29  1  0
 28 66  1  0
 29 30  2  0
 29 67  1  0
 30 31  1  0
 30 68  1  0
 32 69  1  0
 32 70  1  0
 33 38  1  0
 33 34  2  0
 34 35  1  0
 34 71  1  0
 35 36  2  0
 35 72  1  0
 36 37  1  0
 36 73  1  0
 37 38  2  0
 37 74  1  0
 38 75  1  0
 39 40  1  0
 39 76  1  0
 39 77  1  0
 40 78  1  0
 40 79  1  0
M  CHG  2  16   1  25   1
M  END
>  <i_m_ct_stereo_status>  (337) 
1

>  <s_m_source_file>  (337) 
/var/tmp/pbs.5076255.sched01/tmpxe1g82q3/12669a6jj4p.sdf

>  <i_m_source_file_index>  (337) 
4

>  <i_lp_mmshare_version>  (337) 
48012

>  <i_f3d_flags>  (337) 
0

>  <s_epik_input>  (337) 
W0NIM11jMW5bY0hdW2NIXVtjSF1jMUMoPU8pTihbQ0gyXVtDSDJdMilbQ0gyXVtDSDJdQzIoYzNbY0hdW2NIXVtjSF1bY0hdW2NIXTMpW0NIMl1bQ0gyXU4oW0NAQEhdNDUpW0NASF0oW0NIMl1bQ0gyXTQpW0NIMl1bQ0BIXShbQ0gyXTUpbihbY0hdbjYpYyhjNjcpW2NIXVtjSF1bY0hdW2NIXTc=

>  <s_epik_cmdline>  (337) 
J2VwaWtfcHl0aG9uJywgJy1waHQnLCAnMi4wJywgJy1waCcsICc3LjAnLCAnLXRuJywgJzgnLCAnLW1hJywgJzIwMCcsICctaW1hZScsICc8aW5maWxlLm1hZT4nLCAnLW9tYWUnLCAnPG91dGZpbGUubWFlPic=

>  <r_epik_Ionization_Penalty>  (337) 
1.56624

>  <r_epik_Ionization_Penalty_Charging>  (337) 
1.56516

>  <r_epik_Ionization_Penalty_Neutral>  (337) 
0.00107361

>  <r_epik_State_Penalty>  (337) 
1.65726

>  <r_epik_Charging_Adjusted_Penalty>  (337) 
3.22242

>  <i_epik_Tot_Q>  (337) 
2

>  <i_epik_Tot_abs_Q>  (337) 
2

>  <s_lp_Force_Field>  (337) 
OPLS3e

>  <r_lp_Energy>  (337) 
84.9981

>  <b_lp_Chiralities_Consistent>  (337) 
1

>  <s_lp_Variant>  (337) 
97:0-3

>  <s_i_glide_gridfile>  (337) 
pfpi4k_grid

>  <i_i_glide_lignum>  (337) 
4

>  <i_i_glide_rotatable_bonds>  (337) 
7

>  <r_i_docking_score>  (337) 
-3.35772

>  <r_i_glide_ligand_efficiency>  (337) 
-0.0839429

>  <r_i_glide_ligand_efficiency_sa>  (337) 
-0.287081

>  <r_i_glide_ligand_efficiency_ln>  (337) 
-0.716102

>  <r_i_glide_gscore>  (337) 
-3.35772

>  <r_i_glide_lipo>  (337) 
-0.599512

>  <r_i_glide_hbond>  (337) 
-0.172325

>  <r_i_glide_metal>  (337) 
-0

>  <r_i_glide_rewards>  (337) 
-0.0226144

>  <r_i_glide_evdw>  (337) 
-25.77

>  <r_i_glide_ecoul>  (337) 
-11.1362

>  <r_i_glide_erotb>  (337) 
0.503567

>  <r_i_glide_esite>  (337) 
-0.107901

>  <r_i_glide_emodel>  (337) 
-46.5341

>  <r_i_glide_energy>  (337) 
-36.9062

>  <r_i_glide_einternal>  (337) 
3.091

>  <r_i_glide_intrahb_reward>  (337) 
-0

>  <i_i_glide_confnum>  (337) 
6

>  <i_i_glide_posenum>  (337) 
16

>  <r_i_glide_eff_state_penalty>  (337) 
0

>  <ligand_id>  (337) 
97

>  <original_smiles>  (337) 
Cc1ncccc1C(=O)N1CCC(CCN2C3CCC2CC(n2cnc4ccccc42)C3)(c2ccccc2)CC1

>  <smiles>  (337) 
[H]c1nc(C([H])([H])[H])c(C(=O)N2C([H])([H])C([H])([H])C(c3c([H])c([H])c([H])c([H])c3[H])(C([H])([H])C([H])([H])[N+]3([H])C4([H])C([H])([H])C([H])([H])C3([H])C([H])([H])C([H])(n3c([H])[n+]([H])c5c([H])c([H])c([H])c([H])c53)C4([H])[H])C([H])([H])C2([H])[H])c([H])c1[H]

$$$$
97:2:1
     RDKit          3D

 81 87  0  0  1  0  0  0  0  0999 V2000
    3.2207   -1.8637   -0.8521 C   0  0  0  0  0  0  0  0  0  0  0  0
    4.6441   -2.3920   -0.8249 C   0  0  0  0  0  0  0  0  0  0  0  0
    5.1891   -2.5612   -2.0482 N   0  0  0  0  0  0  0  0  0  0  0  0
    6.4405   -3.0511   -2.1132 C   0  0  0  0  0  0  0  0  0  0  0  0
    7.2247   -3.3475   -0.9875 C   0  0  0  0  0  0  0  0  0  0  0  0
    6.6505   -3.1921    0.2836 C   0  0  0  0  0  0  0  0  0  0  0  0
    5.3258   -2.7202    0.3750 C   0  0  0  0  0  0  0  0  0  0  0  0
    4.6783   -2.5870    1.7249 C   0  0  0  0  0  0  0  0  0  0  0  0
    4.4841   -1.4631    2.1922 O   0  0  0  0  0  0  0  0  0  0  0  0
    4.3323   -3.7304    2.3741 N   0  0  0  0  0  0  0  0  0  0  0  0
    3.6950   -3.6943    3.7025 C   0  0  0  0  0  0  0  0  0  0  0  0
    2.3750   -4.4837    3.7124 C   0  0  0  0  0  0  0  0  0  0  0  0
    2.4909   -5.9146    3.1527 C   0  0  0  0  0  0  0  0  0  0  0  0
    3.2926   -6.8106    4.1381 C   0  0  0  0  0  0  0  0  0  0  0  0
    3.5694   -8.2580    3.6650 C   0  0  0  0  0  0  0  0  0  0  0  0
    2.3590   -9.1449    3.7388 N   0  0  2  0  0  0  0  0  0  0  0  0
    1.7828   -9.4476    5.0822 C   0  0  1  0  0  0  0  0  0  0  0  0
    0.6443  -10.4215    4.7026 C   0  0  0  0  0  0  0  0  0  0  0  0
    1.1178  -11.0970    3.4056 C   0  0  0  0  0  0  0  0  0  0  0  0
    2.5140  -10.5091    3.1535 C   0  0  2  0  0  0  0  0  0  0  0  0
    3.6355  -11.3002    3.8776 C   0  0  0  0  0  0  0  0  0  0  0  0
    3.4086  -11.4004    5.4158 C   0  0  1  0  0  0  0  0  0  0  0  0
    4.5733  -11.8832    6.1700 N   0  0  0  0  0  0  0  0  0  0  0  0
    4.6485  -12.9994    6.9882 C   0  0  0  0  0  0  0  0  0  0  0  0
    5.9128  -13.0535    7.5196 N   0  0  0  0  0  0  0  0  0  0  0  0
    6.6388  -11.9458    7.0473 C   0  0  0  0  0  0  0  0  0  0  0  0
    7.9839  -11.5503    7.2897 C   0  0  0  0  0  0  0  0  0  0  0  0
    8.4412  -10.3493    6.6553 C   0  0  0  0  0  0  0  0  0  0  0  0
    7.5793   -9.6159    5.8406 C   0  0  0  0  0  0  0  0  0  0  0  0
    6.2438  -10.0094    5.5732 C   0  0  0  0  0  0  0  0  0  0  0  0
    5.8000  -11.2033    6.2094 C   0  0  0  0  0  0  0  0  0  0  0  0
    2.8151  -10.1091    6.0255 C   0  0  0  0  0  0  0  0  0  0  0  0
    1.0763   -6.5120    3.0184 C   0  0  0  0  0  0  0  0  0  0  0  0
    0.2696   -6.6368    4.1792 C   0  0  0  0  0  0  0  0  0  0  0  0
   -0.9504   -7.3343    4.1379 C   0  0  0  0  0  0  0  0  0  0  0  0
   -1.3994   -7.8886    2.9271 C   0  0  0  0  0  0  0  0  0  0  0  0
   -0.6103   -7.7668    1.7701 C   0  0  0  0  0  0  0  0  0  0  0  0
    0.6223   -7.0971    1.8085 C   0  0  0  0  0  0  0  0  0  0  0  0
    3.2355   -5.8256    1.7794 C   0  0  0  0  0  0  0  0  0  0  0  0
    4.5767   -5.0995    1.8726 C   0  0  0  0  0  0  0  0  0  0  0  0
    3.0127   -1.2227    0.0031 H   0  0  0  0  0  0  0  0  0  0  0  0
    2.4963   -2.6804   -0.8634 H   0  0  0  0  0  0  0  0  0  0  0  0
    3.0554   -1.2590   -1.7427 H   0  0  0  0  0  0  0  0  0  0  0  0
    6.8244   -3.1710   -3.1043 H   0  0  0  0  0  0  0  0  0  0  0  0
    8.2342   -3.7075   -1.1182 H   0  0  0  0  0  0  0  0  0  0  0  0
    7.2055   -3.4648    1.1739 H   0  0  0  0  0  0  0  0  0  0  0  0
    4.4020   -4.0933    4.4248 H   0  0  0  0  0  0  0  0  0  0  0  0
    3.4527   -2.6963    4.0756 H   0  0  0  0  0  0  0  0  0  0  0  0
    1.9774   -4.4957    4.7253 H   0  0  0  0  0  0  0  0  0  0  0  0
    1.6402   -3.9617    3.1047 H   0  0  0  0  0  0  0  0  0  0  0  0
    4.2962   -6.4169    4.3031 H   0  0  0  0  0  0  0  0  0  0  0  0
    2.9140   -6.8075    5.1717 H   0  0  0  0  0  0  0  0  0  0  0  0
    4.0121   -8.3187    2.6421 H   0  0  0  0  0  0  0  0  0  0  0  0
    4.2640   -8.5364    4.3901 H   0  0  0  0  0  0  0  0  0  0  0  0
    1.4297   -8.5598    5.6081 H   0  0  0  0  0  0  0  0  0  0  0  0
    0.3887  -11.0894    5.5275 H   0  0  0  0  0  0  0  0  0  0  0  0
   -0.2632   -9.8692    4.4707 H   0  0  0  0  0  0  0  0  0  0  0  0
    1.1222  -12.1899    3.4829 H   0  0  0  0  0  0  0  0  0  0  0  0
    0.4634  -10.8020    2.5821 H   0  0  0  0  0  0  0  0  0  0  0  0
    2.7550  -10.3906    2.0931 H   0  0  0  0  0  0  0  0  0  0  0  0
    3.6967  -12.3145    3.4606 H   0  0  0  0  0  0  0  0  0  0  0  0
    4.5792  -10.8324    3.6300 H   0  0  0  0  0  0  0  0  0  0  0  0
    2.6103  -12.1264    5.5446 H   0  0  0  0  0  0  0  0  0  0  0  0
    3.8208  -13.7092    7.1972 H   0  0  0  0  0  0  0  0  0  0  0  0
    8.6358  -12.1399    7.9194 H   0  0  0  0  0  0  0  0  0  0  0  0
    9.4733   -9.9931    6.7838 H   0  0  0  0  0  0  0  0  0  0  0  0
    7.8988   -8.7156    5.3245 H   0  0  0  0  0  0  0  0  0  0  0  0
    5.7435   -9.4578    4.8833 H   0  0  0  0  0  0  0  0  0  0  0  0
    3.5720   -9.3794    6.2878 H   0  0  0  0  0  0  0  0  0  0  0  0
    2.2781  -10.3198    6.9605 H   0  0  0  0  0  0  0  0  0  0  0  0
    0.6531   -6.3315    5.1473 H   0  0  0  0  0  0  0  0  0  0  0  0
   -1.4739   -7.5459    5.0619 H   0  0  0  0  0  0  0  0  0  0  0  0
   -2.3059   -8.4882    2.8911 H   0  0  0  0  0  0  0  0  0  0  0  0
   -0.9341   -8.2287    0.8461 H   0  0  0  0  0  0  0  0  0  0  0  0
    1.2206   -7.1182    0.9022 H   0  0  0  0  0  0  0  0  0  0  0  0
    3.4318   -6.7805    1.2888 H   0  0  0  0  0  0  0  0  0  0  0  0
    2.6322   -5.2587    1.0693 H   0  0  0  0  0  0  0  0  0  0  0  0
    4.9639   -5.1934    0.8561 H   0  0  0  0  0  0  0  0  0  0  0  0
    5.3129   -5.6127    2.5034 H   0  0  0  0  0  0  0  0  0  0  0  0
    1.6071   -8.6933    3.2297 H   0  0  0  0  0  0  0  0  0  0  0  0
    6.2344  -13.7931    8.1379 H   0  0  0  0  0  0  0  0  0  0  0  0
  1  2  1  0
  1 41  1  0
  1 42  1  0
  1 43  1  0
  2  7  2  0
  2  3  1  0
  3  4  2  0
  4  5  1  0
  4 44  1  0
  5  6  2  0
  5 45  1  0
  6  7  1  0
  6 46  1  0
  7  8  1  0
  8  9  2  0
  8 10  1  0
 10 40  1  0
 10 11  1  0
 11 12  1  0
 11 47  1  0
 11 48  1  0
 12 13  1  0
 12 49  1  0
 12 50  1  0
 13 14  1  0
 13 33  1  0
 13 39  1  0
 14 15  1  0
 14 51  1  0
 14 52  1  0
 15 16  1  0
 15 53  1  0
 15 54  1  0
 16 20  1  0
 16 17  1  0
 16 80  1  6
 17 32  1  0
 17 18  1  0
 17 55  1  1
 18 19  1  0
 18 56  1  0
 18 57  1  0
 19 20  1  0
 19 58  1  0
 19 59  1  0
 20 21  1  0
 20 60  1  6
 21 22  1  0
 21 61  1  0
 21 62  1  0
 22 23  1  0
 22 32  1  0
 22 63  1  6
 23 31  1  0
 23 24  1  0
 24 25  2  0
 24 64  1  0
 25 26  1  0
 25 81  1  0
 26 31  2  0
 26 27  1  0
 27 28  2  0
 27 65  1  0
 28 29  1  0
 28 66  1  0
 29 30  2  0
 29 67  1  0
 30 31  1  0
 30 68  1  0
 32 69  1  0
 32 70  1  0
 33 38  1  0
 33 34  2  0
 34 35  1  0
 34 71  1  0
 35 36  2  0
 35 72  1  0
 36 37  1  0
 36 73  1  0
 37 38  2  0
 37 74  1  0
 38 75  1  0
 39 40  1  0
 39 76  1  0
 39 77  1  0
 40 78  1  0
 40 79  1  0
M  CHG  2  16   1  25   1
M  END
>  <i_m_ct_stereo_status>  (338) 
1

>  <s_m_source_file>  (338) 
/var/tmp/pbs.5076255.sched01/tmpxe1g82q3/12669a6jj4p.sdf

>  <i_m_source_file_index>  (338) 
4

>  <i_lp_mmshare_version>  (338) 
48012

>  <i_f3d_flags>  (338) 
0

>  <s_epik_input>  (338) 
W0NIM11jMW5bY0hdW2NIXVtjSF1jMUMoPU8pTihbQ0gyXVtDSDJdMilbQ0gyXVtDSDJdQzIoYzNbY0hdW2NIXVtjSF1bY0hdW2NIXTMpW0NIMl1bQ0gyXU4oW0NAQEhdNDUpW0NASF0oW0NIMl1bQ0gyXTQpW0NIMl1bQ0BIXShbQ0gyXTUpbihbY0hdbjYpYyhjNjcpW2NIXVtjSF1bY0hdW2NIXTc=

>  <s_epik_cmdline>  (338) 
J2VwaWtfcHl0aG9uJywgJy1waHQnLCAnMi4wJywgJy1waCcsICc3LjAnLCAnLXRuJywgJzgnLCAnLW1hJywgJzIwMCcsICctaW1hZScsICc8aW5maWxlLm1hZT4nLCAnLW9tYWUnLCAnPG91dGZpbGUubWFlPic=

>  <r_epik_Ionization_Penalty>  (338) 
1.56624

>  <r_epik_Ionization_Penalty_Charging>  (338) 
1.56516

>  <r_epik_Ionization_Penalty_Neutral>  (338) 
0.00107361

>  <r_epik_State_Penalty>  (338) 
1.65726

>  <r_epik_Charging_Adjusted_Penalty>  (338) 
3.22242

>  <i_epik_Tot_Q>  (338) 
2

>  <i_epik_Tot_abs_Q>  (338) 
2

>  <s_lp_Force_Field>  (338) 
OPLS3e

>  <r_lp_Energy>  (338) 
84.9981

>  <b_lp_Chiralities_Consistent>  (338) 
1

>  <s_lp_Variant>  (338) 
97:0-3

>  <s_i_glide_gridfile>  (338) 
pfpi4k_grid

>  <i_i_glide_lignum>  (338) 
4

>  <i_i_glide_rotatable_bonds>  (338) 
7

>  <r_i_docking_score>  (338) 
-3.25253

>  <r_i_glide_ligand_efficiency>  (338) 
-0.0813132

>  <r_i_glide_ligand_efficiency_sa>  (338) 
-0.278087

>  <r_i_glide_ligand_efficiency_ln>  (338) 
-0.693669

>  <r_i_glide_gscore>  (338) 
-3.25253

>  <r_i_glide_lipo>  (338) 
-0.623885

>  <r_i_glide_hbond>  (338) 
0

>  <r_i_glide_metal>  (338) 
-0

>  <r_i_glide_rewards>  (338) 
-0.0510939

>  <r_i_glide_evdw>  (338) 
-31.7879

>  <r_i_glide_ecoul>  (338) 
-8.77201

>  <r_i_glide_erotb>  (338) 
0.503567

>  <r_i_glide_esite>  (338) 
-0.175918

>  <r_i_glide_emodel>  (338) 
-46.7568

>  <r_i_glide_energy>  (338) 
-40.56

>  <r_i_glide_einternal>  (338) 
7.15089

>  <r_i_glide_intrahb_reward>  (338) 
-0

>  <i_i_glide_confnum>  (338) 
6

>  <i_i_glide_posenum>  (338) 
10

>  <r_i_glide_eff_state_penalty>  (338) 
0

>  <ligand_id>  (338) 
97

>  <original_smiles>  (338) 
Cc1ncccc1C(=O)N1CCC(CCN2C3CCC2CC(n2cnc4ccccc42)C3)(c2ccccc2)CC1

>  <smiles>  (338) 
[H]c1nc(C([H])([H])[H])c(C(=O)N2C([H])([H])C([H])([H])C(c3c([H])c([H])c([H])c([H])c3[H])(C([H])([H])C([H])([H])[N+]3([H])C4([H])C([H])([H])C([H])([H])C3([H])C([H])([H])C([H])(n3c([H])[n+]([H])c5c([H])c([H])c([H])c([H])c53)C4([H])[H])C([H])([H])C2([H])[H])c([H])c1[H]

$$$$
97:2:2
     RDKit          3D

 81 87  0  0  1  0  0  0  0  0999 V2000
    5.9380   -0.6573    0.5611 C   0  0  0  0  0  0  0  0  0  0  0  0
    5.0069   -1.4867   -0.3107 C   0  0  0  0  0  0  0  0  0  0  0  0
    5.3250   -1.4677   -1.6322 N   0  0  0  0  0  0  0  0  0  0  0  0
    4.5751   -2.1988   -2.4790 C   0  0  0  0  0  0  0  0  0  0  0  0
    3.4980   -2.9947   -2.0685 C   0  0  0  0  0  0  0  0  0  0  0  0
    3.1587   -3.0020   -0.7065 C   0  0  0  0  0  0  0  0  0  0  0  0
    3.9340   -2.2566    0.2083 C   0  0  0  0  0  0  0  0  0  0  0  0
    3.5959   -2.2975    1.6853 C   0  0  0  0  0  0  0  0  0  0  0  0
    3.4945   -1.2442    2.3032 O   0  0  0  0  0  0  0  0  0  0  0  0
    3.4631   -3.5156    2.2631 N   0  0  0  0  0  0  0  0  0  0  0  0
    3.0201   -3.6442    3.6708 C   0  0  0  0  0  0  0  0  0  0  0  0
    1.8065   -4.5728    3.7733 C   0  0  0  0  0  0  0  0  0  0  0  0
    1.9934   -5.9478    3.0844 C   0  0  0  0  0  0  0  0  0  0  0  0
    3.0231   -6.8197    3.8863 C   0  0  0  0  0  0  0  0  0  0  0  0
    3.3268   -8.2329    3.3181 C   0  0  0  0  0  0  0  0  0  0  0  0
    2.1210   -9.1232    3.3398 N   0  0  2  0  0  0  0  0  0  0  0  0
    1.5566   -9.5713    4.6366 C   0  0  1  0  0  0  0  0  0  0  0  0
    0.3826  -10.5163    4.2267 C   0  0  0  0  0  0  0  0  0  0  0  0
    0.7938  -11.0131    2.8100 C   0  0  0  0  0  0  0  0  0  0  0  0
    2.1663  -10.3524    2.5504 C   0  0  2  0  0  0  0  0  0  0  0  0
    3.2635  -11.2421    3.1116 C   0  0  0  0  0  0  0  0  0  0  0  0
    3.1377  -11.5617    4.6201 C   0  0  1  0  0  0  0  0  0  0  0  0
    4.3675  -12.0532    5.2663 N   0  0  0  0  0  0  0  0  0  0  0  0
    4.5668  -12.1717    6.6134 C   0  0  0  0  0  0  0  0  0  0  0  0
    5.8260  -12.6455    6.8015 N   0  0  0  0  0  0  0  0  0  0  0  0
    6.4293  -12.8902    5.5499 C   0  0  0  0  0  0  0  0  0  0  0  0
    7.6889  -13.3905    5.2487 C   0  0  0  0  0  0  0  0  0  0  0  0
    8.0150  -13.5310    3.8737 C   0  0  0  0  0  0  0  0  0  0  0  0
    7.0786  -13.1714    2.8722 C   0  0  0  0  0  0  0  0  0  0  0  0
    5.8041  -12.6839    3.1792 C   0  0  0  0  0  0  0  0  0  0  0  0
    5.4825  -12.5283    4.5491 C   0  0  0  0  0  0  0  0  0  0  0  0
    2.6168  -10.3391    5.4245 C   0  0  0  0  0  0  0  0  0  0  0  0
    0.6179   -6.6376    3.0443 C   0  0  0  0  0  0  0  0  0  0  0  0
   -0.0527   -6.8622    4.2786 C   0  0  0  0  0  0  0  0  0  0  0  0
   -1.2308   -7.6484    4.2961 C   0  0  0  0  0  0  0  0  0  0  0  0
   -1.7392   -8.1846    3.1383 C   0  0  0  0  0  0  0  0  0  0  0  0
   -1.0500   -7.9784    1.9043 C   0  0  0  0  0  0  0  0  0  0  0  0
    0.0963   -7.1825    1.8736 C   0  0  0  0  0  0  0  0  0  0  0  0
    2.5419   -5.6862    1.6447 C   0  0  0  0  0  0  0  0  0  0  0  0
    3.8049   -4.8190    1.6429 C   0  0  0  0  0  0  0  0  0  0  0  0
    6.1112   -1.1083    1.5411 H   0  0  0  0  0  0  0  0  0  0  0  0
    5.5188    0.3374    0.7086 H   0  0  0  0  0  0  0  0  0  0  0  0
    6.9150   -0.5455    0.0904 H   0  0  0  0  0  0  0  0  0  0  0  0
    4.8740   -2.1781   -3.5243 H   0  0  0  0  0  0  0  0  0  0  0  0
    2.9592   -3.6140   -2.7594 H   0  0  0  0  0  0  0  0  0  0  0  0
    2.2959   -3.5679   -0.3846 H   0  0  0  0  0  0  0  0  0  0  0  0
    3.8475   -4.0320    4.2591 H   0  0  0  0  0  0  0  0  0  0  0  0
    2.7398   -2.7017    4.1447 H   0  0  0  0  0  0  0  0  0  0  0  0
    1.5528   -4.6964    4.8264 H   0  0  0  0  0  0  0  0  0  0  0  0
    0.9478   -4.0777    3.3202 H   0  0  0  0  0  0  0  0  0  0  0  0
    3.9823   -6.3327    3.9390 H   0  0  0  0  0  0  0  0  0  0  0  0
    2.7333   -6.9267    4.9330 H   0  0  0  0  0  0  0  0  0  0  0  0
    3.6840   -8.1575    2.2840 H   0  0  0  0  0  0  0  0  0  0  0  0
    4.1844   -8.6631    3.8602 H   0  0  0  0  0  0  0  0  0  0  0  0
    1.2253   -8.7407    5.2660 H   0  0  0  0  0  0  0  0  0  0  0  0
    0.3220  -11.3652    4.9391 H   0  0  0  0  0  0  0  0  0  0  0  0
   -0.5384   -9.9942    4.1398 H   0  0  0  0  0  0  0  0  0  0  0  0
    0.8213  -12.0990    2.7223 H   0  0  0  0  0  0  0  0  0  0  0  0
    0.0768  -10.6404    2.0819 H   0  0  0  0  0  0  0  0  0  0  0  0
    2.3489  -10.1302    1.4882 H   0  0  0  0  0  0  0  0  0  0  0  0
    3.2536  -12.1601    2.5284 H   0  0  0  0  0  0  0  0  0  0  0  0
    4.1994  -10.7016    2.9160 H   0  0  0  0  0  0  0  0  0  0  0  0
    2.4000  -12.3593    4.7359 H   0  0  0  0  0  0  0  0  0  0  0  0
    3.8565  -11.9196    7.3976 H   0  0  0  0  0  0  0  0  0  0  0  0
    8.3895  -13.6621    6.0210 H   0  0  0  0  0  0  0  0  0  0  0  0
    8.9791  -13.9201    3.5734 H   0  0  0  0  0  0  0  0  0  0  0  0
    7.3420  -13.2724    1.8308 H   0  0  0  0  0  0  0  0  0  0  0  0
    5.1537  -12.4549    2.3495 H   0  0  0  0  0  0  0  0  0  0  0  0
    3.4387   -9.6647    5.6966 H   0  0  0  0  0  0  0  0  0  0  0  0
    2.1486  -10.6745    6.3501 H   0  0  0  0  0  0  0  0  0  0  0  0
    0.3699   -6.5452    5.1893 H   0  0  0  0  0  0  0  0  0  0  0  0
   -1.6562   -7.9139    5.2829 H   0  0  0  0  0  0  0  0  0  0  0  0
   -2.5935   -8.8395    3.1568 H   0  0  0  0  0  0  0  0  0  0  0  0
   -1.3200   -8.5201    1.0271 H   0  0  0  0  0  0  0  0  0  0  0  0
    0.6269   -7.1916    0.9125 H   0  0  0  0  0  0  0  0  0  0  0  0
    2.7559   -6.6064    1.0996 H   0  0  0  0  0  0  0  0  0  0  0  0
    1.7688   -5.1744    1.0714 H   0  0  0  0  0  0  0  0  0  0  0  0
    4.1565   -4.7750    0.6120 H   0  0  0  0  0  0  0  0  0  0  0  0
    4.6235   -5.2886    2.2042 H   0  0  0  0  0  0  0  0  0  0  0  0
    1.3741   -8.5506    2.9046 H   0  0  0  0  0  0  0  0  0  0  0  0
    6.2404  -12.8011    7.7169 H   0  0  0  0  0  0  0  0  0  0  0  0
  1  2  1  0
  1 41  1  0
  1 42  1  0
  1 43  1  0
  2  7  2  0
  2  3  1  0
  3  4  2  0
  4  5  1  0
  4 44  1  0
  5  6  2  0
  5 45  1  0
  6  7  1  0
  6 46  1  0
  7  8  1  0
  8  9  2  0
  8 10  1  0
 10 40  1  0
 10 11  1  0
 11 12  1  0
 11 47  1  0
 11 48  1  0
 12 13  1  0
 12 49  1  0
 12 50  1  0
 13 14  1  0
 13 33  1  0
 13 39  1  0
 14 15  1  0
 14 51  1  0
 14 52  1  0
 15 16  1  0
 15 53  1  0
 15 54  1  0
 16 20  1  0
 16 17  1  0
 16 80  1  6
 17 32  1  0
 17 18  1  0
 17 55  1  1
 18 19  1  0
 18 56  1  0
 18 57  1  0
 19 20  1  0
 19 58  1  0
 19 59  1  0
 20 21  1  0
 20 60  1  6
 21 22  1  0
 21 61  1  0
 21 62  1  0
 22 23  1  0
 22 32  1  0
 22 63  1  6
 23 31  1  0
 23 24  1  0
 24 25  2  0
 24 64  1  0
 25 26  1  0
 25 81  1  0
 26 31  2  0
 26 27  1  0
 27 28  2  0
 27 65  1  0
 28 29  1  0
 28 66  1  0
 29 30  2  0
 29 67  1  0
 30 31  1  0
 30 68  1  0
 32 69  1  0
 32 70  1  0
 33 38  1  0
 33 34  2  0
 34 35  1  0
 34 71  1  0
 35 36  2  0
 35 72  1  0
 36 37  1  0
 36 73  1  0
 37 38  2  0
 37 74  1  0
 38 75  1  0
 39 40  1  0
 39 76  1  0
 39 77  1  0
 40 78  1  0
 40 79  1  0
M  CHG  2  16   1  25   1
M  END
>  <i_m_ct_stereo_status>  (339) 
1

>  <s_m_source_file>  (339) 
/var/tmp/pbs.5076255.sched01/tmpxe1g82q3/12669a6jj4p.sdf

>  <i_m_source_file_index>  (339) 
4

>  <i_lp_mmshare_version>  (339) 
48012

>  <i_f3d_flags>  (339) 
0

>  <s_epik_input>  (339) 
W0NIM11jMW5bY0hdW2NIXVtjSF1jMUMoPU8pTihbQ0gyXVtDSDJdMilbQ0gyXVtDSDJdQzIoYzNbY0hdW2NIXVtjSF1bY0hdW2NIXTMpW0NIMl1bQ0gyXU4oW0NAQEhdNDUpW0NASF0oW0NIMl1bQ0gyXTQpW0NIMl1bQ0BIXShbQ0gyXTUpbihbY0hdbjYpYyhjNjcpW2NIXVtjSF1bY0hdW2NIXTc=

>  <s_epik_cmdline>  (339) 
J2VwaWtfcHl0aG9uJywgJy1waHQnLCAnMi4wJywgJy1waCcsICc3LjAnLCAnLXRuJywgJzgnLCAnLW1hJywgJzIwMCcsICctaW1hZScsICc8aW5maWxlLm1hZT4nLCAnLW9tYWUnLCAnPG91dGZpbGUubWFlPic=

>  <r_epik_Ionization_Penalty>  (339) 
1.56624

>  <r_epik_Ionization_Penalty_Charging>  (339) 
1.56516

>  <r_epik_Ionization_Penalty_Neutral>  (339) 
0.00107361

>  <r_epik_State_Penalty>  (339) 
1.65726

>  <r_epik_Charging_Adjusted_Penalty>  (339) 
3.22242

>  <i_epik_Tot_Q>  (339) 
2

>  <i_epik_Tot_abs_Q>  (339) 
2

>  <s_lp_Force_Field>  (339) 
OPLS3e

>  <r_lp_Energy>  (339) 
84.9981

>  <b_lp_Chiralities_Consistent>  (339) 
1

>  <s_lp_Variant>  (339) 
97:0-3

>  <s_i_glide_gridfile>  (339) 
pfpi4k_grid

>  <i_i_glide_lignum>  (339) 
4

>  <i_i_glide_rotatable_bonds>  (339) 
7

>  <r_i_docking_score>  (339) 
-3.13986

>  <r_i_glide_ligand_efficiency>  (339) 
-0.0784965

>  <r_i_glide_ligand_efficiency_sa>  (339) 
-0.268454

>  <r_i_glide_ligand_efficiency_ln>  (339) 
-0.669639

>  <r_i_glide_gscore>  (339) 
-3.13986

>  <r_i_glide_lipo>  (339) 
-0.403501

>  <r_i_glide_hbond>  (339) 
0

>  <r_i_glide_metal>  (339) 
-0

>  <r_i_glide_rewards>  (339) 
-0.00167514

>  <r_i_glide_evdw>  (339) 
-38.4191

>  <r_i_glide_ecoul>  (339) 
-7.83076

>  <r_i_glide_erotb>  (339) 
0.503567

>  <r_i_glide_esite>  (339) 
-0.142681

>  <r_i_glide_emodel>  (339) 
-49.831

>  <r_i_glide_energy>  (339) 
-46.2498

>  <r_i_glide_einternal>  (339) 
9.44264

>  <r_i_glide_intrahb_reward>  (339) 
-0

>  <i_i_glide_confnum>  (339) 
6

>  <i_i_glide_posenum>  (339) 
38

>  <r_i_glide_eff_state_penalty>  (339) 
0

>  <ligand_id>  (339) 
97

>  <original_smiles>  (339) 
Cc1ncccc1C(=O)N1CCC(CCN2C3CCC2CC(n2cnc4ccccc42)C3)(c2ccccc2)CC1

>  <smiles>  (339) 
[H]c1nc(C([H])([H])[H])c(C(=O)N2C([H])([H])C([H])([H])C(c3c([H])c([H])c([H])c([H])c3[H])(C([H])([H])C([H])([H])[N+]3([H])C4([H])C([H])([H])C([H])([H])C3([H])C([H])([H])C([H])(n3c([H])[n+]([H])c5c([H])c([H])c([H])c([H])c53)C4([H])[H])C([H])([H])C2([H])[H])c([H])c1[H]

$$$$
97:3:0
     RDKit          3D

 81 87  0  0  1  0  0  0  0  0999 V2000
    6.7237   -6.0666    1.1344 C   0  0  0  0  0  0  0  0  0  0  0  0
    5.2024   -6.0763    1.1207 C   0  0  0  0  0  0  0  0  0  0  0  0
    4.6538   -7.2973    1.3461 N   0  0  0  0  0  0  0  0  0  0  0  0
    3.3069   -7.4043    1.3814 C   0  0  0  0  0  0  0  0  0  0  0  0
    2.4525   -6.3131    1.2011 C   0  0  0  0  0  0  0  0  0  0  0  0
    3.0198   -5.0541    0.9360 C   0  0  0  0  0  0  0  0  0  0  0  0
    4.4200   -4.9127    0.9371 C   0  0  0  0  0  0  0  0  0  0  0  0
    5.0515   -3.5624    0.7284 C   0  0  0  0  0  0  0  0  0  0  0  0
    5.9186   -3.4222   -0.1288 O   0  0  0  0  0  0  0  0  0  0  0  0
    4.6466   -2.5303    1.5235 N   0  0  0  0  0  0  0  0  0  0  0  0
    3.7025   -2.6647    2.6651 C   0  0  0  0  0  0  0  0  0  0  0  0
    4.2811   -2.0662    3.9440 C   0  0  0  0  0  0  0  0  0  0  0  0
    4.6881   -0.5881    3.8059 C   0  0  0  0  0  0  0  0  0  0  0  0
    3.4537    0.3025    3.4695 C   0  0  0  0  0  0  0  0  0  0  0  0
    2.4454    0.4767    4.6110 C   0  0  0  0  0  0  0  0  0  0  0  0
    1.3331    1.3943    4.2424 N   0  0  1  0  0  0  0  0  0  0  0  0
    0.2547    0.7816    3.4543 C   0  0  1  0  0  0  0  0  0  0  0  0
   -0.5898    0.0375    4.5075 C   0  0  0  0  0  0  0  0  0  0  0  0
   -0.3384    0.7967    5.8270 C   0  0  0  0  0  0  0  0  0  0  0  0
    0.6279    1.9093    5.4294 C   0  0  2  0  0  0  0  0  0  0  0  0
   -0.1070    3.1776    4.9971 C   0  0  0  0  0  0  0  0  0  0  0  0
   -1.1055    2.9428    3.8350 C   0  0  1  0  0  0  0  0  0  0  0  0
   -1.4870    4.2376    3.2623 N   0  0  0  0  0  0  0  0  0  0  0  0
   -0.6842    5.3443    3.0606 C   0  0  0  0  0  0  0  0  0  0  0  0
   -1.3784    6.2252    2.3027 N   0  0  0  0  0  0  0  0  0  0  0  0
   -2.6727    5.7637    2.0929 C   0  0  0  0  0  0  0  0  0  0  0  0
   -3.7420    6.3655    1.4299 C   0  0  0  0  0  0  0  0  0  0  0  0
   -4.9187    5.6047    1.3507 C   0  0  0  0  0  0  0  0  0  0  0  0
   -4.9603    4.2928    1.8600 C   0  0  0  0  0  0  0  0  0  0  0  0
   -3.8690    3.6762    2.4747 C   0  0  0  0  0  0  0  0  0  0  0  0
   -2.7146    4.4567    2.6248 C   0  0  0  0  0  0  0  0  0  0  0  0
   -0.5215    1.9449    2.7783 C   0  0  0  0  0  0  0  0  0  0  0  0
    5.4023   -0.1325    5.0997 C   0  0  0  0  0  0  0  0  0  0  0  0
    6.6430    0.5360    5.0848 C   0  0  0  0  0  0  0  0  0  0  0  0
    7.2484    0.9846    6.2753 C   0  0  0  0  0  0  0  0  0  0  0  0
    6.6044    0.7900    7.5049 C   0  0  0  0  0  0  0  0  0  0  0  0
    5.3753    0.1241    7.5523 C   0  0  0  0  0  0  0  0  0  0  0  0
    4.7969   -0.3659    6.3656 C   0  0  0  0  0  0  0  0  0  0  0  0
    5.6488   -0.5375    2.5836 C   0  0  0  0  0  0  0  0  0  0  0  0
    5.0898   -1.1530    1.2901 C   0  0  0  0  0  0  0  0  0  0  0  0
    7.0949   -5.8718    0.1295 H   0  0  0  0  0  0  0  0  0  0  0  0
    7.1378   -7.0201    1.4637 H   0  0  0  0  0  0  0  0  0  0  0  0
    7.1109   -5.2916    1.7989 H   0  0  0  0  0  0  0  0  0  0  0  0
    2.9098   -8.3926    1.5689 H   0  0  0  0  0  0  0  0  0  0  0  0
    1.3787   -6.4424    1.2606 H   0  0  0  0  0  0  0  0  0  0  0  0
    2.3744   -4.1989    0.7860 H   0  0  0  0  0  0  0  0  0  0  0  0
    2.7383   -2.2204    2.3787 H   0  0  0  0  0  0  0  0  0  0  0  0
    3.4703   -3.6947    2.9815 H   0  0  0  0  0  0  0  0  0  0  0  0
    3.5591   -2.2393    4.7597 H   0  0  0  0  0  0  0  0  0  0  0  0
    5.1657   -2.6377    4.2324 H   0  0  0  0  0  0  0  0  0  0  0  0
    3.7953    1.2860    3.1492 H   0  0  0  0  0  0  0  0  0  0  0  0
    2.9167   -0.0973    2.6137 H   0  0  0  0  0  0  0  0  0  0  0  0
    2.0826   -0.4885    4.9612 H   0  0  0  0  0  0  0  0  0  0  0  0
    2.9387    0.9743    5.4391 H   0  0  0  0  0  0  0  0  0  0  0  0
    0.6340    0.1033    2.6904 H   0  0  0  0  0  0  0  0  0  0  0  0
   -1.6463   -0.0086    4.2407 H   0  0  0  0  0  0  0  0  0  0  0  0
   -0.2344   -0.9883    4.6172 H   0  0  0  0  0  0  0  0  0  0  0  0
   -1.2490    1.1942    6.2773 H   0  0  0  0  0  0  0  0  0  0  0  0
    0.1450    0.1522    6.5642 H   0  0  0  0  0  0  0  0  0  0  0  0
    1.3021    2.1918    6.2358 H   0  0  0  0  0  0  0  0  0  0  0  0
   -0.6162    3.6569    5.8377 H   0  0  0  0  0  0  0  0  0  0  0  0
    0.6989    3.8533    4.7035 H   0  0  0  0  0  0  0  0  0  0  0  0
   -2.0160    2.4828    4.2458 H   0  0  0  0  0  0  0  0  0  0  0  0
    0.3534    5.4555    3.2661 H   0  0  0  0  0  0  0  0  0  0  0  0
   -3.6806    7.3827    1.0423 H   0  0  0  0  0  0  0  0  0  0  0  0
   -5.8002    6.0247    0.8650 H   0  0  0  0  0  0  0  0  0  0  0  0
   -5.8585    3.7178    1.7936 H   0  0  0  0  0  0  0  0  0  0  0  0
   -3.9470    2.6622    2.8610 H   0  0  0  0  0  0  0  0  0  0  0  0
    0.1590    2.4641    2.1036 H   0  0  0  0  0  0  0  0  0  0  0  0
   -1.2997    1.5334    2.1324 H   0  0  0  0  0  0  0  0  0  0  0  0
    7.1818    0.7387    4.1668 H   0  0  0  0  0  0  0  0  0  0  0  0
    8.2070    1.4888    6.2301 H   0  0  0  0  0  0  0  0  0  0  0  0
    7.0548    1.1517    8.4231 H   0  0  0  0  0  0  0  0  0  0  0  0
    4.8461   -0.0127    8.4854 H   0  0  0  0  0  0  0  0  0  0  0  0
    3.8589   -0.8800    6.4464 H   0  0  0  0  0  0  0  0  0  0  0  0
    5.8970    0.4918    2.3774 H   0  0  0  0  0  0  0  0  0  0  0  0
    6.5776   -1.0573    2.8060 H   0  0  0  0  0  0  0  0  0  0  0  0
    5.8659   -1.0759    0.5252 H   0  0  0  0  0  0  0  0  0  0  0  0
    4.2673   -0.5508    0.8990 H   0  0  0  0  0  0  0  0  0  0  0  0
    1.7456    2.1559    3.7312 H   0  0  0  0  0  0  0  0  0  0  0  0
   -0.9597    7.1002    2.0175 H   0  0  0  0  0  0  0  0  0  0  0  0
  1  2  1  0
  1 41  1  0
  1 42  1  0
  1 43  1  0
  2  7  2  0
  2  3  1  0
  3  4  2  0
  4  5  1  0
  4 44  1  0
  5  6  2  0
  5 45  1  0
  6  7  1  0
  6 46  1  0
  7  8  1  0
  8  9  2  0
  8 10  1  0
 10 40  1  0
 10 11  1  0
 11 12  1  0
 11 47  1  0
 11 48  1  0
 12 13  1  0
 12 49  1  0
 12 50  1  0
 13 14  1  0
 13 33  1  0
 13 39  1  0
 14 15  1  0
 14 51  1  0
 14 52  1  0
 15 16  1  0
 15 53  1  0
 15 54  1  0
 16 20  1  0
 16 17  1  0
 16 80  1  6
 17 32  1  0
 17 18  1  0
 17 55  1  6
 18 19  1  0
 18 56  1  0
 18 57  1  0
 19 20  1  0
 19 58  1  0
 19 59  1  0
 20 21  1  0
 20 60  1  1
 21 22  1  0
 21 61  1  0
 21 62  1  0
 22 23  1  0
 22 32  1  0
 22 63  1  1
 23 31  1  0
 23 24  1  0
 24 25  2  0
 24 64  1  0
 25 26  1  0
 25 81  1  0
 26 31  2  0
 26 27  1  0
 27 28  2  0
 27 65  1  0
 28 29  1  0
 28 66  1  0
 29 30  2  0
 29 67  1  0
 30 31  1  0
 30 68  1  0
 32 69  1  0
 32 70  1  0
 33 38  1  0
 33 34  2  0
 34 35  1  0
 34 71  1  0
 35 36  2  0
 35 72  1  0
 36 37  1  0
 36 73  1  0
 37 38  2  0
 37 74  1  0
 38 75  1  0
 39 40  1  0
 39 76  1  0
 39 77  1  0
 40 78  1  0
 40 79  1  0
M  CHG  2  16   1  25   1
M  END
>  <i_m_ct_stereo_status>  (340) 
1

>  <s_m_source_file>  (340) 
/var/tmp/pbs.5076255.sched01/tmpxe1g82q3/12669a6jj4p.sdf

>  <i_m_source_file_index>  (340) 
5

>  <i_lp_mmshare_version>  (340) 
48012

>  <i_f3d_flags>  (340) 
0

>  <s_epik_input>  (340) 
W0NIM11jMW5bY0hdW2NIXVtjSF1jMUMoPU8pTihbQ0gyXVtDSDJdMilbQ0gyXVtDSDJdQzIoYzNbY0hdW2NIXVtjSF1bY0hdW2NIXTMpW0NIMl1bQ0gyXU4oW0NAQEhdNDUpW0NASF0oW0NIMl1bQ0gyXTQpW0NIMl1bQ0BIXShbQ0gyXTUpbihbY0hdbjYpYyhjNjcpW2NIXVtjSF1bY0hdW2NIXTc=

>  <s_epik_cmdline>  (340) 
J2VwaWtfcHl0aG9uJywgJy1waHQnLCAnMi4wJywgJy1waCcsICc3LjAnLCAnLXRuJywgJzgnLCAnLW1hJywgJzIwMCcsICctaW1hZScsICc8aW5maWxlLm1hZT4nLCAnLW9tYWUnLCAnPG91dGZpbGUubWFlPic=

>  <r_epik_Ionization_Penalty>  (340) 
1.56624

>  <r_epik_Ionization_Penalty_Charging>  (340) 
1.56516

>  <r_epik_Ionization_Penalty_Neutral>  (340) 
0.00107361

>  <r_epik_State_Penalty>  (340) 
1.65726

>  <r_epik_Charging_Adjusted_Penalty>  (340) 
3.22242

>  <i_epik_Tot_Q>  (340) 
2

>  <i_epik_Tot_abs_Q>  (340) 
2

>  <s_lp_Force_Field>  (340) 
OPLS3e

>  <r_lp_Energy>  (340) 
84.3088

>  <b_lp_Chiralities_Consistent>  (340) 
1

>  <s_lp_Variant>  (340) 
97:0-4

>  <s_i_glide_gridfile>  (340) 
pfpi4k_grid

>  <i_i_glide_lignum>  (340) 
5

>  <i_i_glide_rotatable_bonds>  (340) 
7

>  <r_i_docking_score>  (340) 
-4.50858

>  <r_i_glide_ligand_efficiency>  (340) 
-0.112714

>  <r_i_glide_ligand_efficiency_sa>  (340) 
-0.385478

>  <r_i_glide_ligand_efficiency_ln>  (340) 
-0.961547

>  <r_i_glide_gscore>  (340) 
-4.50858

>  <r_i_glide_lipo>  (340) 
-1.67721

>  <r_i_glide_hbond>  (340) 
-0.2

>  <r_i_glide_metal>  (340) 
-0

>  <r_i_glide_rewards>  (340) 
-0.0810066

>  <r_i_glide_evdw>  (340) 
-17.779

>  <r_i_glide_ecoul>  (340) 
-12.3882

>  <r_i_glide_erotb>  (340) 
0.503567

>  <r_i_glide_esite>  (340) 
-0.30675

>  <r_i_glide_emodel>  (340) 
-42.0967

>  <r_i_glide_energy>  (340) 
-30.1672

>  <r_i_glide_einternal>  (340) 
3.37559

>  <r_i_glide_intrahb_reward>  (340) 
-0

>  <i_i_glide_confnum>  (340) 
6

>  <i_i_glide_posenum>  (340) 
15

>  <r_i_glide_eff_state_penalty>  (340) 
0

>  <ligand_id>  (340) 
97

>  <original_smiles>  (340) 
Cc1ncccc1C(=O)N1CCC(CCN2C3CCC2CC(n2cnc4ccccc42)C3)(c2ccccc2)CC1

>  <smiles>  (340) 
[H]c1nc(C([H])([H])[H])c(C(=O)N2C([H])([H])C([H])([H])C(c3c([H])c([H])c([H])c([H])c3[H])(C([H])([H])C([H])([H])[N+]3([H])C4([H])C([H])([H])C([H])([H])C3([H])C([H])([H])C([H])(n3c([H])[n+]([H])c5c([H])c([H])c([H])c([H])c53)C4([H])[H])C([H])([H])C2([H])[H])c([H])c1[H]

$$$$
97:3:1
     RDKit          3D

 81 87  0  0  1  0  0  0  0  0999 V2000
    0.7454   -8.8612    5.9187 C   0  0  0  0  0  0  0  0  0  0  0  0
    1.6440   -9.4784    4.8612 C   0  0  0  0  0  0  0  0  0  0  0  0
    1.1958  -10.6391    4.3339 N   0  0  0  0  0  0  0  0  0  0  0  0
    1.9354  -11.2432    3.3841 C   0  0  0  0  0  0  0  0  0  0  0  0
    3.1366  -10.7095    2.8927 C   0  0  0  0  0  0  0  0  0  0  0  0
    3.6106   -9.5115    3.4396 C   0  0  0  0  0  0  0  0  0  0  0  0
    2.8474   -8.8559    4.4311 C   0  0  0  0  0  0  0  0  0  0  0  0
    3.3179   -7.5429    4.9780 C   0  0  0  0  0  0  0  0  0  0  0  0
    3.4621   -7.4181    6.2011 O   0  0  0  0  0  0  0  0  0  0  0  0
    3.5869   -6.5460    4.0909 N   0  0  0  0  0  0  0  0  0  0  0  0
    4.2303   -5.3046    4.5451 C   0  0  0  0  0  0  0  0  0  0  0  0
    5.4352   -4.9659    3.6444 C   0  0  0  0  0  0  0  0  0  0  0  0
    5.0796   -4.8777    2.1206 C   0  0  0  0  0  0  0  0  0  0  0  0
    4.0653   -3.7036    1.8882 C   0  0  0  0  0  0  0  0  0  0  0  0
    4.6263   -2.2896    2.1712 C   0  0  0  0  0  0  0  0  0  0  0  0
    3.5487   -1.3353    2.5271 N   0  0  1  0  0  0  0  0  0  0  0  0
    3.0831   -1.4484    3.9264 C   0  0  1  0  0  0  0  0  0  0  0  0
    4.1799   -0.7274    4.7320 C   0  0  0  0  0  0  0  0  0  0  0  0
    4.7886    0.2859    3.7432 C   0  0  0  0  0  0  0  0  0  0  0  0
    3.9911    0.0699    2.4531 C   0  0  2  0  0  0  0  0  0  0  0  0
    2.7369    0.9406    2.3731 C   0  0  0  0  0  0  0  0  0  0  0  0
    1.7953    0.7270    3.5956 C   0  0  1  0  0  0  0  0  0  0  0  0
    0.4622    1.2437    3.2873 N   0  0  0  0  0  0  0  0  0  0  0  0
   -0.2237    1.1271    2.1100 C   0  0  0  0  0  0  0  0  0  0  0  0
   -1.4206    1.7399    2.2767 N   0  0  0  0  0  0  0  0  0  0  0  0
   -1.5222    2.2471    3.5657 C   0  0  0  0  0  0  0  0  0  0  0  0
   -2.5555    2.9401    4.1726 C   0  0  0  0  0  0  0  0  0  0  0  0
   -2.3772    3.3039    5.5164 C   0  0  0  0  0  0  0  0  0  0  0  0
   -1.1840    2.9849    6.2121 C   0  0  0  0  0  0  0  0  0  0  0  0
   -0.1334    2.2800    5.5776 C   0  0  0  0  0  0  0  0  0  0  0  0
   -0.3211    1.9209    4.2452 C   0  0  0  0  0  0  0  0  0  0  0  0
    1.7067   -0.7638    4.0128 C   0  0  0  0  0  0  0  0  0  0  0  0
    6.3395   -4.7086    1.2266 C   0  0  0  0  0  0  0  0  0  0  0  0
    7.4659   -5.5780    1.3860 C   0  0  0  0  0  0  0  0  0  0  0  0
    8.6169   -5.3889    0.5943 C   0  0  0  0  0  0  0  0  0  0  0  0
    8.7002   -4.3061   -0.3143 C   0  0  0  0  0  0  0  0  0  0  0  0
    7.5897   -3.4515   -0.4613 C   0  0  0  0  0  0  0  0  0  0  0  0
    6.3941   -3.7048    0.2176 C   0  0  0  0  0  0  0  0  0  0  0  0
    4.3730   -6.2131    1.7575 C   0  0  0  0  0  0  0  0  0  0  0  0
    3.1529   -6.5299    2.6633 C   0  0  0  0  0  0  0  0  0  0  0  0
    1.2303   -8.9192    6.8940 H   0  0  0  0  0  0  0  0  0  0  0  0
   -0.2096   -9.3885    5.9857 H   0  0  0  0  0  0  0  0  0  0  0  0
    0.5345   -7.8129    5.6984 H   0  0  0  0  0  0  0  0  0  0  0  0
    1.5427  -12.1720    2.9948 H   0  0  0  0  0  0  0  0  0  0  0  0
    3.6837  -11.2039    2.1027 H   0  0  0  0  0  0  0  0  0  0  0  0
    4.5328   -9.0840    3.0769 H   0  0  0  0  0  0  0  0  0  0  0  0
    3.4656   -4.5377    4.5469 H   0  0  0  0  0  0  0  0  0  0  0  0
    4.5707   -5.3410    5.5838 H   0  0  0  0  0  0  0  0  0  0  0  0
    5.9247   -4.0779    4.0300 H   0  0  0  0  0  0  0  0  0  0  0  0
    6.1729   -5.7556    3.7790 H   0  0  0  0  0  0  0  0  0  0  0  0
    3.6767   -3.7469    0.8704 H   0  0  0  0  0  0  0  0  0  0  0  0
    3.1771   -3.8735    2.4824 H   0  0  0  0  0  0  0  0  0  0  0  0
    5.4040   -2.3087    2.9439 H   0  0  0  0  0  0  0  0  0  0  0  0
    5.1057   -1.8997    1.3001 H   0  0  0  0  0  0  0  0  0  0  0  0
    2.9560   -2.4771    4.2511 H   0  0  0  0  0  0  0  0  0  0  0  0
    3.7994   -0.2678    5.6421 H   0  0  0  0  0  0  0  0  0  0  0  0
    4.9455   -1.4471    5.0254 H   0  0  0  0  0  0  0  0  0  0  0  0
    4.7195    1.3136    4.0943 H   0  0  0  0  0  0  0  0  0  0  0  0
    5.8404    0.0625    3.5570 H   0  0  0  0  0  0  0  0  0  0  0  0
    4.5705    0.2814    1.5569 H   0  0  0  0  0  0  0  0  0  0  0  0
    2.9980    1.9972    2.2668 H   0  0  0  0  0  0  0  0  0  0  0  0
    2.2684    0.6491    1.4323 H   0  0  0  0  0  0  0  0  0  0  0  0
    2.1964    1.2928    4.4358 H   0  0  0  0  0  0  0  0  0  0  0  0
    0.0924    0.6538    1.1842 H   0  0  0  0  0  0  0  0  0  0  0  0
   -3.4643    3.1601    3.6246 H   0  0  0  0  0  0  0  0  0  0  0  0
   -3.1732    3.8167    6.0325 H   0  0  0  0  0  0  0  0  0  0  0  0
   -1.0933    3.2914    7.2376 H   0  0  0  0  0  0  0  0  0  0  0  0
    0.7747    2.0453    6.1257 H   0  0  0  0  0  0  0  0  0  0  0  0
    1.0248   -1.3018    3.3488 H   0  0  0  0  0  0  0  0  0  0  0  0
    1.3012   -0.8818    5.0228 H   0  0  0  0  0  0  0  0  0  0  0  0
    7.4229   -6.4238    2.0737 H   0  0  0  0  0  0  0  0  0  0  0  0
    9.4162   -6.1138    0.6629 H   0  0  0  0  0  0  0  0  0  0  0  0
    9.5585   -4.1388   -0.9579 H   0  0  0  0  0  0  0  0  0  0  0  0
    7.6245   -2.6358   -1.1635 H   0  0  0  0  0  0  0  0  0  0  0  0
    5.5578   -3.1075   -0.0669 H   0  0  0  0  0  0  0  0  0  0  0  0
    4.0563   -6.2147    0.7148 H   0  0  0  0  0  0  0  0  0  0  0  0
    5.0757   -7.0513    1.8385 H   0  0  0  0  0  0  0  0  0  0  0  0
    2.6877   -7.4466    2.2916 H   0  0  0  0  0  0  0  0  0  0  0  0
    2.3517   -5.7967    2.5350 H   0  0  0  0  0  0  0  0  0  0  0  0
    2.7771   -1.4795    1.8905 H   0  0  0  0  0  0  0  0  0  0  0  0
   -2.1095    1.8201    1.5399 H   0  0  0  0  0  0  0  0  0  0  0  0
  1  2  1  0
  1 41  1  0
  1 42  1  0
  1 43  1  0
  2  7  2  0
  2  3  1  0
  3  4  2  0
  4  5  1  0
  4 44  1  0
  5  6  2  0
  5 45  1  0
  6  7  1  0
  6 46  1  0
  7  8  1  0
  8  9  2  0
  8 10  1  0
 10 40  1  0
 10 11  1  0
 11 12  1  0
 11 47  1  0
 11 48  1  0
 12 13  1  0
 12 49  1  0
 12 50  1  0
 13 14  1  0
 13 33  1  0
 13 39  1  0
 14 15  1  0
 14 51  1  0
 14 52  1  0
 15 16  1  0
 15 53  1  0
 15 54  1  0
 16 20  1  0
 16 17  1  0
 16 80  1  6
 17 32  1  0
 17 18  1  0
 17 55  1  1
 18 19  1  0
 18 56  1  0
 18 57  1  0
 19 20  1  0
 19 58  1  0
 19 59  1  0
 20 21  1  0
 20 60  1  6
 21 22  1  0
 21 61  1  0
 21 62  1  0
 22 23  1  0
 22 32  1  0
 22 63  1  1
 23 31  1  0
 23 24  1  0
 24 25  2  0
 24 64  1  0
 25 26  1  0
 25 81  1  0
 26 31  2  0
 26 27  1  0
 27 28  2  0
 27 65  1  0
 28 29  1  0
 28 66  1  0
 29 30  2  0
 29 67  1  0
 30 31  1  0
 30 68  1  0
 32 69  1  0
 32 70  1  0
 33 38  1  0
 33 34  2  0
 34 35  1  0
 34 71  1  0
 35 36  2  0
 35 72  1  0
 36 37  1  0
 36 73  1  0
 37 38  2  0
 37 74  1  0
 38 75  1  0
 39 40  1  0
 39 76  1  0
 39 77  1  0
 40 78  1  0
 40 79  1  0
M  CHG  2  16   1  25   1
M  END
>  <i_m_ct_stereo_status>  (341) 
1

>  <s_m_source_file>  (341) 
/var/tmp/pbs.5076255.sched01/tmpxe1g82q3/12669a6jj4p.sdf

>  <i_m_source_file_index>  (341) 
5

>  <i_lp_mmshare_version>  (341) 
48012

>  <i_f3d_flags>  (341) 
0

>  <s_epik_input>  (341) 
W0NIM11jMW5bY0hdW2NIXVtjSF1jMUMoPU8pTihbQ0gyXVtDSDJdMilbQ0gyXVtDSDJdQzIoYzNbY0hdW2NIXVtjSF1bY0hdW2NIXTMpW0NIMl1bQ0gyXU4oW0NAQEhdNDUpW0NASF0oW0NIMl1bQ0gyXTQpW0NIMl1bQ0BIXShbQ0gyXTUpbihbY0hdbjYpYyhjNjcpW2NIXVtjSF1bY0hdW2NIXTc=

>  <s_epik_cmdline>  (341) 
J2VwaWtfcHl0aG9uJywgJy1waHQnLCAnMi4wJywgJy1waCcsICc3LjAnLCAnLXRuJywgJzgnLCAnLW1hJywgJzIwMCcsICctaW1hZScsICc8aW5maWxlLm1hZT4nLCAnLW9tYWUnLCAnPG91dGZpbGUubWFlPic=

>  <r_epik_Ionization_Penalty>  (341) 
1.56624

>  <r_epik_Ionization_Penalty_Charging>  (341) 
1.56516

>  <r_epik_Ionization_Penalty_Neutral>  (341) 
0.00107361

>  <r_epik_State_Penalty>  (341) 
1.65726

>  <r_epik_Charging_Adjusted_Penalty>  (341) 
3.22242

>  <i_epik_Tot_Q>  (341) 
2

>  <i_epik_Tot_abs_Q>  (341) 
2

>  <s_lp_Force_Field>  (341) 
OPLS3e

>  <r_lp_Energy>  (341) 
84.3088

>  <b_lp_Chiralities_Consistent>  (341) 
1

>  <s_lp_Variant>  (341) 
97:0-4

>  <s_i_glide_gridfile>  (341) 
pfpi4k_grid

>  <i_i_glide_lignum>  (341) 
5

>  <i_i_glide_rotatable_bonds>  (341) 
7

>  <r_i_docking_score>  (341) 
-2.54577

>  <r_i_glide_ligand_efficiency>  (341) 
-0.0636443

>  <r_i_glide_ligand_efficiency_sa>  (341) 
-0.21766

>  <r_i_glide_ligand_efficiency_ln>  (341) 
-0.542938

>  <r_i_glide_gscore>  (341) 
-2.54577

>  <r_i_glide_lipo>  (341) 
-0.800636

>  <r_i_glide_hbond>  (341) 
0

>  <r_i_glide_metal>  (341) 
-0

>  <r_i_glide_rewards>  (341) 
0

>  <r_i_glide_evdw>  (341) 
-33.4619

>  <r_i_glide_ecoul>  (341) 
-2.99896

>  <r_i_glide_erotb>  (341) 
0.503567

>  <r_i_glide_esite>  (341) 
-0.125762

>  <r_i_glide_emodel>  (341) 
-41.2581

>  <r_i_glide_energy>  (341) 
-36.4609

>  <r_i_glide_einternal>  (341) 
3.85122

>  <r_i_glide_intrahb_reward>  (341) 
-0

>  <i_i_glide_confnum>  (341) 
4

>  <i_i_glide_posenum>  (341) 
1

>  <r_i_glide_eff_state_penalty>  (341) 
0

>  <ligand_id>  (341) 
97

>  <original_smiles>  (341) 
Cc1ncccc1C(=O)N1CCC(CCN2C3CCC2CC(n2cnc4ccccc42)C3)(c2ccccc2)CC1

>  <smiles>  (341) 
[H]c1nc(C([H])([H])[H])c(C(=O)N2C([H])([H])C([H])([H])C(c3c([H])c([H])c([H])c([H])c3[H])(C([H])([H])C([H])([H])[N+]3([H])C4([H])C([H])([H])C([H])([H])C3([H])C([H])([H])C([H])(n3c([H])[n+]([H])c5c([H])c([H])c([H])c([H])c53)C4([H])[H])C([H])([H])C2([H])[H])c([H])c1[H]

$$$$
97:3:2
     RDKit          3D

 81 87  0  0  1  0  0  0  0  0999 V2000
    0.2039   -7.2019    4.0773 C   0  0  0  0  0  0  0  0  0  0  0  0
    0.9767   -8.4884    3.8101 C   0  0  0  0  0  0  0  0  0  0  0  0
    0.2589   -9.4534    3.1976 N   0  0  0  0  0  0  0  0  0  0  0  0
    0.8451  -10.6439    2.9492 C   0  0  0  0  0  0  0  0  0  0  0  0
    2.1799  -10.9261    3.2864 C   0  0  0  0  0  0  0  0  0  0  0  0
    2.9364   -9.9208    3.9153 C   0  0  0  0  0  0  0  0  0  0  0  0
    2.3360   -8.6687    4.1699 C   0  0  0  0  0  0  0  0  0  0  0  0
    3.1673   -7.5993    4.8151 C   0  0  0  0  0  0  0  0  0  0  0  0
    3.5340   -7.7621    5.9777 O   0  0  0  0  0  0  0  0  0  0  0  0
    3.4893   -6.5146    4.0599 N   0  0  0  0  0  0  0  0  0  0  0  0
    4.2656   -5.4077    4.6491 C   0  0  0  0  0  0  0  0  0  0  0  0
    5.4834   -5.0868    3.7484 C   0  0  0  0  0  0  0  0  0  0  0  0
    5.0753   -4.7315    2.2777 C   0  0  0  0  0  0  0  0  0  0  0  0
    4.1458   -3.4698    2.2626 C   0  0  0  0  0  0  0  0  0  0  0  0
    4.7863   -2.2065    2.8769 C   0  0  0  0  0  0  0  0  0  0  0  0
    3.7517   -1.2187    3.2491 N   0  0  1  0  0  0  0  0  0  0  0  0
    2.9906   -1.5658    4.4717 C   0  0  1  0  0  0  0  0  0  0  0  0
    3.9050   -1.1779    5.6374 C   0  0  0  0  0  0  0  0  0  0  0  0
    4.7846   -0.0595    5.0468 C   0  0  0  0  0  0  0  0  0  0  0  0
    4.3011    0.0988    3.5896 C   0  0  2  0  0  0  0  0  0  0  0  0
    3.1540    1.1154    3.4489 C   0  0  0  0  0  0  0  0  0  0  0  0
    1.9570    0.7966    4.3916 C   0  0  1  0  0  0  0  0  0  0  0  0
    0.7025    1.4873    4.0202 N   0  0  0  0  0  0  0  0  0  0  0  0
   -0.5346    0.9490    3.7869 C   0  0  0  0  0  0  0  0  0  0  0  0
   -1.3906    1.9492    3.4771 N   0  0  0  0  0  0  0  0  0  0  0  0
   -0.7091    3.1604    3.5469 C   0  0  0  0  0  0  0  0  0  0  0  0
   -1.1861    4.4399    3.3125 C   0  0  0  0  0  0  0  0  0  0  0  0
   -0.2446    5.4934    3.4244 C   0  0  0  0  0  0  0  0  0  0  0  0
    1.0887    5.2492    3.7848 C   0  0  0  0  0  0  0  0  0  0  0  0
    1.5527    3.9370    4.0440 C   0  0  0  0  0  0  0  0  0  0  0  0
    0.6299    2.8918    3.9015 C   0  0  0  0  0  0  0  0  0  0  0  0
    1.7067   -0.7403    4.4399 C   0  0  0  0  0  0  0  0  0  0  0  0
    6.3165   -4.5226    1.3841 C   0  0  0  0  0  0  0  0  0  0  0  0
    7.4234   -5.4042    1.4571 C   0  0  0  0  0  0  0  0  0  0  0  0
    8.5619   -5.2062    0.6524 C   0  0  0  0  0  0  0  0  0  0  0  0
    8.6050   -4.1241   -0.2506 C   0  0  0  0  0  0  0  0  0  0  0  0
    7.5065   -3.2601   -0.3568 C   0  0  0  0  0  0  0  0  0  0  0  0
    6.3687   -3.4755    0.4280 C   0  0  0  0  0  0  0  0  0  0  0  0
    4.2718   -5.9452    1.7577 C   0  0  0  0  0  0  0  0  0  0  0  0
    3.0725   -6.3082    2.6492 C   0  0  0  0  0  0  0  0  0  0  0  0
    0.0273   -7.0774    5.1464 H   0  0  0  0  0  0  0  0  0  0  0  0
   -0.7569   -7.2124    3.5573 H   0  0  0  0  0  0  0  0  0  0  0  0
    0.7253   -6.3150    3.7280 H   0  0  0  0  0  0  0  0  0  0  0  0
    0.2260  -11.3859    2.4580 H   0  0  0  0  0  0  0  0  0  0  0  0
    2.6111  -11.8933    3.0441 H   0  0  0  0  0  0  0  0  0  0  0  0
    3.9723  -10.1066    4.1569 H   0  0  0  0  0  0  0  0  0  0  0  0
    3.6049   -4.5524    4.7768 H   0  0  0  0  0  0  0  0  0  0  0  0
    4.6289   -5.6225    5.6606 H   0  0  0  0  0  0  0  0  0  0  0  0
    6.1024   -4.3350    4.2341 H   0  0  0  0  0  0  0  0  0  0  0  0
    6.1118   -5.9798    3.7615 H   0  0  0  0  0  0  0  0  0  0  0  0
    3.7786   -3.2773    1.2522 H   0  0  0  0  0  0  0  0  0  0  0  0
    3.2311   -3.6788    2.8054 H   0  0  0  0  0  0  0  0  0  0  0  0
    5.3773   -2.4366    3.7614 H   0  0  0  0  0  0  0  0  0  0  0  0
    5.4995   -1.7561    2.1846 H   0  0  0  0  0  0  0  0  0  0  0  0
    2.6783   -2.6072    4.5350 H   0  0  0  0  0  0  0  0  0  0  0  0
    3.3449   -0.8716    6.5214 H   0  0  0  0  0  0  0  0  0  0  0  0
    4.5153   -2.0351    5.9211 H   0  0  0  0  0  0  0  0  0  0  0  0
    4.7203    0.8681    5.6163 H   0  0  0  0  0  0  0  0  0  0  0  0
    5.8279   -0.3785    5.0585 H   0  0  0  0  0  0  0  0  0  0  0  0
    5.1109    0.3828    2.9212 H   0  0  0  0  0  0  0  0  0  0  0  0
    3.5794    2.0951    3.6498 H   0  0  0  0  0  0  0  0  0  0  0  0
    2.8061    1.1391    2.4158 H   0  0  0  0  0  0  0  0  0  0  0  0
    2.2057    1.1323    5.4004 H   0  0  0  0  0  0  0  0  0  0  0  0
   -0.8118   -0.0969    3.8332 H   0  0  0  0  0  0  0  0  0  0  0  0
   -2.1994    4.5928    2.9809 H   0  0  0  0  0  0  0  0  0  0  0  0
   -0.5290    6.5090    3.1797 H   0  0  0  0  0  0  0  0  0  0  0  0
    1.7772    6.0807    3.8320 H   0  0  0  0  0  0  0  0  0  0  0  0
    2.5856    3.7994    4.3130 H   0  0  0  0  0  0  0  0  0  0  0  0
    1.1865   -1.0672    3.5368 H   0  0  0  0  0  0  0  0  0  0  0  0
    1.0718   -1.0055    5.2878 H   0  0  0  0  0  0  0  0  0  0  0  0
    7.4181   -6.2461    2.1259 H   0  0  0  0  0  0  0  0  0  0  0  0
    9.3885   -5.9004    0.7219 H   0  0  0  0  0  0  0  0  0  0  0  0
    9.4456   -3.9568   -0.9023 H   0  0  0  0  0  0  0  0  0  0  0  0
    7.5131   -2.4405   -1.0539 H   0  0  0  0  0  0  0  0  0  0  0  0
    5.5597   -2.7911    0.2641 H   0  0  0  0  0  0  0  0  0  0  0  0
    3.9083   -5.7618    0.7537 H   0  0  0  0  0  0  0  0  0  0  0  0
    4.9037   -6.8343    1.6824 H   0  0  0  0  0  0  0  0  0  0  0  0
    2.5892   -7.1680    2.1833 H   0  0  0  0  0  0  0  0  0  0  0  0
    2.3254   -5.5175    2.5981 H   0  0  0  0  0  0  0  0  0  0  0  0
    3.1222   -1.1186    2.4636 H   0  0  0  0  0  0  0  0  0  0  0  0
   -2.3596    1.8007    3.2229 H   0  0  0  0  0  0  0  0  0  0  0  0
  1  2  1  0
  1 41  1  0
  1 42  1  0
  1 43  1  0
  2  7  2  0
  2  3  1  0
  3  4  2  0
  4  5  1  0
  4 44  1  0
  5  6  2  0
  5 45  1  0
  6  7  1  0
  6 46  1  0
  7  8  1  0
  8  9  2  0
  8 10  1  0
 10 40  1  0
 10 11  1  0
 11 12  1  0
 11 47  1  0
 11 48  1  0
 12 13  1  0
 12 49  1  0
 12 50  1  0
 13 14  1  0
 13 33  1  0
 13 39  1  0
 14 15  1  0
 14 51  1  0
 14 52  1  0
 15 16  1  0
 15 53  1  0
 15 54  1  0
 16 20  1  0
 16 17  1  0
 16 80  1  6
 17 32  1  0
 17 18  1  0
 17 55  1  6
 18 19  1  0
 18 56  1  0
 18 57  1  0
 19 20  1  0
 19 58  1  0
 19 59  1  0
 20 21  1  0
 20 60  1  6
 21 22  1  0
 21 61  1  0
 21 62  1  0
 22 23  1  0
 22 32  1  0
 22 63  1  1
 23 31  1  0
 23 24  1  0
 24 25  2  0
 24 64  1  0
 25 26  1  0
 25 81  1  0
 26 31  2  0
 26 27  1  0
 27 28  2  0
 27 65  1  0
 28 29  1  0
 28 66  1  0
 29 30  2  0
 29 67  1  0
 30 31  1  0
 30 68  1  0
 32 69  1  0
 32 70  1  0
 33 38  1  0
 33 34  2  0
 34 35  1  0
 34 71  1  0
 35 36  2  0
 35 72  1  0
 36 37  1  0
 36 73  1  0
 37 38  2  0
 37 74  1  0
 38 75  1  0
 39 40  1  0
 39 76  1  0
 39 77  1  0
 40 78  1  0
 40 79  1  0
M  CHG  2  16   1  25   1
M  END
>  <i_m_ct_stereo_status>  (342) 
1

>  <s_m_source_file>  (342) 
/var/tmp/pbs.5076255.sched01/tmpxe1g82q3/12669a6jj4p.sdf

>  <i_m_source_file_index>  (342) 
5

>  <i_lp_mmshare_version>  (342) 
48012

>  <i_f3d_flags>  (342) 
0

>  <s_epik_input>  (342) 
W0NIM11jMW5bY0hdW2NIXVtjSF1jMUMoPU8pTihbQ0gyXVtDSDJdMilbQ0gyXVtDSDJdQzIoYzNbY0hdW2NIXVtjSF1bY0hdW2NIXTMpW0NIMl1bQ0gyXU4oW0NAQEhdNDUpW0NASF0oW0NIMl1bQ0gyXTQpW0NIMl1bQ0BIXShbQ0gyXTUpbihbY0hdbjYpYyhjNjcpW2NIXVtjSF1bY0hdW2NIXTc=

>  <s_epik_cmdline>  (342) 
J2VwaWtfcHl0aG9uJywgJy1waHQnLCAnMi4wJywgJy1waCcsICc3LjAnLCAnLXRuJywgJzgnLCAnLW1hJywgJzIwMCcsICctaW1hZScsICc8aW5maWxlLm1hZT4nLCAnLW9tYWUnLCAnPG91dGZpbGUubWFlPic=

>  <r_epik_Ionization_Penalty>  (342) 
1.56624

>  <r_epik_Ionization_Penalty_Charging>  (342) 
1.56516

>  <r_epik_Ionization_Penalty_Neutral>  (342) 
0.00107361

>  <r_epik_State_Penalty>  (342) 
1.65726

>  <r_epik_Charging_Adjusted_Penalty>  (342) 
3.22242

>  <i_epik_Tot_Q>  (342) 
2

>  <i_epik_Tot_abs_Q>  (342) 
2

>  <s_lp_Force_Field>  (342) 
OPLS3e

>  <r_lp_Energy>  (342) 
84.3088

>  <b_lp_Chiralities_Consistent>  (342) 
1

>  <s_lp_Variant>  (342) 
97:0-4

>  <s_i_glide_gridfile>  (342) 
pfpi4k_grid

>  <i_i_glide_lignum>  (342) 
5

>  <i_i_glide_rotatable_bonds>  (342) 
7

>  <r_i_docking_score>  (342) 
-2.43495

>  <r_i_glide_ligand_efficiency>  (342) 
-0.0608738

>  <r_i_glide_ligand_efficiency_sa>  (342) 
-0.208185

>  <r_i_glide_ligand_efficiency_ln>  (342) 
-0.519304

>  <r_i_glide_gscore>  (342) 
-2.43495

>  <r_i_glide_lipo>  (342) 
-0.797882

>  <r_i_glide_hbond>  (342) 
0

>  <r_i_glide_metal>  (342) 
-0

>  <r_i_glide_rewards>  (342) 
0

>  <r_i_glide_evdw>  (342) 
-31.4276

>  <r_i_glide_ecoul>  (342) 
-3.30867

>  <r_i_glide_erotb>  (342) 
0.503567

>  <r_i_glide_esite>  (342) 
-0.0729536

>  <r_i_glide_emodel>  (342) 
-38.49

>  <r_i_glide_energy>  (342) 
-34.7363

>  <r_i_glide_einternal>  (342) 
7.10498

>  <r_i_glide_intrahb_reward>  (342) 
-0

>  <i_i_glide_confnum>  (342) 
4

>  <i_i_glide_posenum>  (342) 
14

>  <r_i_glide_eff_state_penalty>  (342) 
0

>  <ligand_id>  (342) 
97

>  <original_smiles>  (342) 
Cc1ncccc1C(=O)N1CCC(CCN2C3CCC2CC(n2cnc4ccccc42)C3)(c2ccccc2)CC1

>  <smiles>  (342) 
[H]c1nc(C([H])([H])[H])c(C(=O)N2C([H])([H])C([H])([H])C(c3c([H])c([H])c([H])c([H])c3[H])(C([H])([H])C([H])([H])[N+]3([H])C4([H])C([H])([H])C([H])([H])C3([H])C([H])([H])C([H])(n3c([H])[n+]([H])c5c([H])c([H])c([H])c([H])c53)C4([H])[H])C([H])([H])C2([H])[H])c([H])c1[H]

$$$$
98:0:0
     RDKit          3D

 65 69  0  0  1  0  0  0  0  0999 V2000
   -0.9348    3.8347    6.1923 C   0  0  0  0  0  0  0  0  0  0  0  0
   -0.5006    2.7953    5.1204 C   0  0  0  0  0  0  0  0  0  0  0  0
   -1.7580    2.0275    4.6307 C   0  0  0  0  0  0  0  0  0  0  0  0
    0.1123    3.5013    3.8715 C   0  0  1  0  0  0  0  0  0  0  0  0
   -0.7777    4.4432    3.2879 O   0  0  0  0  0  0  0  0  0  0  0  0
    1.4413    4.2119    4.1659 C   0  0  0  0  0  0  0  0  0  0  0  0
    2.4812    3.2604    4.7744 C   0  0  0  0  0  0  0  0  0  0  0  0
    1.9462    2.4616    5.9977 C   0  0  1  0  0  0  0  0  0  0  0  0
    0.5545    1.7764    5.6980 C   0  0  1  0  0  0  0  0  0  0  0  0
    0.0300    0.9533    6.8988 C   0  0  0  0  0  0  0  0  0  0  0  0
    0.2176   -0.5887    6.8606 C   0  0  0  0  0  0  0  0  0  0  0  0
    1.5991   -1.2940    6.5957 C   0  0  2  0  0  0  0  0  0  0  0  0
    2.7361   -1.0280    7.6590 C   0  0  2  0  0  0  0  0  0  0  0  0
    2.4519    0.0528    8.7193 C   0  0  0  0  0  0  0  0  0  0  0  0
    2.9058    1.4585    8.2551 C   0  0  0  0  0  0  0  0  0  0  0  0
    3.0990    1.6465    6.7118 C   0  0  1  0  0  0  0  0  0  0  0  0
    3.8823    0.4430    5.9998 C   0  0  1  0  0  0  0  0  0  0  0  0
    5.2889    0.9412    5.5843 C   0  0  0  0  0  0  0  0  0  0  0  0
    4.1015   -0.6661    7.0389 C   0  0  0  0  0  0  0  0  0  0  0  0
    3.1089   -0.2239    4.7982 C   0  0  1  0  0  0  0  0  0  0  0  0
    3.8115   -0.4071    3.4611 C   0  0  0  0  0  0  0  0  0  0  0  0
    3.1504   -0.9677    2.4299 C   0  0  0  0  0  0  0  0  0  0  0  0
    1.7104   -1.4604    2.5142 C   0  0  0  0  0  0  0  0  0  0  0  0
    1.1656   -1.5627    3.9558 C   0  0  0  0  0  0  0  0  0  0  0  0
   -0.0151   -1.8464    4.1215 O   0  0  0  0  0  0  0  0  0  0  0  0
    2.1794   -1.4451    5.1314 C   0  0  2  0  0  0  0  0  0  0  0  0
    2.9167   -2.8300    5.0679 C   0  0  0  0  0  0  0  0  0  0  0  0
   -1.6975    4.5058    5.7972 H   0  0  0  0  0  0  0  0  0  0  0  0
   -0.1086    4.4653    6.5225 H   0  0  0  0  0  0  0  0  0  0  0  0
   -1.3504    3.3674    7.0848 H   0  0  0  0  0  0  0  0  0  0  0  0
   -1.4849    1.2264    3.9419 H   0  0  0  0  0  0  0  0  0  0  0  0
   -2.4543    2.6781    4.0983 H   0  0  0  0  0  0  0  0  0  0  0  0
   -2.3300    1.5809    5.4391 H   0  0  0  0  0  0  0  0  0  0  0  0
    0.2939    2.7446    3.1091 H   0  0  0  0  0  0  0  0  0  0  0  0
   -0.5158    4.5417    2.3572 H   0  0  0  0  0  0  0  0  0  0  0  0
    1.8391    4.6309    3.2403 H   0  0  0  0  0  0  0  0  0  0  0  0
    1.2844    5.0586    4.8311 H   0  0  0  0  0  0  0  0  0  0  0  0
    2.8439    2.5991    3.9916 H   0  0  0  0  0  0  0  0  0  0  0  0
    3.3457    3.8558    5.0702 H   0  0  0  0  0  0  0  0  0  0  0  0
    1.7215    3.2424    6.7238 H   0  0  0  0  0  0  0  0  0  0  0  0
    0.6388    1.0668    4.8888 H   0  0  0  0  0  0  0  0  0  0  0  0
    0.3645    1.4022    7.8258 H   0  0  0  0  0  0  0  0  0  0  0  0
   -1.0411    1.0848    7.0003 H   0  0  0  0  0  0  0  0  0  0  0  0
   -0.1255   -0.9537    7.8277 H   0  0  0  0  0  0  0  0  0  0  0  0
   -0.5507   -0.9858    6.2045 H   0  0  0  0  0  0  0  0  0  0  0  0
    1.3065   -2.3196    6.8232 H   0  0  0  0  0  0  0  0  0  0  0  0
    2.8710   -1.9575    8.2159 H   0  0  0  0  0  0  0  0  0  0  0  0
    1.4256    0.0380    9.0746 H   0  0  0  0  0  0  0  0  0  0  0  0
    3.0208   -0.1857    9.6192 H   0  0  0  0  0  0  0  0  0  0  0  0
    2.2595    2.2298    8.6801 H   0  0  0  0  0  0  0  0  0  0  0  0
    3.8734    1.6376    8.7264 H   0  0  0  0  0  0  0  0  0  0  0  0
    3.8516    2.4337    6.7551 H   0  0  0  0  0  0  0  0  0  0  0  0
    5.9134    0.1291    5.2036 H   0  0  0  0  0  0  0  0  0  0  0  0
    5.8379    1.3753    6.4240 H   0  0  0  0  0  0  0  0  0  0  0  0
    5.2113    1.7082    4.8176 H   0  0  0  0  0  0  0  0  0  0  0  0
    4.7940   -0.3466    7.8203 H   0  0  0  0  0  0  0  0  0  0  0  0
    4.6126   -1.5101    6.5874 H   0  0  0  0  0  0  0  0  0  0  0  0
    2.4857    0.5676    4.4369 H   0  0  0  0  0  0  0  0  0  0  0  0
    4.8240   -0.0623    3.3180 H   0  0  0  0  0  0  0  0  0  0  0  0
    3.6334   -1.0681    1.4679 H   0  0  0  0  0  0  0  0  0  0  0  0
    1.0691   -0.8087    1.9167 H   0  0  0  0  0  0  0  0  0  0  0  0
    1.6624   -2.4519    2.0641 H   0  0  0  0  0  0  0  0  0  0  0  0
    3.4418   -3.1016    5.9785 H   0  0  0  0  0  0  0  0  0  0  0  0
    3.6345   -2.9060    4.2528 H   0  0  0  0  0  0  0  0  0  0  0  0
    2.2054   -3.6451    4.9209 H   0  0  0  0  0  0  0  0  0  0  0  0
  1  2  1  0
  1 28  1  0
  1 29  1  0
  1 30  1  0
  2  9  1  0
  2  3  1  0
  2  4  1  0
  3 31  1  0
  3 32  1  0
  3 33  1  0
  4  5  1  0
  4  6  1  0
  4 34  1  6
  5 35  1  0
  6  7  1  0
  6 36  1  0
  6 37  1  0
  7  8  1  0
  7 38  1  0
  7 39  1  0
  8 16  1  0
  8  9  1  0
  8 40  1  1
  9 10  1  0
  9 41  1  6
 10 11  1  0
 10 42  1  0
 10 43  1  0
 11 12  1  0
 11 44  1  0
 11 45  1  0
 12 26  1  0
 12 13  1  0
 12 46  1  1
 13 19  1  0
 13 14  1  0
 13 47  1  1
 14 15  1  0
 14 48  1  0
 14 49  1  0
 15 16  1  0
 15 50  1  0
 15 51  1  0
 16 17  1  0
 16 52  1  1
 17 18  1  6
 17 19  1  0
 17 20  1  0
 18 53  1  0
 18 54  1  0
 18 55  1  0
 19 56  1  0
 19 57  1  0
 20 26  1  0
 20 21  1  0
 20 58  1  6
 21 22  2  0
 21 59  1  0
 22 23  1  0
 22 60  1  0
 23 24  1  0
 23 61  1  0
 23 62  1  0
 24 25  2  0
 24 26  1  0
 26 27  1  1
 27 63  1  0
 27 64  1  0
 27 65  1  0
M  END
>  <i_m_ct_stereo_status>  (343) 
1

>  <s_m_source_file>  (343) 
/var/tmp/pbs.5076255.sched01/tmpxe1g82q3/12669a6jj4p.sdf

>  <i_m_source_file_index>  (343) 
6

>  <i_lp_mmshare_version>  (343) 
48012

>  <i_f3d_flags>  (343) 
0

>  <s_epik_input>  (343) 
W0NIMl0xW0NIMl1bQ0BIXShbT0hdKUMoW0NIM10pKFtDSDNdKVtDQEBIXShbQ0BIXTFbQ0BASF0yW0NAQF0zNFtDSDNdKVtDSDJdW0NIMl1bQ0hdKFtDQEBIXShbQ0gyXTMpW0NIMl1bQ0gyXTIpW0NAXTUoW0NIM10pW0NAQEhdNFtDSF09W0NIXVtDSDJdQzU9Tw==

>  <s_epik_cmdline>  (343) 
J2VwaWtfcHl0aG9uJywgJy1waHQnLCAnMi4wJywgJy1waCcsICc3LjAnLCAnLXRuJywgJzgnLCAnLW1hJywgJzIwMCcsICctaW1hZScsICc8aW5maWxlLm1hZT4nLCAnLW9tYWUnLCAnPG91dGZpbGUubWFlPic=

>  <r_lp_tautomer_probability>  (343) 
1

>  <r_epik_Ionization_Penalty>  (343) 
3.0399e-06

>  <r_epik_Ionization_Penalty_Charging>  (343) 
0

>  <r_epik_Ionization_Penalty_Neutral>  (343) 
3.0399e-06

>  <r_epik_State_Penalty>  (343) 
-0

>  <r_epik_Charging_Adjusted_Penalty>  (343) 
0

>  <i_epik_Tot_Q>  (343) 
0

>  <i_epik_Tot_abs_Q>  (343) 
0

>  <s_lp_Force_Field>  (343) 
OPLS3e

>  <r_lp_Energy>  (343) 
107.691

>  <b_lp_Chiralities_Consistent>  (343) 
1

>  <s_lp_Variant>  (343) 
98:0-1

>  <s_i_glide_gridfile>  (343) 
pfpi4k_grid

>  <i_i_glide_lignum>  (343) 
6

>  <i_i_glide_rotatable_bonds>  (343) 
1

>  <r_i_docking_score>  (343) 
-2.66168

>  <r_i_glide_ligand_efficiency>  (343) 
-0.0985806

>  <r_i_glide_ligand_efficiency_sa>  (343) 
-0.295742

>  <r_i_glide_ligand_efficiency_ln>  (343) 
-0.619594

>  <r_i_glide_gscore>  (343) 
-2.66168

>  <r_i_glide_lipo>  (343) 
-0.0588881

>  <r_i_glide_hbond>  (343) 
-0.16

>  <r_i_glide_metal>  (343) 
-0

>  <r_i_glide_rewards>  (343) 
-0.882491

>  <r_i_glide_evdw>  (343) 
-17.5566

>  <r_i_glide_ecoul>  (343) 
-4.54366

>  <r_i_glide_erotb>  (343) 
0

>  <r_i_glide_esite>  (343) 
-0.000917737

>  <r_i_glide_emodel>  (343) 
-26.1988

>  <r_i_glide_energy>  (343) 
-22.1003

>  <r_i_glide_einternal>  (343) 
0.664006

>  <r_i_glide_intrahb_reward>  (343) 
-0

>  <i_i_glide_confnum>  (343) 
2

>  <i_i_glide_posenum>  (343) 
25

>  <r_i_glide_eff_state_penalty>  (343) 
0

>  <ligand_id>  (343) 
98

>  <original_smiles>  (343) 
CC1(C)C(O)CCC2C1CCC1C3CCC2C(C)(C3)C2C=CCC(=O)C12C

>  <smiles>  (343) 
[H]OC1([H])C([H])([H])C([H])([H])C2([H])C([H])(C([H])([H])C([H])([H])C3([H])C4([H])C([H])([H])C([H])([H])C2([H])C(C([H])([H])[H])(C4([H])[H])C2([H])C([H])=C([H])C([H])([H])C(=O)C23C([H])([H])[H])C1(C([H])([H])[H])C([H])([H])[H]

$$$$
98:0:1
     RDKit          3D

 65 69  0  0  1  0  0  0  0  0999 V2000
   -1.7337    3.1510    5.3639 C   0  0  0  0  0  0  0  0  0  0  0  0
   -0.6606    2.5364    4.4213 C   0  0  0  0  0  0  0  0  0  0  0  0
   -1.3643    1.9951    3.1471 C   0  0  0  0  0  0  0  0  0  0  0  0
    0.3461    3.6255    3.9426 C   0  0  1  0  0  0  0  0  0  0  0  0
   -0.3128    4.7037    3.3011 O   0  0  0  0  0  0  0  0  0  0  0  0
    1.2202    4.1878    5.0715 C   0  0  0  0  0  0  0  0  0  0  0  0
    1.9854    3.0819    5.8120 C   0  0  0  0  0  0  0  0  0  0  0  0
    1.0730    1.9150    6.2843 C   0  0  1  0  0  0  0  0  0  0  0  0
    0.1434    1.3779    5.1233 C   0  0  1  0  0  0  0  0  0  0  0  0
   -0.7468    0.1955    5.5769 C   0  0  0  0  0  0  0  0  0  0  0  0
   -0.2995   -1.2400    5.1865 C   0  0  0  0  0  0  0  0  0  0  0  0
    1.1389   -1.8142    5.4759 C   0  0  2  0  0  0  0  0  0  0  0  0
    1.5565   -1.9351    6.9947 C   0  0  2  0  0  0  0  0  0  0  0  0
    0.6163   -1.2830    8.0220 C   0  0  0  0  0  0  0  0  0  0  0  0
    0.9789    0.1975    8.2961 C   0  0  0  0  0  0  0  0  0  0  0  0
    1.8600    0.9023    7.2113 C   0  0  1  0  0  0  0  0  0  0  0  0
    3.0864    0.0192    6.6824 C   0  0  1  0  0  0  0  0  0  0  0  0
    4.4107    0.6276    7.2165 C   0  0  0  0  0  0  0  0  0  0  0  0
    2.9647   -1.3827    7.3058 C   0  0  0  0  0  0  0  0  0  0  0  0
    3.1177   -0.1961    5.1208 C   0  0  1  0  0  0  0  0  0  0  0  0
    4.4015    0.0782    4.3521 C   0  0  0  0  0  0  0  0  0  0  0  0
    4.4359   -0.1047    3.0220 C   0  0  0  0  0  0  0  0  0  0  0  0
    3.2413   -0.5809    2.1967 C   0  0  0  0  0  0  0  0  0  0  0  0
    2.0938   -1.1592    3.0480 C   0  0  0  0  0  0  0  0  0  0  0  0
    1.0391   -1.4557    2.4908 O   0  0  0  0  0  0  0  0  0  0  0  0
    2.3710   -1.4579    4.5501 C   0  0  2  0  0  0  0  0  0  0  0  0
    3.2763   -2.7383    4.4710 C   0  0  0  0  0  0  0  0  0  0  0  0
   -2.3166    3.9177    4.8548 H   0  0  0  0  0  0  0  0  0  0  0  0
   -1.2931    3.6265    6.2412 H   0  0  0  0  0  0  0  0  0  0  0  0
   -2.4397    2.4068    5.7284 H   0  0  0  0  0  0  0  0  0  0  0  0
   -0.6570    1.4716    2.4979 H   0  0  0  0  0  0  0  0  0  0  0  0
   -1.8118    2.7914    2.5523 H   0  0  0  0  0  0  0  0  0  0  0  0
   -2.1772    1.3118    3.3722 H   0  0  0  0  0  0  0  0  0  0  0  0
    1.0101    3.1850    3.1970 H   0  0  0  0  0  0  0  0  0  0  0  0
   -0.1863    4.5925    2.3408 H   0  0  0  0  0  0  0  0  0  0  0  0
    1.9379    4.8968    4.6547 H   0  0  0  0  0  0  0  0  0  0  0  0
    0.6181    4.7564    5.7781 H   0  0  0  0  0  0  0  0  0  0  0  0
    2.7880    2.7278    5.1700 H   0  0  0  0  0  0  0  0  0  0  0  0
    2.4829    3.5357    6.6704 H   0  0  0  0  0  0  0  0  0  0  0  0
    0.3939    2.4011    6.9831 H   0  0  0  0  0  0  0  0  0  0  0  0
    0.7306    0.9893    4.3058 H   0  0  0  0  0  0  0  0  0  0  0  0
   -0.9832    0.3027    6.6268 H   0  0  0  0  0  0  0  0  0  0  0  0
   -1.7350    0.2880    5.1416 H   0  0  0  0  0  0  0  0  0  0  0  0
   -1.0007   -1.9161    5.6749 H   0  0  0  0  0  0  0  0  0  0  0  0
   -0.5722   -1.3851    4.1467 H   0  0  0  0  0  0  0  0  0  0  0  0
    0.9559   -2.8543    5.2036 H   0  0  0  0  0  0  0  0  0  0  0  0
    1.5647   -3.0008    7.2354 H   0  0  0  0  0  0  0  0  0  0  0  0
   -0.4276   -1.4152    7.7610 H   0  0  0  0  0  0  0  0  0  0  0  0
    0.7062   -1.8177    8.9679 H   0  0  0  0  0  0  0  0  0  0  0  0
    0.0835    0.7768    8.5348 H   0  0  0  0  0  0  0  0  0  0  0  0
    1.5492    0.2034    9.2277 H   0  0  0  0  0  0  0  0  0  0  0  0
    2.3462    1.6248    7.8678 H   0  0  0  0  0  0  0  0  0  0  0  0
    5.2645   -0.0159    6.9957 H   0  0  0  0  0  0  0  0  0  0  0  0
    4.3945    0.7413    8.3021 H   0  0  0  0  0  0  0  0  0  0  0  0
    4.6038    1.6117    6.7869 H   0  0  0  0  0  0  0  0  0  0  0  0
    3.1229   -1.3529    8.3844 H   0  0  0  0  0  0  0  0  0  0  0  0
    3.7684   -2.0242    6.9551 H   0  0  0  0  0  0  0  0  0  0  0  0
    2.6219    0.6713    4.7432 H   0  0  0  0  0  0  0  0  0  0  0  0
    5.2801    0.4495    4.8576 H   0  0  0  0  0  0  0  0  0  0  0  0
    5.3334    0.1231    2.4667 H   0  0  0  0  0  0  0  0  0  0  0  0
    2.8671    0.2402    1.5852 H   0  0  0  0  0  0  0  0  0  0  0  0
    3.5827   -1.3559    1.5136 H   0  0  0  0  0  0  0  0  0  0  0  0
    3.3326   -3.3088    5.3947 H   0  0  0  0  0  0  0  0  0  0  0  0
    4.3008   -2.5354    4.1644 H   0  0  0  0  0  0  0  0  0  0  0  0
    2.8790   -3.4502    3.7448 H   0  0  0  0  0  0  0  0  0  0  0  0
  1  2  1  0
  1 28  1  0
  1 29  1  0
  1 30  1  0
  2  9  1  0
  2  3  1  0
  2  4  1  0
  3 31  1  0
  3 32  1  0
  3 33  1  0
  4  5  1  0
  4  6  1  0
  4 34  1  6
  5 35  1  0
  6  7  1  0
  6 36  1  0
  6 37  1  0
  7  8  1  0
  7 38  1  0
  7 39  1  0
  8 16  1  0
  8  9  1  0
  8 40  1  1
  9 10  1  0
  9 41  1  6
 10 11  1  0
 10 42  1  0
 10 43  1  0
 11 12  1  0
 11 44  1  0
 11 45  1  0
 12 26  1  0
 12 13  1  0
 12 46  1  6
 13 19  1  0
 13 14  1  0
 13 47  1  1
 14 15  1  0
 14 48  1  0
 14 49  1  0
 15 16  1  0
 15 50  1  0
 15 51  1  0
 16 17  1  0
 16 52  1  1
 17 18  1  1
 17 19  1  0
 17 20  1  0
 18 53  1  0
 18 54  1  0
 18 55  1  0
 19 56  1  0
 19 57  1  0
 20 26  1  0
 20 21  1  0
 20 58  1  6
 21 22  2  0
 21 59  1  0
 22 23  1  0
 22 60  1  0
 23 24  1  0
 23 61  1  0
 23 62  1  0
 24 25  2  0
 24 26  1  0
 26 27  1  6
 27 63  1  0
 27 64  1  0
 27 65  1  0
M  END
>  <i_m_ct_stereo_status>  (344) 
1

>  <s_m_source_file>  (344) 
/var/tmp/pbs.5076255.sched01/tmpxe1g82q3/12669a6jj4p.sdf

>  <i_m_source_file_index>  (344) 
6

>  <i_lp_mmshare_version>  (344) 
48012

>  <i_f3d_flags>  (344) 
0

>  <s_epik_input>  (344) 
W0NIMl0xW0NIMl1bQ0BIXShbT0hdKUMoW0NIM10pKFtDSDNdKVtDQEBIXShbQ0BIXTFbQ0BASF0yW0NAQF0zNFtDSDNdKVtDSDJdW0NIMl1bQ0hdKFtDQEBIXShbQ0gyXTMpW0NIMl1bQ0gyXTIpW0NAXTUoW0NIM10pW0NAQEhdNFtDSF09W0NIXVtDSDJdQzU9Tw==

>  <s_epik_cmdline>  (344) 
J2VwaWtfcHl0aG9uJywgJy1waHQnLCAnMi4wJywgJy1waCcsICc3LjAnLCAnLXRuJywgJzgnLCAnLW1hJywgJzIwMCcsICctaW1hZScsICc8aW5maWxlLm1hZT4nLCAnLW9tYWUnLCAnPG91dGZpbGUubWFlPic=

>  <r_lp_tautomer_probability>  (344) 
1

>  <r_epik_Ionization_Penalty>  (344) 
3.0399e-06

>  <r_epik_Ionization_Penalty_Charging>  (344) 
0

>  <r_epik_Ionization_Penalty_Neutral>  (344) 
3.0399e-06

>  <r_epik_State_Penalty>  (344) 
-0

>  <r_epik_Charging_Adjusted_Penalty>  (344) 
0

>  <i_epik_Tot_Q>  (344) 
0

>  <i_epik_Tot_abs_Q>  (344) 
0

>  <s_lp_Force_Field>  (344) 
OPLS3e

>  <r_lp_Energy>  (344) 
107.691

>  <b_lp_Chiralities_Consistent>  (344) 
1

>  <s_lp_Variant>  (344) 
98:0-1

>  <s_i_glide_gridfile>  (344) 
pfpi4k_grid

>  <i_i_glide_lignum>  (344) 
6

>  <i_i_glide_rotatable_bonds>  (344) 
1

>  <r_i_docking_score>  (344) 
-2.60795

>  <r_i_glide_ligand_efficiency>  (344) 
-0.0965906

>  <r_i_glide_ligand_efficiency_sa>  (344) 
-0.289772

>  <r_i_glide_ligand_efficiency_ln>  (344) 
-0.607087

>  <r_i_glide_gscore>  (344) 
-2.60795

>  <r_i_glide_lipo>  (344) 
-0.0788784

>  <r_i_glide_hbond>  (344) 
-0.16

>  <r_i_glide_metal>  (344) 
-0

>  <r_i_glide_rewards>  (344) 
-0.882491

>  <r_i_glide_evdw>  (344) 
-18.7992

>  <r_i_glide_ecoul>  (344) 
-3.58797

>  <r_i_glide_erotb>  (344) 
0

>  <r_i_glide_esite>  (344) 
-0.00841924

>  <r_i_glide_emodel>  (344) 
-25.965

>  <r_i_glide_energy>  (344) 
-22.3872

>  <r_i_glide_einternal>  (344) 
1.22761

>  <r_i_glide_intrahb_reward>  (344) 
-0

>  <i_i_glide_confnum>  (344) 
1

>  <i_i_glide_posenum>  (344) 
6

>  <r_i_glide_eff_state_penalty>  (344) 
0

>  <ligand_id>  (344) 
98

>  <original_smiles>  (344) 
CC1(C)C(O)CCC2C1CCC1C3CCC2C(C)(C3)C2C=CCC(=O)C12C

>  <smiles>  (344) 
[H]OC1([H])C([H])([H])C([H])([H])C2([H])C([H])(C([H])([H])C([H])([H])C3([H])C4([H])C([H])([H])C([H])([H])C2([H])C(C([H])([H])[H])(C4([H])[H])C2([H])C([H])=C([H])C([H])([H])C(=O)C23C([H])([H])[H])C1(C([H])([H])[H])C([H])([H])[H]

$$$$
98:0:2
     RDKit          3D

 65 69  0  0  1  0  0  0  0  0999 V2000
   -2.4057    3.3347    5.1927 C   0  0  0  0  0  0  0  0  0  0  0  0
   -0.9317    2.9883    4.8528 C   0  0  0  0  0  0  0  0  0  0  0  0
   -0.9072    1.9961    3.6591 C   0  0  0  0  0  0  0  0  0  0  0  0
   -0.1619    4.2660    4.3844 C   0  0  1  0  0  0  0  0  0  0  0  0
   -0.8064    4.9048    3.2863 O   0  0  0  0  0  0  0  0  0  0  0  0
    0.0069    5.3001    5.5111 C   0  0  0  0  0  0  0  0  0  0  0  0
    0.6872    4.7158    6.7556 C   0  0  0  0  0  0  0  0  0  0  0  0
    0.0258    3.4035    7.2612 C   0  0  1  0  0  0  0  0  0  0  0  0
   -0.1853    2.3616    6.0907 C   0  0  1  0  0  0  0  0  0  0  0  0
   -0.8180    1.0400    6.5913 C   0  0  0  0  0  0  0  0  0  0  0  0
    0.1276   -0.1739    6.8130 C   0  0  0  0  0  0  0  0  0  0  0  0
    1.4307   -0.1153    7.6904 C   0  0  2  0  0  0  0  0  0  0  0  0
    1.2350    0.2034    9.2248 C   0  0  2  0  0  0  0  0  0  0  0  0
   -0.1717    0.6453    9.6677 C   0  0  0  0  0  0  0  0  0  0  0  0
   -0.3685    2.1734    9.5756 C   0  0  0  0  0  0  0  0  0  0  0  0
    0.6338    2.9404    8.6478 C   0  0  1  0  0  0  0  0  0  0  0  0
    2.1607    2.4888    8.8151 C   0  0  1  0  0  0  0  0  0  0  0  0
    2.9439    3.6315    9.5183 C   0  0  0  0  0  0  0  0  0  0  0  0
    2.1994    1.2825    9.7677 C   0  0  0  0  0  0  0  0  0  0  0  0
    2.8559    2.0212    7.4870 C   0  0  1  0  0  0  0  0  0  0  0  0
    4.2058    2.6075    7.1024 C   0  0  0  0  0  0  0  0  0  0  0  0
    4.8043    2.2151    5.9710 C   0  0  0  0  0  0  0  0  0  0  0  0
    4.2181    1.1878    5.0034 C   0  0  0  0  0  0  0  0  0  0  0  0
    3.0404    0.3813    5.5904 C   0  0  0  0  0  0  0  0  0  0  0  0
    2.4304   -0.3898    4.8612 O   0  0  0  0  0  0  0  0  0  0  0  0
    2.7794    0.4933    7.1243 C   0  0  2  0  0  0  0  0  0  0  0  0
    3.9561   -0.3563    7.7187 C   0  0  0  0  0  0  0  0  0  0  0  0
   -2.9346    3.7128    4.3194 H   0  0  0  0  0  0  0  0  0  0  0  0
   -2.4929    4.0862    5.9735 H   0  0  0  0  0  0  0  0  0  0  0  0
   -2.9654    2.4683    5.5447 H   0  0  0  0  0  0  0  0  0  0  0  0
    0.1110    1.6670    3.4487 H   0  0  0  0  0  0  0  0  0  0  0  0
   -1.2928    2.4494    2.7455 H   0  0  0  0  0  0  0  0  0  0  0  0
   -1.5147    1.1061    3.8208 H   0  0  0  0  0  0  0  0  0  0  0  0
    0.8385    3.9714    4.0586 H   0  0  0  0  0  0  0  0  0  0  0  0
   -0.4546    4.5805    2.4464 H   0  0  0  0  0  0  0  0  0  0  0  0
    0.5984    6.1420    5.1444 H   0  0  0  0  0  0  0  0  0  0  0  0
   -0.9560    5.7198    5.7935 H   0  0  0  0  0  0  0  0  0  0  0  0
    1.7420    4.5715    6.5357 H   0  0  0  0  0  0  0  0  0  0  0  0
    0.6613    5.4696    7.5434 H   0  0  0  0  0  0  0  0  0  0  0  0
   -0.9781    3.7220    7.5382 H   0  0  0  0  0  0  0  0  0  0  0  0
    0.7588    2.0703    5.6566 H   0  0  0  0  0  0  0  0  0  0  0  0
   -1.4650    1.2443    7.4326 H   0  0  0  0  0  0  0  0  0  0  0  0
   -1.5414    0.6811    5.8688 H   0  0  0  0  0  0  0  0  0  0  0  0
   -0.4900   -0.9613    7.2426 H   0  0  0  0  0  0  0  0  0  0  0  0
    0.3384   -0.5933    5.8339 H   0  0  0  0  0  0  0  0  0  0  0  0
    1.6660   -1.1809    7.7056 H   0  0  0  0  0  0  0  0  0  0  0  0
    1.4424   -0.7191    9.7671 H   0  0  0  0  0  0  0  0  0  0  0  0
   -0.9603    0.1049    9.1568 H   0  0  0  0  0  0  0  0  0  0  0  0
   -0.3151    0.3611   10.7126 H   0  0  0  0  0  0  0  0  0  0  0  0
   -1.4067    2.4114    9.3383 H   0  0  0  0  0  0  0  0  0  0  0  0
   -0.2338    2.5609   10.5884 H   0  0  0  0  0  0  0  0  0  0  0  0
    0.6062    3.8975    9.1643 H   0  0  0  0  0  0  0  0  0  0  0  0
    3.9584    3.3198    9.7776 H   0  0  0  0  0  0  0  0  0  0  0  0
    2.4732    3.9274   10.4569 H   0  0  0  0  0  0  0  0  0  0  0  0
    3.0101    4.5214    8.8895 H   0  0  0  0  0  0  0  0  0  0  0  0
    1.9072    1.5650   10.7795 H   0  0  0  0  0  0  0  0  0  0  0  0
    3.2184    0.9297    9.8923 H   0  0  0  0  0  0  0  0  0  0  0  0
    2.3313    2.5590    6.7244 H   0  0  0  0  0  0  0  0  0  0  0  0
    4.6748    3.3599    7.7170 H   0  0  0  0  0  0  0  0  0  0  0  0
    5.7504    2.6587    5.6930 H   0  0  0  0  0  0  0  0  0  0  0  0
    3.9023    1.6880    4.0859 H   0  0  0  0  0  0  0  0  0  0  0  0
    5.0041    0.4858    4.7277 H   0  0  0  0  0  0  0  0  0  0  0  0
    3.8029   -0.6871    8.7417 H   0  0  0  0  0  0  0  0  0  0  0  0
    4.9198    0.1522    7.6918 H   0  0  0  0  0  0  0  0  0  0  0  0
    4.0897   -1.2832    7.1581 H   0  0  0  0  0  0  0  0  0  0  0  0
  1  2  1  0
  1 28  1  0
  1 29  1  0
  1 30  1  0
  2  9  1  0
  2  3  1  0
  2  4  1  0
  3 31  1  0
  3 32  1  0
  3 33  1  0
  4  5  1  0
  4  6  1  0
  4 34  1  6
  5 35  1  0
  6  7  1  0
  6 36  1  0
  6 37  1  0
  7  8  1  0
  7 38  1  0
  7 39  1  0
  8 16  1  0
  8  9  1  0
  8 40  1  1
  9 10  1  0
  9 41  1  6
 10 11  1  0
 10 42  1  0
 10 43  1  0
 11 12  1  0
 11 44  1  0
 11 45  1  0
 12 26  1  0
 12 13  1  0
 12 46  1  1
 13 19  1  0
 13 14  1  0
 13 47  1  1
 14 15  1  0
 14 48  1  0
 14 49  1  0
 15 16  1  0
 15 50  1  0
 15 51  1  0
 16 17  1  0
 16 52  1  1
 17 18  1  1
 17 19  1  0
 17 20  1  0
 18 53  1  0
 18 54  1  0
 18 55  1  0
 19 56  1  0
 19 57  1  0
 20 26  1  0
 20 21  1  0
 20 58  1  6
 21 22  2  0
 21 59  1  0
 22 23  1  0
 22 60  1  0
 23 24  1  0
 23 61  1  0
 23 62  1  0
 24 25  2  0
 24 26  1  0
 26 27  1  1
 27 63  1  0
 27 64  1  0
 27 65  1  0
M  END
>  <i_m_ct_stereo_status>  (345) 
1

>  <s_m_source_file>  (345) 
/var/tmp/pbs.5076255.sched01/tmpxe1g82q3/12669a6jj4p.sdf

>  <i_m_source_file_index>  (345) 
6

>  <i_lp_mmshare_version>  (345) 
48012

>  <i_f3d_flags>  (345) 
0

>  <s_epik_input>  (345) 
W0NIMl0xW0NIMl1bQ0BIXShbT0hdKUMoW0NIM10pKFtDSDNdKVtDQEBIXShbQ0BIXTFbQ0BASF0yW0NAQF0zNFtDSDNdKVtDSDJdW0NIMl1bQ0hdKFtDQEBIXShbQ0gyXTMpW0NIMl1bQ0gyXTIpW0NAXTUoW0NIM10pW0NAQEhdNFtDSF09W0NIXVtDSDJdQzU9Tw==

>  <s_epik_cmdline>  (345) 
J2VwaWtfcHl0aG9uJywgJy1waHQnLCAnMi4wJywgJy1waCcsICc3LjAnLCAnLXRuJywgJzgnLCAnLW1hJywgJzIwMCcsICctaW1hZScsICc8aW5maWxlLm1hZT4nLCAnLW9tYWUnLCAnPG91dGZpbGUubWFlPic=

>  <r_lp_tautomer_probability>  (345) 
1

>  <r_epik_Ionization_Penalty>  (345) 
3.0399e-06

>  <r_epik_Ionization_Penalty_Charging>  (345) 
0

>  <r_epik_Ionization_Penalty_Neutral>  (345) 
3.0399e-06

>  <r_epik_State_Penalty>  (345) 
-0

>  <r_epik_Charging_Adjusted_Penalty>  (345) 
0

>  <i_epik_Tot_Q>  (345) 
0

>  <i_epik_Tot_abs_Q>  (345) 
0

>  <s_lp_Force_Field>  (345) 
OPLS3e

>  <r_lp_Energy>  (345) 
107.691

>  <b_lp_Chiralities_Consistent>  (345) 
1

>  <s_lp_Variant>  (345) 
98:0-1

>  <s_i_glide_gridfile>  (345) 
pfpi4k_grid

>  <i_i_glide_lignum>  (345) 
6

>  <i_i_glide_rotatable_bonds>  (345) 
1

>  <r_i_docking_score>  (345) 
-2.57379

>  <r_i_glide_ligand_efficiency>  (345) 
-0.0953255

>  <r_i_glide_ligand_efficiency_sa>  (345) 
-0.285976

>  <r_i_glide_ligand_efficiency_ln>  (345) 
-0.599135

>  <r_i_glide_gscore>  (345) 
-2.57379

>  <r_i_glide_lipo>  (345) 
-0.00404587

>  <r_i_glide_hbond>  (345) 
-0.232614

>  <r_i_glide_metal>  (345) 
-0

>  <r_i_glide_rewards>  (345) 
-0.882491

>  <r_i_glide_evdw>  (345) 
-15.5431

>  <r_i_glide_ecoul>  (345) 
-4.51653

>  <r_i_glide_erotb>  (345) 
0

>  <r_i_glide_esite>  (345) 
0

>  <r_i_glide_emodel>  (345) 
-23.762

>  <r_i_glide_energy>  (345) 
-20.0597

>  <r_i_glide_einternal>  (345) 
0.928687

>  <r_i_glide_intrahb_reward>  (345) 
-0

>  <i_i_glide_confnum>  (345) 
2

>  <i_i_glide_posenum>  (345) 
16

>  <r_i_glide_eff_state_penalty>  (345) 
0

>  <ligand_id>  (345) 
98

>  <original_smiles>  (345) 
CC1(C)C(O)CCC2C1CCC1C3CCC2C(C)(C3)C2C=CCC(=O)C12C

>  <smiles>  (345) 
[H]OC1([H])C([H])([H])C([H])([H])C2([H])C([H])(C([H])([H])C([H])([H])C3([H])C4([H])C([H])([H])C([H])([H])C2([H])C(C([H])([H])[H])(C4([H])[H])C2([H])C([H])=C([H])C([H])([H])C(=O)C23C([H])([H])[H])C1(C([H])([H])[H])C([H])([H])[H]

$$$$
100:0:0
     RDKit          3D

 22 23  0  0  1  0  0  0  0  0999 V2000
    5.7827   -1.0557    0.3775 C   0  0  0  0  0  0  0  0  0  0  0  0
    5.3278   -1.7484   -0.7977 N   0  0  0  0  0  0  0  0  0  0  0  0
    5.9900   -2.8083   -1.3717 C   0  0  0  0  0  0  0  0  0  0  0  0
    7.0427   -3.3623   -0.9720 O   0  0  0  0  0  0  0  0  0  0  0  0
    5.1459   -3.3116   -2.8746 S   0  0  0  0  0  0  0  0  0  0  0  0
    3.9534   -1.9316   -2.7651 C   0  0  0  0  0  0  0  0  0  0  0  0
    2.5813   -2.1385   -3.4465 C   0  0  0  0  0  0  0  0  0  0  0  0
    2.6260   -0.6865   -3.9197 C   0  0  0  0  0  0  0  0  0  0  0  0
    4.1396   -0.7892   -3.7934 C   0  0  0  0  0  0  0  0  0  0  0  0
    3.9800   -1.4955   -1.2969 C   0  0  1  0  0  0  0  0  0  0  0  0
    3.0256   -2.2185   -0.5473 O   0  0  0  0  0  0  0  0  0  0  0  0
    6.8527   -1.2155    0.5585 H   0  0  0  0  0  0  0  0  0  0  0  0
    5.2236   -1.4034    1.2512 H   0  0  0  0  0  0  0  0  0  0  0  0
    5.6223    0.0215    0.2754 H   0  0  0  0  0  0  0  0  0  0  0  0
    2.6015   -2.8715   -4.2614 H   0  0  0  0  0  0  0  0  0  0  0  0
    1.7550   -2.3486   -2.7696 H   0  0  0  0  0  0  0  0  0  0  0  0
    2.2382   -0.5079   -4.9235 H   0  0  0  0  0  0  0  0  0  0  0  0
    2.2219    0.0226   -3.1953 H   0  0  0  0  0  0  0  0  0  0  0  0
    4.5837    0.1199   -3.3892 H   0  0  0  0  0  0  0  0  0  0  0  0
    4.6180   -1.0891   -4.7275 H   0  0  0  0  0  0  0  0  0  0  0  0
    3.7960   -0.4314   -1.2015 H   0  0  0  0  0  0  0  0  0  0  0  0
    2.1623   -1.8202   -0.7171 H   0  0  0  0  0  0  0  0  0  0  0  0
  1  2  1  0
  1 12  1  0
  1 13  1  0
  1 14  1  0
  2 10  1  0
  2  3  1  0
  3  4  2  0
  3  5  1  0
  5  6  1  0
  6  9  1  0
  6  7  1  0
  6 10  1  0
  7  8  1  0
  7 15  1  0
  7 16  1  0
  8  9  1  0
  8 17  1  0
  8 18  1  0
  9 19  1  0
  9 20  1  0
 10 11  1  0
 10 21  1  6
 11 22  1  0
M  END
>  <i_m_ct_stereo_status>  (346) 
1

>  <s_m_source_file>  (346) 
/var/tmp/pbs.5076255.sched01/tmpxe1g82q3/12669a6jj4p.sdf

>  <i_m_source_file_index>  (346) 
8

>  <i_lp_mmshare_version>  (346) 
48012

>  <i_f3d_flags>  (346) 
0

>  <s_epik_input>  (346) 
W09IXVtDQEhdMU4oW0NIM10pQyg9TylTQzEyW0NIMl1bQ0gyXVtDSDJdMg==

>  <s_epik_cmdline>  (346) 
J2VwaWtfcHl0aG9uJywgJy1waHQnLCAnMi4wJywgJy1waCcsICc3LjAnLCAnLXRuJywgJzgnLCAnLW1hJywgJzIwMCcsICctaW1hZScsICc8aW5maWxlLm1hZT4nLCAnLW9tYWUnLCAnPG91dGZpbGUubWFlPic=

>  <r_lp_tautomer_probability>  (346) 
1

>  <r_epik_Ionization_Penalty>  (346) 
5.88686e-05

>  <r_epik_Ionization_Penalty_Charging>  (346) 
0

>  <r_epik_Ionization_Penalty_Neutral>  (346) 
5.88686e-05

>  <r_epik_State_Penalty>  (346) 
-0

>  <r_epik_Charging_Adjusted_Penalty>  (346) 
0

>  <i_epik_Tot_Q>  (346) 
0

>  <i_epik_Tot_abs_Q>  (346) 
0

>  <s_epik_Chemistry_Notes>  (346) 
This compound contains an acetal/aminal-like group ( X-CH(R)-Y where X, Y are N, S, or O) that may be acid/base labile, releasing an aldehyde.

>  <s_lp_Force_Field>  (346) 
OPLS3e

>  <r_lp_Energy>  (346) 
5.98941

>  <b_lp_Chiralities_Consistent>  (346) 
1

>  <s_lp_Variant>  (346) 
100:0-1

>  <s_i_glide_gridfile>  (346) 
pfpi4k_grid

>  <i_i_glide_lignum>  (346) 
8

>  <i_i_glide_rotatable_bonds>  (346) 
1

>  <r_i_docking_score>  (346) 
-4.94432

>  <r_i_glide_ligand_efficiency>  (346) 
-0.449483

>  <r_i_glide_ligand_efficiency_sa>  (346) 
-0.999642

>  <r_i_glide_ligand_efficiency_ln>  (346) 
-1.45511

>  <r_i_glide_gscore>  (346) 
-4.94432

>  <r_i_glide_lipo>  (346) 
-0.856865

>  <r_i_glide_hbond>  (346) 
-0.16

>  <r_i_glide_metal>  (346) 
-0

>  <r_i_glide_rewards>  (346) 
-2.22795

>  <r_i_glide_evdw>  (346) 
-17.6278

>  <r_i_glide_ecoul>  (346) 
-4.8543

>  <r_i_glide_erotb>  (346) 
0

>  <r_i_glide_esite>  (346) 
-0.0899647

>  <r_i_glide_emodel>  (346) 
-29.9437

>  <r_i_glide_energy>  (346) 
-22.4821

>  <r_i_glide_einternal>  (346) 
0.143414

>  <r_i_glide_intrahb_reward>  (346) 
-0

>  <i_i_glide_confnum>  (346) 
2

>  <i_i_glide_posenum>  (346) 
31

>  <r_i_glide_eff_state_penalty>  (346) 
0

>  <ligand_id>  (346) 
100

>  <original_smiles>  (346) 
CN1C(=O)SC2(CCC2)C1O

>  <smiles>  (346) 
[H]OC1([H])N(C([H])([H])[H])C(=O)SC12C([H])([H])C([H])([H])C2([H])[H]

$$$$
100:0:1
     RDKit          3D

 22 23  0  0  1  0  0  0  0  0999 V2000
    3.8723   -3.0825    1.2686 C   0  0  0  0  0  0  0  0  0  0  0  0
    4.1959   -3.1267   -0.1429 N   0  0  0  0  0  0  0  0  0  0  0  0
    5.3453   -3.7278   -0.6470 C   0  0  0  0  0  0  0  0  0  0  0  0
    6.2312   -4.3324   -0.0401 O   0  0  0  0  0  0  0  0  0  0  0  0
    5.4044   -3.4534   -2.4170 S   0  0  0  0  0  0  0  0  0  0  0  0
    3.8935   -2.4336   -2.4337 C   0  0  0  0  0  0  0  0  0  0  0  0
    3.0581   -2.4324   -3.7278 C   0  0  0  0  0  0  0  0  0  0  0  0
    3.7467   -1.1437   -4.1753 C   0  0  0  0  0  0  0  0  0  0  0  0
    4.1642   -0.9464   -2.7196 C   0  0  0  0  0  0  0  0  0  0  0  0
    3.1719   -2.7692   -1.1130 C   0  0  1  0  0  0  0  0  0  0  0  0
    2.2935   -3.8538   -1.3076 O   0  0  0  0  0  0  0  0  0  0  0  0
    4.7644   -3.2221    1.8760 H   0  0  0  0  0  0  0  0  0  0  0  0
    3.1397   -3.8536    1.5008 H   0  0  0  0  0  0  0  0  0  0  0  0
    3.4496   -2.1044    1.4929 H   0  0  0  0  0  0  0  0  0  0  0  0
    3.2245   -3.2949   -4.3737 H   0  0  0  0  0  0  0  0  0  0  0  0
    1.9916   -2.2882   -3.5398 H   0  0  0  0  0  0  0  0  0  0  0  0
    4.6120   -1.3251   -4.8139 H   0  0  0  0  0  0  0  0  0  0  0  0
    3.0789   -0.3733   -4.5800 H   0  0  0  0  0  0  0  0  0  0  0  0
    3.4710   -0.2943   -2.2006 H   0  0  0  0  0  0  0  0  0  0  0  0
    5.1936   -0.6262   -2.5590 H   0  0  0  0  0  0  0  0  0  0  0  0
    2.6193   -1.9180   -0.7515 H   0  0  0  0  0  0  0  0  0  0  0  0
    2.7023   -4.4945   -1.8983 H   0  0  0  0  0  0  0  0  0  0  0  0
  1  2  1  0
  1 12  1  0
  1 13  1  0
  1 14  1  0
  2 10  1  0
  2  3  1  0
  3  4  2  0
  3  5  1  0
  5  6  1  0
  6  9  1  0
  6  7  1  0
  6 10  1  0
  7  8  1  0
  7 15  1  0
  7 16  1  0
  8  9  1  0
  8 17  1  0
  8 18  1  0
  9 19  1  0
  9 20  1  0
 10 11  1  0
 10 21  1  1
 11 22  1  0
M  END
>  <i_m_ct_stereo_status>  (347) 
1

>  <s_m_source_file>  (347) 
/var/tmp/pbs.5076255.sched01/tmpxe1g82q3/12669a6jj4p.sdf

>  <i_m_source_file_index>  (347) 
8

>  <i_lp_mmshare_version>  (347) 
48012

>  <i_f3d_flags>  (347) 
0

>  <s_epik_input>  (347) 
W09IXVtDQEhdMU4oW0NIM10pQyg9TylTQzEyW0NIMl1bQ0gyXVtDSDJdMg==

>  <s_epik_cmdline>  (347) 
J2VwaWtfcHl0aG9uJywgJy1waHQnLCAnMi4wJywgJy1waCcsICc3LjAnLCAnLXRuJywgJzgnLCAnLW1hJywgJzIwMCcsICctaW1hZScsICc8aW5maWxlLm1hZT4nLCAnLW9tYWUnLCAnPG91dGZpbGUubWFlPic=

>  <r_lp_tautomer_probability>  (347) 
1

>  <r_epik_Ionization_Penalty>  (347) 
5.88686e-05

>  <r_epik_Ionization_Penalty_Charging>  (347) 
0

>  <r_epik_Ionization_Penalty_Neutral>  (347) 
5.88686e-05

>  <r_epik_State_Penalty>  (347) 
-0

>  <r_epik_Charging_Adjusted_Penalty>  (347) 
0

>  <i_epik_Tot_Q>  (347) 
0

>  <i_epik_Tot_abs_Q>  (347) 
0

>  <s_epik_Chemistry_Notes>  (347) 
This compound contains an acetal/aminal-like group ( X-CH(R)-Y where X, Y are N, S, or O) that may be acid/base labile, releasing an aldehyde.

>  <s_lp_Force_Field>  (347) 
OPLS3e

>  <r_lp_Energy>  (347) 
5.98941

>  <b_lp_Chiralities_Consistent>  (347) 
1

>  <s_lp_Variant>  (347) 
100:0-1

>  <s_i_glide_gridfile>  (347) 
pfpi4k_grid

>  <i_i_glide_lignum>  (347) 
8

>  <i_i_glide_rotatable_bonds>  (347) 
1

>  <r_i_docking_score>  (347) 
-4.7676

>  <r_i_glide_ligand_efficiency>  (347) 
-0.433418

>  <r_i_glide_ligand_efficiency_sa>  (347) 
-0.963913

>  <r_i_glide_ligand_efficiency_ln>  (347) 
-1.4031

>  <r_i_glide_gscore>  (347) 
-4.7676

>  <r_i_glide_lipo>  (347) 
-0.480421

>  <r_i_glide_hbond>  (347) 
-0.32

>  <r_i_glide_metal>  (347) 
-0

>  <r_i_glide_rewards>  (347) 
-2.33145

>  <r_i_glide_evdw>  (347) 
-16.3123

>  <r_i_glide_ecoul>  (347) 
-5.26769

>  <r_i_glide_erotb>  (347) 
0

>  <r_i_glide_esite>  (347) 
-0.0299598

>  <r_i_glide_emodel>  (347) 
-28.5695

>  <r_i_glide_energy>  (347) 
-21.58

>  <r_i_glide_einternal>  (347) 
0.57319

>  <r_i_glide_intrahb_reward>  (347) 
-0

>  <i_i_glide_confnum>  (347) 
1

>  <i_i_glide_posenum>  (347) 
10

>  <r_i_glide_eff_state_penalty>  (347) 
0

>  <ligand_id>  (347) 
100

>  <original_smiles>  (347) 
CN1C(=O)SC2(CCC2)C1O

>  <smiles>  (347) 
[H]OC1([H])N(C([H])([H])[H])C(=O)SC12C([H])([H])C([H])([H])C2([H])[H]

$$$$
100:0:2
     RDKit          3D

 22 23  0  0  1  0  0  0  0  0999 V2000
    3.6393   -3.4556    1.3752 C   0  0  0  0  0  0  0  0  0  0  0  0
    4.0567   -3.3359   -0.0050 N   0  0  0  0  0  0  0  0  0  0  0  0
    5.1803   -3.9632   -0.5197 C   0  0  0  0  0  0  0  0  0  0  0  0
    5.9561   -4.7361    0.0803 O   0  0  0  0  0  0  0  0  0  0  0  0
    5.3938   -3.4625   -2.2784 S   0  0  0  0  0  0  0  0  0  0  0  0
    3.9562   -2.3494   -2.1944 C   0  0  0  0  0  0  0  0  0  0  0  0
    3.2155   -2.0766   -3.5207 C   0  0  0  0  0  0  0  0  0  0  0  0
    3.1208   -0.6036   -3.1323 C   0  0  0  0  0  0  0  0  0  0  0  0
    4.3287   -0.8520   -2.2300 C   0  0  0  0  0  0  0  0  0  0  0  0
    3.1202   -2.7929   -0.9785 C   0  0  1  0  0  0  0  0  0  0  0  0
    2.1910   -3.8075   -1.3477 O   0  0  0  0  0  0  0  0  0  0  0  0
    4.4722   -3.7614    2.0207 H   0  0  0  0  0  0  0  0  0  0  0  0
    2.8297   -4.1872    1.4623 H   0  0  0  0  0  0  0  0  0  0  0  0
    3.2762   -2.4850    1.7240 H   0  0  0  0  0  0  0  0  0  0  0  0
    3.8440   -2.2464   -4.4016 H   0  0  0  0  0  0  0  0  0  0  0  0
    2.2453   -2.5636   -3.6307 H   0  0  0  0  0  0  0  0  0  0  0  0
    3.2642    0.1145   -3.9398 H   0  0  0  0  0  0  0  0  0  0  0  0
    2.2262   -0.3777   -2.5566 H   0  0  0  0  0  0  0  0  0  0  0  0
    4.2928   -0.3446   -1.2663 H   0  0  0  0  0  0  0  0  0  0  0  0
    5.2825   -0.6554   -2.7218 H   0  0  0  0  0  0  0  0  0  0  0  0
    2.6110   -1.9450   -0.5290 H   0  0  0  0  0  0  0  0  0  0  0  0
    2.6179   -4.4488   -1.9000 H   0  0  0  0  0  0  0  0  0  0  0  0
  1  2  1  0
  1 12  1  0
  1 13  1  0
  1 14  1  0
  2 10  1  0
  2  3  1  0
  3  4  2  0
  3  5  1  0
  5  6  1  0
  6  9  1  0
  6  7  1  0
  6 10  1  0
  7  8  1  0
  7 15  1  0
  7 16  1  0
  8  9  1  0
  8 17  1  0
  8 18  1  0
  9 19  1  0
  9 20  1  0
 10 11  1  0
 10 21  1  1
 11 22  1  0
M  END
>  <i_m_ct_stereo_status>  (348) 
1

>  <s_m_source_file>  (348) 
/var/tmp/pbs.5076255.sched01/tmpxe1g82q3/12669a6jj4p.sdf

>  <i_m_source_file_index>  (348) 
8

>  <i_lp_mmshare_version>  (348) 
48012

>  <i_f3d_flags>  (348) 
0

>  <s_epik_input>  (348) 
W09IXVtDQEhdMU4oW0NIM10pQyg9TylTQzEyW0NIMl1bQ0gyXVtDSDJdMg==

>  <s_epik_cmdline>  (348) 
J2VwaWtfcHl0aG9uJywgJy1waHQnLCAnMi4wJywgJy1waCcsICc3LjAnLCAnLXRuJywgJzgnLCAnLW1hJywgJzIwMCcsICctaW1hZScsICc8aW5maWxlLm1hZT4nLCAnLW9tYWUnLCAnPG91dGZpbGUubWFlPic=

>  <r_lp_tautomer_probability>  (348) 
1

>  <r_epik_Ionization_Penalty>  (348) 
5.88686e-05

>  <r_epik_Ionization_Penalty_Charging>  (348) 
0

>  <r_epik_Ionization_Penalty_Neutral>  (348) 
5.88686e-05

>  <r_epik_State_Penalty>  (348) 
-0

>  <r_epik_Charging_Adjusted_Penalty>  (348) 
0

>  <i_epik_Tot_Q>  (348) 
0

>  <i_epik_Tot_abs_Q>  (348) 
0

>  <s_epik_Chemistry_Notes>  (348) 
This compound contains an acetal/aminal-like group ( X-CH(R)-Y where X, Y are N, S, or O) that may be acid/base labile, releasing an aldehyde.

>  <s_lp_Force_Field>  (348) 
OPLS3e

>  <r_lp_Energy>  (348) 
5.98941

>  <b_lp_Chiralities_Consistent>  (348) 
1

>  <s_lp_Variant>  (348) 
100:0-1

>  <s_i_glide_gridfile>  (348) 
pfpi4k_grid

>  <i_i_glide_lignum>  (348) 
8

>  <i_i_glide_rotatable_bonds>  (348) 
1

>  <r_i_docking_score>  (348) 
-4.63886

>  <r_i_glide_ligand_efficiency>  (348) 
-0.421714

>  <r_i_glide_ligand_efficiency_sa>  (348) 
-0.937884

>  <r_i_glide_ligand_efficiency_ln>  (348) 
-1.36521

>  <r_i_glide_gscore>  (348) 
-4.63886

>  <r_i_glide_lipo>  (348) 
-0.416959

>  <r_i_glide_hbond>  (348) 
-0.32

>  <r_i_glide_metal>  (348) 
-0

>  <r_i_glide_rewards>  (348) 
-2.35249

>  <r_i_glide_evdw>  (348) 
-15.6404

>  <r_i_glide_ecoul>  (348) 
-4.91415

>  <r_i_glide_erotb>  (348) 
0

>  <r_i_glide_esite>  (348) 
-0.0302627

>  <r_i_glide_emodel>  (348) 
-27.3715

>  <r_i_glide_energy>  (348) 
-20.5545

>  <r_i_glide_einternal>  (348) 
0.518952

>  <r_i_glide_intrahb_reward>  (348) 
-0

>  <i_i_glide_confnum>  (348) 
2

>  <i_i_glide_posenum>  (348) 
22

>  <r_i_glide_eff_state_penalty>  (348) 
0

>  <ligand_id>  (348) 
100

>  <original_smiles>  (348) 
CN1C(=O)SC2(CCC2)C1O

>  <smiles>  (348) 
[H]OC1([H])N(C([H])([H])[H])C(=O)SC12C([H])([H])C([H])([H])C2([H])[H]

$$$$
101:0:0
     RDKit          3D

 32 34  0  0  1  0  0  0  0  0999 V2000
    0.0131   -6.0948    8.5607 O   0  0  0  0  0  0  0  0  0  0  0  0
   -0.0991   -6.2586    7.3310 C   0  0  0  0  0  0  0  0  0  0  0  0
   -0.5996   -5.3946    6.5609 O   0  0  0  0  0  0  0  0  0  0  0  0
    0.3286   -7.5864    6.7630 C   0  0  0  0  0  0  0  0  0  0  0  0
    0.9987   -8.5394    7.4832 C   0  0  0  0  0  0  0  0  0  0  0  0
    1.1490   -9.6117    6.6399 N   0  0  0  0  0  0  0  0  0  0  0  0
    0.6093   -9.3418    5.4454 C   0  0  0  0  0  0  0  0  0  0  0  0
    0.0917   -8.0890    5.5058 N   0  0  0  0  0  0  0  0  0  0  0  0
   -0.6477   -7.4097    4.4123 C   0  0  0  0  0  0  0  0  0  0  0  0
   -0.6217   -8.0702    3.0279 C   0  0  0  0  0  0  0  0  0  0  0  0
    0.7576   -8.3918    2.6296 N   0  0  0  0  0  0  0  0  0  0  0  0
    1.5139   -7.4871    1.9527 C   0  0  0  0  0  0  0  0  0  0  0  0
    1.0717   -6.3703    1.6619 O   0  0  0  0  0  0  0  0  0  0  0  0
    2.9262   -7.8045    1.5770 C   0  0  0  0  0  0  0  0  0  0  0  0
    3.4455   -9.0233    1.2167 C   0  0  0  0  0  0  0  0  0  0  0  0
    4.8065   -8.7341    0.9471 C   0  0  0  0  0  0  0  0  0  0  0  0
    5.0610   -7.4411    1.0105 N   0  0  0  0  0  0  0  0  0  0  0  0
    3.8543   -6.8290    1.3801 O   0  0  0  0  0  0  0  0  0  0  0  0
    1.2088   -9.7391    3.0286 C   0  0  0  0  0  0  0  0  0  0  0  0
    0.5933  -10.3056    4.3020 C   0  0  0  0  0  0  0  0  0  0  0  0
    1.3429   -8.5323    8.5033 H   0  0  0  0  0  0  0  0  0  0  0  0
   -1.6731   -7.2845    4.7539 H   0  0  0  0  0  0  0  0  0  0  0  0
   -0.1944   -6.4240    4.3205 H   0  0  0  0  0  0  0  0  0  0  0  0
   -1.2712   -8.9487    2.9849 H   0  0  0  0  0  0  0  0  0  0  0  0
   -1.0908   -7.3825    2.3134 H   0  0  0  0  0  0  0  0  0  0  0  0
    2.9733   -9.9891    1.1469 H   0  0  0  0  0  0  0  0  0  0  0  0
    5.5943   -9.4198    0.6875 H   0  0  0  0  0  0  0  0  0  0  0  0
    1.0557  -10.4269    2.1887 H   0  0  0  0  0  0  0  0  0  0  0  0
    2.2564   -9.7148    3.3087 H   0  0  0  0  0  0  0  0  0  0  0  0
    1.1437  -11.1885    4.6154 H   0  0  0  0  0  0  0  0  0  0  0  0
   -0.4354  -10.5949    4.0848 H   0  0  0  0  0  0  0  0  0  0  0  0
    1.5569  -10.5118    6.8937 H   0  0  0  0  0  0  0  0  0  0  0  0
  1  2  2  0
  2  3  1  0
  2  4  1  0
  4  8  1  0
  4  5  2  0
  5  6  1  0
  5 21  1  0
  6  7  2  0
  6 32  1  0
  7 20  1  0
  7  8  1  0
  8  9  1  0
  9 10  1  0
  9 22  1  0
  9 23  1  0
 10 11  1  0
 10 24  1  0
 10 25  1  0
 11 12  1  0
 11 19  1  0
 12 13  2  0
 12 14  1  0
 14 18  1  0
 14 15  2  0
 15 16  1  0
 15 26  1  0
 16 17  2  0
 16 27  1  0
 17 18  1  0
 19 20  1  0
 19 28  1  0
 19 29  1  0
 20 30  1  0
 20 31  1  0
M  CHG  2   3  -1   6   1
M  END
>  <i_m_ct_stereo_status>  (349) 
1

>  <s_m_source_file>  (349) 
/var/tmp/pbs.5076255.sched01/tmpxe1g82q3/12669a6jj4p.sdf

>  <i_m_source_file_index>  (349) 
9

>  <i_lp_mmshare_version>  (349) 
48012

>  <i_f3d_flags>  (349) 
0

>  <s_epik_input>  (349) 
Tz1DKFtPSF0pYyhbY0hdbjEpbihjMTIpW0NIMl1bQ0gyXU4oW0NIMl1bQ0gyXTIpQyg9TyljM1tjSF1bY0hdbm8z

>  <s_epik_cmdline>  (349) 
J2VwaWtfcHl0aG9uJywgJy1waHQnLCAnMi4wJywgJy1waCcsICc3LjAnLCAnLXRuJywgJzgnLCAnLW1hJywgJzIwMCcsICctaW1hZScsICc8aW5maWxlLm1hZT4nLCAnLW9tYWUnLCAnPG91dGZpbGUubWFlPic=

>  <r_epik_Ionization_Penalty>  (349) 
0.0966084

>  <r_epik_Ionization_Penalty_Charging>  (349) 
9.27957e-07

>  <r_epik_Ionization_Penalty_Neutral>  (349) 
0.0966075

>  <r_epik_State_Penalty>  (349) 
0.0867532

>  <r_epik_Charging_Adjusted_Penalty>  (349) 
0.0867542

>  <i_epik_Tot_Q>  (349) 
0

>  <i_epik_Tot_abs_Q>  (349) 
2

>  <s_lp_Force_Field>  (349) 
OPLS3e

>  <r_lp_Energy>  (349) 
23.971

>  <b_lp_Chiralities_Consistent>  (349) 
1

>  <s_lp_Variant>  (349) 
101:0-1

>  <s_i_glide_gridfile>  (349) 
pfpi4k_grid

>  <i_i_glide_lignum>  (349) 
9

>  <i_i_glide_rotatable_bonds>  (349) 
3

>  <r_i_docking_score>  (349) 
-3.58567

>  <r_i_glide_ligand_efficiency>  (349) 
-0.179283

>  <r_i_glide_ligand_efficiency_sa>  (349) 
-0.48665

>  <r_i_glide_ligand_efficiency_ln>  (349) 
-0.897374

>  <r_i_glide_gscore>  (349) 
-3.58567

>  <r_i_glide_lipo>  (349) 
-0.060397

>  <r_i_glide_hbond>  (349) 
-0.266495

>  <r_i_glide_metal>  (349) 
-0

>  <r_i_glide_rewards>  (349) 
-1.52558

>  <r_i_glide_evdw>  (349) 
-19.7056

>  <r_i_glide_ecoul>  (349) 
-6.48484

>  <r_i_glide_erotb>  (349) 
0.471436

>  <r_i_glide_esite>  (349) 
-0.246623

>  <r_i_glide_emodel>  (349) 
-35.4086

>  <r_i_glide_energy>  (349) 
-26.1905

>  <r_i_glide_einternal>  (349) 
1.22954

>  <r_i_glide_intrahb_reward>  (349) 
-0

>  <i_i_glide_confnum>  (349) 
4

>  <i_i_glide_posenum>  (349) 
2

>  <r_i_glide_eff_state_penalty>  (349) 
0

>  <ligand_id>  (349) 
101

>  <original_smiles>  (349) 
O=C(O)c1cnc2n1CCN(C(=O)c1ccno1)CC2

>  <smiles>  (349) 
[H]c1noc(C(=O)N2C([H])([H])C([H])([H])c3n(c(C(=O)[O-])c([H])[n+]3[H])C([H])([H])C2([H])[H])c1[H]

$$$$
101:0:1
     RDKit          3D

 32 34  0  0  1  0  0  0  0  0999 V2000
   -1.3415   -2.3166    6.0542 O   0  0  0  0  0  0  0  0  0  0  0  0
   -1.3665   -1.1335    5.6542 C   0  0  0  0  0  0  0  0  0  0  0  0
   -2.1872   -0.2908    6.0613 O   0  0  0  0  0  0  0  0  0  0  0  0
   -0.3430   -0.7117    4.6360 C   0  0  0  0  0  0  0  0  0  0  0  0
    0.6801   -1.5052    4.2139 C   0  0  0  0  0  0  0  0  0  0  0  0
    1.3479   -0.7579    3.2785 N   0  0  0  0  0  0  0  0  0  0  0  0
    0.7630    0.4339    3.1066 C   0  0  0  0  0  0  0  0  0  0  0  0
   -0.2858    0.4866    3.9770 N   0  0  0  0  0  0  0  0  0  0  0  0
   -1.1950    1.6289    4.1375 C   0  0  0  0  0  0  0  0  0  0  0  0
   -0.8041    2.9487    3.4589 C   0  0  0  0  0  0  0  0  0  0  0  0
    0.5850    3.3099    3.7822 N   0  0  0  0  0  0  0  0  0  0  0  0
    0.8581    4.0778    4.8789 C   0  0  0  0  0  0  0  0  0  0  0  0
   -0.0404    4.3650    5.6602 O   0  0  0  0  0  0  0  0  0  0  0  0
    2.2036    4.7130    5.1154 C   0  0  0  0  0  0  0  0  0  0  0  0
    3.4611    4.2405    4.8443 C   0  0  0  0  0  0  0  0  0  0  0  0
    4.3144    5.2546    5.3499 C   0  0  0  0  0  0  0  0  0  0  0  0
    3.6505    6.2316    5.9433 N   0  0  0  0  0  0  0  0  0  0  0  0
    2.3028    5.8839    5.7999 O   0  0  0  0  0  0  0  0  0  0  0  0
    1.5700    2.8101    2.8037 C   0  0  0  0  0  0  0  0  0  0  0  0
    1.2027    1.4720    2.1217 C   0  0  0  0  0  0  0  0  0  0  0  0
    0.9469   -2.5080    4.5090 H   0  0  0  0  0  0  0  0  0  0  0  0
   -2.1846    1.2927    3.8032 H   0  0  0  0  0  0  0  0  0  0  0  0
   -1.2548    1.8237    5.2124 H   0  0  0  0  0  0  0  0  0  0  0  0
   -0.9789    2.8813    2.3815 H   0  0  0  0  0  0  0  0  0  0  0  0
   -1.5223    3.7170    3.7693 H   0  0  0  0  0  0  0  0  0  0  0  0
    3.7975    3.3236    4.3663 H   0  0  0  0  0  0  0  0  0  0  0  0
    5.3904    5.2731    5.3125 H   0  0  0  0  0  0  0  0  0  0  0  0
    1.8192    3.6142    2.0865 H   0  0  0  0  0  0  0  0  0  0  0  0
    2.4595    2.4930    3.3333 H   0  0  0  0  0  0  0  0  0  0  0  0
    2.1348    1.0805    1.6880 H   0  0  0  0  0  0  0  0  0  0  0  0
    0.4412    1.5314    1.3439 H   0  0  0  0  0  0  0  0  0  0  0  0
    2.1726   -1.0789    2.7685 H   0  0  0  0  0  0  0  0  0  0  0  0
  1  2  2  0
  2  3  1  0
  2  4  1  0
  4  8  1  0
  4  5  2  0
  5  6  1  0
  5 21  1  0
  6  7  2  0
  6 32  1  0
  7 20  1  0
  7  8  1  0
  8  9  1  0
  9 10  1  0
  9 22  1  0
  9 23  1  0
 10 11  1  0
 10 24  1  0
 10 25  1  0
 11 12  1  0
 11 19  1  0
 12 13  2  0
 12 14  1  0
 14 18  1  0
 14 15  2  0
 15 16  1  0
 15 26  1  0
 16 17  2  0
 16 27  1  0
 17 18  1  0
 19 20  1  0
 19 28  1  0
 19 29  1  0
 20 30  1  0
 20 31  1  0
M  CHG  2   3  -1   6   1
M  END
>  <i_m_ct_stereo_status>  (350) 
1

>  <s_m_source_file>  (350) 
/var/tmp/pbs.5076255.sched01/tmpxe1g82q3/12669a6jj4p.sdf

>  <i_m_source_file_index>  (350) 
9

>  <i_lp_mmshare_version>  (350) 
48012

>  <i_f3d_flags>  (350) 
0

>  <s_epik_input>  (350) 
Tz1DKFtPSF0pYyhbY0hdbjEpbihjMTIpW0NIMl1bQ0gyXU4oW0NIMl1bQ0gyXTIpQyg9TyljM1tjSF1bY0hdbm8z

>  <s_epik_cmdline>  (350) 
J2VwaWtfcHl0aG9uJywgJy1waHQnLCAnMi4wJywgJy1waCcsICc3LjAnLCAnLXRuJywgJzgnLCAnLW1hJywgJzIwMCcsICctaW1hZScsICc8aW5maWxlLm1hZT4nLCAnLW9tYWUnLCAnPG91dGZpbGUubWFlPic=

>  <r_epik_Ionization_Penalty>  (350) 
0.0966084

>  <r_epik_Ionization_Penalty_Charging>  (350) 
9.27957e-07

>  <r_epik_Ionization_Penalty_Neutral>  (350) 
0.0966075

>  <r_epik_State_Penalty>  (350) 
0.0867532

>  <r_epik_Charging_Adjusted_Penalty>  (350) 
0.0867542

>  <i_epik_Tot_Q>  (350) 
0

>  <i_epik_Tot_abs_Q>  (350) 
2

>  <s_lp_Force_Field>  (350) 
OPLS3e

>  <r_lp_Energy>  (350) 
23.971

>  <b_lp_Chiralities_Consistent>  (350) 
1

>  <s_lp_Variant>  (350) 
101:0-1

>  <s_i_glide_gridfile>  (350) 
pfpi4k_grid

>  <i_i_glide_lignum>  (350) 
9

>  <i_i_glide_rotatable_bonds>  (350) 
3

>  <r_i_docking_score>  (350) 
-3.39814

>  <r_i_glide_ligand_efficiency>  (350) 
-0.169907

>  <r_i_glide_ligand_efficiency_sa>  (350) 
-0.461198

>  <r_i_glide_ligand_efficiency_ln>  (350) 
-0.850442

>  <r_i_glide_gscore>  (350) 
-3.39814

>  <r_i_glide_lipo>  (350) 
-0.00221486

>  <r_i_glide_hbond>  (350) 
-0.17949

>  <r_i_glide_metal>  (350) 
-0

>  <r_i_glide_rewards>  (350) 
-1.52558

>  <r_i_glide_evdw>  (350) 
-17.7765

>  <r_i_glide_ecoul>  (350) 
-7.1812

>  <r_i_glide_erotb>  (350) 
0.471436

>  <r_i_glide_esite>  (350) 
-0.196282

>  <r_i_glide_emodel>  (350) 
-33.9706

>  <r_i_glide_energy>  (350) 
-24.9577

>  <r_i_glide_einternal>  (350) 
0.24554

>  <r_i_glide_intrahb_reward>  (350) 
-0

>  <i_i_glide_confnum>  (350) 
5

>  <i_i_glide_posenum>  (350) 
1

>  <r_i_glide_eff_state_penalty>  (350) 
0

>  <ligand_id>  (350) 
101

>  <original_smiles>  (350) 
O=C(O)c1cnc2n1CCN(C(=O)c1ccno1)CC2

>  <smiles>  (350) 
[H]c1noc(C(=O)N2C([H])([H])C([H])([H])c3n(c(C(=O)[O-])c([H])[n+]3[H])C([H])([H])C2([H])[H])c1[H]

$$$$
101:0:2
     RDKit          3D

 32 34  0  0  1  0  0  0  0  0999 V2000
    0.4237   -4.0647    8.1641 O   0  0  0  0  0  0  0  0  0  0  0  0
    0.0970   -4.6743    7.1216 C   0  0  0  0  0  0  0  0  0  0  0  0
   -0.5952   -4.1451    6.2229 O   0  0  0  0  0  0  0  0  0  0  0  0
    0.5501   -6.0993    6.9620 C   0  0  0  0  0  0  0  0  0  0  0  0
    1.3927   -6.7331    7.8323 C   0  0  0  0  0  0  0  0  0  0  0  0
    1.5320   -8.0086    7.3494 N   0  0  0  0  0  0  0  0  0  0  0  0
    0.8175   -8.1623    6.2248 C   0  0  0  0  0  0  0  0  0  0  0  0
    0.2152   -6.9819    5.9616 N   0  0  0  0  0  0  0  0  0  0  0  0
   -0.6821   -6.7087    4.8204 C   0  0  0  0  0  0  0  0  0  0  0  0
   -0.7922   -7.7840    3.7256 C   0  0  0  0  0  0  0  0  0  0  0  0
    0.5371   -8.1844    3.2440 N   0  0  0  0  0  0  0  0  0  0  0  0
    1.1317   -7.5155    2.2183 C   0  0  0  0  0  0  0  0  0  0  0  0
    0.6123   -6.5178    1.7039 O   0  0  0  0  0  0  0  0  0  0  0  0
    2.4707   -7.9445    1.7254 C   0  0  0  0  0  0  0  0  0  0  0  0
    2.9169   -9.2291    1.5758 C   0  0  0  0  0  0  0  0  0  0  0  0
    4.2344   -9.0564    1.0767 C   0  0  0  0  0  0  0  0  0  0  0  0
    4.5277   -7.7849    0.8718 N   0  0  0  0  0  0  0  0  0  0  0  0
    3.3875   -7.0623    1.2502 O   0  0  0  0  0  0  0  0  0  0  0  0
    1.1373   -9.3143    3.9827 C   0  0  0  0  0  0  0  0  0  0  0  0
    0.7264   -9.4410    5.4606 C   0  0  0  0  0  0  0  0  0  0  0  0
    1.8752   -6.3762    8.7270 H   0  0  0  0  0  0  0  0  0  0  0  0
   -1.6700   -6.5026    5.2380 H   0  0  0  0  0  0  0  0  0  0  0  0
   -0.3207   -5.7874    4.3592 H   0  0  0  0  0  0  0  0  0  0  0  0
   -1.3769   -8.6423    4.0613 H   0  0  0  0  0  0  0  0  0  0  0  0
   -1.3930   -7.3717    2.9085 H   0  0  0  0  0  0  0  0  0  0  0  0
    2.4207  -10.1590    1.8010 H   0  0  0  0  0  0  0  0  0  0  0  0
    4.9730   -9.8104    0.8516 H   0  0  0  0  0  0  0  0  0  0  0  0
    0.9210  -10.2465    3.4511 H   0  0  0  0  0  0  0  0  0  0  0  0
    2.2189   -9.1932    4.0265 H   0  0  0  0  0  0  0  0  0  0  0  0
    1.3800  -10.1654    5.9502 H   0  0  0  0  0  0  0  0  0  0  0  0
   -0.2914   -9.8117    5.5666 H   0  0  0  0  0  0  0  0  0  0  0  0
    2.0852   -8.7409    7.7728 H   0  0  0  0  0  0  0  0  0  0  0  0
  1  2  2  0
  2  3  1  0
  2  4  1  0
  4  8  1  0
  4  5  2  0
  5  6  1  0
  5 21  1  0
  6  7  2  0
  6 32  1  0
  7 20  1  0
  7  8  1  0
  8  9  1  0
  9 10  1  0
  9 22  1  0
  9 23  1  0
 10 11  1  0
 10 24  1  0
 10 25  1  0
 11 12  1  0
 11 19  1  0
 12 13  2  0
 12 14  1  0
 14 18  1  0
 14 15  2  0
 15 16  1  0
 15 26  1  0
 16 17  2  0
 16 27  1  0
 17 18  1  0
 19 20  1  0
 19 28  1  0
 19 29  1  0
 20 30  1  0
 20 31  1  0
M  CHG  2   3  -1   6   1
M  END
>  <i_m_ct_stereo_status>  (351) 
1

>  <s_m_source_file>  (351) 
/var/tmp/pbs.5076255.sched01/tmpxe1g82q3/12669a6jj4p.sdf

>  <i_m_source_file_index>  (351) 
9

>  <i_lp_mmshare_version>  (351) 
48012

>  <i_f3d_flags>  (351) 
0

>  <s_epik_input>  (351) 
Tz1DKFtPSF0pYyhbY0hdbjEpbihjMTIpW0NIMl1bQ0gyXU4oW0NIMl1bQ0gyXTIpQyg9TyljM1tjSF1bY0hdbm8z

>  <s_epik_cmdline>  (351) 
J2VwaWtfcHl0aG9uJywgJy1waHQnLCAnMi4wJywgJy1waCcsICc3LjAnLCAnLXRuJywgJzgnLCAnLW1hJywgJzIwMCcsICctaW1hZScsICc8aW5maWxlLm1hZT4nLCAnLW9tYWUnLCAnPG91dGZpbGUubWFlPic=

>  <r_epik_Ionization_Penalty>  (351) 
0.0966084

>  <r_epik_Ionization_Penalty_Charging>  (351) 
9.27957e-07

>  <r_epik_Ionization_Penalty_Neutral>  (351) 
0.0966075

>  <r_epik_State_Penalty>  (351) 
0.0867532

>  <r_epik_Charging_Adjusted_Penalty>  (351) 
0.0867542

>  <i_epik_Tot_Q>  (351) 
0

>  <i_epik_Tot_abs_Q>  (351) 
2

>  <s_lp_Force_Field>  (351) 
OPLS3e

>  <r_lp_Energy>  (351) 
23.971

>  <b_lp_Chiralities_Consistent>  (351) 
1

>  <s_lp_Variant>  (351) 
101:0-1

>  <s_i_glide_gridfile>  (351) 
pfpi4k_grid

>  <i_i_glide_lignum>  (351) 
9

>  <i_i_glide_rotatable_bonds>  (351) 
3

>  <r_i_docking_score>  (351) 
-3.0641

>  <r_i_glide_ligand_efficiency>  (351) 
-0.153205

>  <r_i_glide_ligand_efficiency_sa>  (351) 
-0.415863

>  <r_i_glide_ligand_efficiency_ln>  (351) 
-0.766844

>  <r_i_glide_gscore>  (351) 
-3.0641

>  <r_i_glide_lipo>  (351) 
0

>  <r_i_glide_hbond>  (351) 
-0.0872333

>  <r_i_glide_metal>  (351) 
-0

>  <r_i_glide_rewards>  (351) 
-1.52558

>  <r_i_glide_evdw>  (351) 
-21.6779

>  <r_i_glide_ecoul>  (351) 
-4.79123

>  <r_i_glide_erotb>  (351) 
0.471436

>  <r_i_glide_esite>  (351) 
-0.120147

>  <r_i_glide_emodel>  (351) 
-34.8001

>  <r_i_glide_energy>  (351) 
-26.4691

>  <r_i_glide_einternal>  (351) 
0.638512

>  <r_i_glide_intrahb_reward>  (351) 
-0

>  <i_i_glide_confnum>  (351) 
4

>  <i_i_glide_posenum>  (351) 
15

>  <r_i_glide_eff_state_penalty>  (351) 
0

>  <ligand_id>  (351) 
101

>  <original_smiles>  (351) 
O=C(O)c1cnc2n1CCN(C(=O)c1ccno1)CC2

>  <smiles>  (351) 
[H]c1noc(C(=O)N2C([H])([H])C([H])([H])c3n(c(C(=O)[O-])c([H])[n+]3[H])C([H])([H])C2([H])[H])c1[H]

$$$$
101:1:0
     RDKit          3D

 31 33  0  0  1  0  0  0  0  0999 V2000
    2.0872   -7.2149    1.5728 O   0  0  0  0  0  0  0  0  0  0  0  0
    2.2007   -6.0301    1.2370 C   0  0  0  0  0  0  0  0  0  0  0  0
    1.4114   -5.5228    0.4048 O   0  0  0  0  0  0  0  0  0  0  0  0
    3.2867   -5.2257    1.8606 C   0  0  0  0  0  0  0  0  0  0  0  0
    4.2176   -5.5959    2.8081 C   0  0  0  0  0  0  0  0  0  0  0  0
    5.0387   -4.5383    3.1270 N   0  0  0  0  0  0  0  0  0  0  0  0
    4.6010   -3.5300    2.3799 C   0  0  0  0  0  0  0  0  0  0  0  0
    3.5590   -3.8700    1.5792 N   0  0  0  0  0  0  0  0  0  0  0  0
    2.8650   -2.9969    0.6160 C   0  0  0  0  0  0  0  0  0  0  0  0
    3.5332   -1.6427    0.3579 C   0  0  0  0  0  0  0  0  0  0  0  0
    4.9428   -1.8310   -0.0198 N   0  0  0  0  0  0  0  0  0  0  0  0
    5.4354   -2.1529   -1.2497 C   0  0  0  0  0  0  0  0  0  0  0  0
    6.6608   -2.1843   -1.4488 O   0  0  0  0  0  0  0  0  0  0  0  0
    4.5391   -2.4868   -2.4177 C   0  0  0  0  0  0  0  0  0  0  0  0
    3.3306   -1.9332   -2.7743 C   0  0  0  0  0  0  0  0  0  0  0  0
    2.9398   -2.7269   -3.8862 C   0  0  0  0  0  0  0  0  0  0  0  0
    3.9037   -3.5271   -4.3056 N   0  0  0  0  0  0  0  0  0  0  0  0
    4.9415   -3.3785   -3.3764 O   0  0  0  0  0  0  0  0  0  0  0  0
    5.8469   -1.6457    1.1359 C   0  0  0  0  0  0  0  0  0  0  0  0
    5.2121   -2.1550    2.4526 C   0  0  0  0  0  0  0  0  0  0  0  0
    4.3188   -6.5742    3.2738 H   0  0  0  0  0  0  0  0  0  0  0  0
    2.7525   -3.5590   -0.3123 H   0  0  0  0  0  0  0  0  0  0  0  0
    1.8608   -2.8220    0.9880 H   0  0  0  0  0  0  0  0  0  0  0  0
    2.9677   -1.0932   -0.3581 H   0  0  0  0  0  0  0  0  0  0  0  0
    3.4143   -0.9399    1.1858 H   0  0  0  0  0  0  0  0  0  0  0  0
    2.6939   -1.1468   -2.3790 H   0  0  0  0  0  0  0  0  0  0  0  0
    1.9850   -2.6457   -4.3810 H   0  0  0  0  0  0  0  0  0  0  0  0
    6.8046   -2.1818    0.9998 H   0  0  0  0  0  0  0  0  0  0  0  0
    6.1074   -0.5789    1.2273 H   0  0  0  0  0  0  0  0  0  0  0  0
    4.4554   -1.4597    2.8257 H   0  0  0  0  0  0  0  0  0  0  0  0
    5.9825   -2.1945    3.2144 H   0  0  0  0  0  0  0  0  0  0  0  0
  1  2  2  0
  2  3  1  0
  2  4  1  0
  4  8  1  0
  4  5  2  0
  5  6  1  0
  5 21  1  0
  6  7  2  0
  7 20  1  0
  7  8  1  0
  8  9  1  0
  9 10  1  0
  9 22  1  0
  9 23  1  0
 10 11  1  0
 10 24  1  0
 10 25  1  0
 11 12  1  0
 11 19  1  0
 12 13  2  0
 12 14  1  0
 14 18  1  0
 14 15  2  0
 15 16  1  0
 15 26  1  0
 16 17  2  0
 16 27  1  0
 17 18  1  0
 19 20  1  0
 19 28  1  0
 19 29  1  0
 20 30  1  0
 20 31  1  0
M  CHG  1   3  -1
M  END
>  <i_m_ct_stereo_status>  (352) 
1

>  <s_m_source_file>  (352) 
/var/tmp/pbs.5076255.sched01/tmpxe1g82q3/12669a6jj4p.sdf

>  <i_m_source_file_index>  (352) 
10

>  <i_lp_mmshare_version>  (352) 
48012

>  <i_f3d_flags>  (352) 
0

>  <s_epik_input>  (352) 
Tz1DKFtPSF0pYyhbY0hdbjEpbihjMTIpW0NIMl1bQ0gyXU4oW0NIMl1bQ0gyXTIpQyg9TyljM1tjSF1bY0hdbm8z

>  <s_epik_cmdline>  (352) 
J2VwaWtfcHl0aG9uJywgJy1waHQnLCAnMi4wJywgJy1waCcsICc3LjAnLCAnLXRuJywgJzgnLCAnLW1hJywgJzIwMCcsICctaW1hZScsICc8aW5maWxlLm1hZT4nLCAnLW9tYWUnLCAnPG91dGZpbGUubWFlPic=

>  <r_epik_Ionization_Penalty>  (352) 
1.12248

>  <r_epik_Ionization_Penalty_Charging>  (352) 
1.12248

>  <r_epik_Ionization_Penalty_Neutral>  (352) 
2.60775e-12

>  <r_epik_State_Penalty>  (352) 
1.18117

>  <r_epik_Charging_Adjusted_Penalty>  (352) 
2.30364

>  <i_epik_Tot_Q>  (352) 
-1

>  <i_epik_Tot_abs_Q>  (352) 
1

>  <s_lp_Force_Field>  (352) 
OPLS3e

>  <r_lp_Energy>  (352) 
20.978

>  <b_lp_Chiralities_Consistent>  (352) 
1

>  <s_lp_Variant>  (352) 
101:0-2

>  <s_i_glide_gridfile>  (352) 
pfpi4k_grid

>  <i_i_glide_lignum>  (352) 
10

>  <i_i_glide_rotatable_bonds>  (352) 
3

>  <r_i_docking_score>  (352) 
-4.23632

>  <r_i_glide_ligand_efficiency>  (352) 
-0.211816

>  <r_i_glide_ligand_efficiency_sa>  (352) 
-0.574957

>  <r_i_glide_ligand_efficiency_ln>  (352) 
-1.06021

>  <r_i_glide_gscore>  (352) 
-4.23632

>  <r_i_glide_lipo>  (352) 
-0.433137

>  <r_i_glide_hbond>  (352) 
-0.32079

>  <r_i_glide_metal>  (352) 
-0

>  <r_i_glide_rewards>  (352) 
-1.57094

>  <r_i_glide_evdw>  (352) 
-23.1974

>  <r_i_glide_ecoul>  (352) 
-7.49059

>  <r_i_glide_erotb>  (352) 
0.474433

>  <r_i_glide_esite>  (352) 
-0.102425

>  <r_i_glide_emodel>  (352) 
-41.0909

>  <r_i_glide_energy>  (352) 
-30.688

>  <r_i_glide_einternal>  (352) 
0.802576

>  <r_i_glide_intrahb_reward>  (352) 
-0

>  <i_i_glide_confnum>  (352) 
2

>  <i_i_glide_posenum>  (352) 
3

>  <r_i_glide_eff_state_penalty>  (352) 
0

>  <ligand_id>  (352) 
101

>  <original_smiles>  (352) 
O=C(O)c1cnc2n1CCN(C(=O)c1ccno1)CC2

>  <smiles>  (352) 
[H]c1noc(C(=O)N2C([H])([H])C([H])([H])c3nc([H])c(C(=O)[O-])n3C([H])([H])C2([H])[H])c1[H]

$$$$
101:1:1
     RDKit          3D

 31 33  0  0  1  0  0  0  0  0999 V2000
    0.6311   -5.8774    0.3687 O   0  0  0  0  0  0  0  0  0  0  0  0
    0.5306   -6.6528    1.3469 C   0  0  0  0  0  0  0  0  0  0  0  0
   -0.5147   -6.6931    2.0323 O   0  0  0  0  0  0  0  0  0  0  0  0
    1.7014   -7.5060    1.6446 C   0  0  0  0  0  0  0  0  0  0  0  0
    3.0143   -7.3011    1.2873 C   0  0  0  0  0  0  0  0  0  0  0  0
    3.8065   -8.3488    1.7289 N   0  0  0  0  0  0  0  0  0  0  0  0
    2.9535   -9.1778    2.3163 C   0  0  0  0  0  0  0  0  0  0  0  0
    1.6746   -8.7154    2.3536 N   0  0  0  0  0  0  0  0  0  0  0  0
    0.4978   -9.3579    2.9479 C   0  0  0  0  0  0  0  0  0  0  0  0
    0.7659  -10.5048    3.9488 C   0  0  0  0  0  0  0  0  0  0  0  0
    1.8638  -10.2031    4.8807 N   0  0  0  0  0  0  0  0  0  0  0  0
    1.6460   -9.5608    6.0624 C   0  0  0  0  0  0  0  0  0  0  0  0
    0.5427   -9.1037    6.3695 O   0  0  0  0  0  0  0  0  0  0  0  0
    2.7953   -9.3534    6.9943 C   0  0  0  0  0  0  0  0  0  0  0  0
    3.7793  -10.2514    7.3095 C   0  0  0  0  0  0  0  0  0  0  0  0
    4.5970   -9.5367    8.2237 C   0  0  0  0  0  0  0  0  0  0  0  0
    4.1241   -8.3272    8.4687 N   0  0  0  0  0  0  0  0  0  0  0  0
    2.9459   -8.2163    7.7165 O   0  0  0  0  0  0  0  0  0  0  0  0
    3.1951  -10.6181    4.4008 C   0  0  0  0  0  0  0  0  0  0  0  0
    3.3986  -10.4905    2.8848 C   0  0  0  0  0  0  0  0  0  0  0  0
    3.4413   -6.4830    0.7394 H   0  0  0  0  0  0  0  0  0  0  0  0
   -0.0663   -8.5997    3.4887 H   0  0  0  0  0  0  0  0  0  0  0  0
   -0.1451   -9.7141    2.1399 H   0  0  0  0  0  0  0  0  0  0  0  0
   -0.1591  -10.7005    4.4967 H   0  0  0  0  0  0  0  0  0  0  0  0
    0.9573  -11.4410    3.4236 H   0  0  0  0  0  0  0  0  0  0  0  0
    3.9101  -11.2529    6.9342 H   0  0  0  0  0  0  0  0  0  0  0  0
    5.5145   -9.8490    8.6946 H   0  0  0  0  0  0  0  0  0  0  0  0
    3.9692   -9.9741    4.8192 H   0  0  0  0  0  0  0  0  0  0  0  0
    3.3820  -11.6451    4.7258 H   0  0  0  0  0  0  0  0  0  0  0  0
    2.9194  -11.3145    2.3527 H   0  0  0  0  0  0  0  0  0  0  0  0
    4.4703  -10.5926    2.7037 H   0  0  0  0  0  0  0  0  0  0  0  0
  1  2  2  0
  2  3  1  0
  2  4  1  0
  4  8  1  0
  4  5  2  0
  5  6  1  0
  5 21  1  0
  6  7  2  0
  7 20  1  0
  7  8  1  0
  8  9  1  0
  9 10  1  0
  9 22  1  0
  9 23  1  0
 10 11  1  0
 10 24  1  0
 10 25  1  0
 11 12  1  0
 11 19  1  0
 12 13  2  0
 12 14  1  0
 14 18  1  0
 14 15  2  0
 15 16  1  0
 15 26  1  0
 16 17  2  0
 16 27  1  0
 17 18  1  0
 19 20  1  0
 19 28  1  0
 19 29  1  0
 20 30  1  0
 20 31  1  0
M  CHG  1   3  -1
M  END
>  <i_m_ct_stereo_status>  (353) 
1

>  <s_m_source_file>  (353) 
/var/tmp/pbs.5076255.sched01/tmpxe1g82q3/12669a6jj4p.sdf

>  <i_m_source_file_index>  (353) 
10

>  <i_lp_mmshare_version>  (353) 
48012

>  <i_f3d_flags>  (353) 
0

>  <s_epik_input>  (353) 
Tz1DKFtPSF0pYyhbY0hdbjEpbihjMTIpW0NIMl1bQ0gyXU4oW0NIMl1bQ0gyXTIpQyg9TyljM1tjSF1bY0hdbm8z

>  <s_epik_cmdline>  (353) 
J2VwaWtfcHl0aG9uJywgJy1waHQnLCAnMi4wJywgJy1waCcsICc3LjAnLCAnLXRuJywgJzgnLCAnLW1hJywgJzIwMCcsICctaW1hZScsICc8aW5maWxlLm1hZT4nLCAnLW9tYWUnLCAnPG91dGZpbGUubWFlPic=

>  <r_epik_Ionization_Penalty>  (353) 
1.12248

>  <r_epik_Ionization_Penalty_Charging>  (353) 
1.12248

>  <r_epik_Ionization_Penalty_Neutral>  (353) 
2.60775e-12

>  <r_epik_State_Penalty>  (353) 
1.18117

>  <r_epik_Charging_Adjusted_Penalty>  (353) 
2.30364

>  <i_epik_Tot_Q>  (353) 
-1

>  <i_epik_Tot_abs_Q>  (353) 
1

>  <s_lp_Force_Field>  (353) 
OPLS3e

>  <r_lp_Energy>  (353) 
20.978

>  <b_lp_Chiralities_Consistent>  (353) 
1

>  <s_lp_Variant>  (353) 
101:0-2

>  <s_i_glide_gridfile>  (353) 
pfpi4k_grid

>  <i_i_glide_lignum>  (353) 
10

>  <i_i_glide_rotatable_bonds>  (353) 
3

>  <r_i_docking_score>  (353) 
-4.14115

>  <r_i_glide_ligand_efficiency>  (353) 
-0.207057

>  <r_i_glide_ligand_efficiency_sa>  (353) 
-0.56204

>  <r_i_glide_ligand_efficiency_ln>  (353) 
-1.03639

>  <r_i_glide_gscore>  (353) 
-4.14115

>  <r_i_glide_lipo>  (353) 
-0.0530607

>  <r_i_glide_hbond>  (353) 
-0.40036

>  <r_i_glide_metal>  (353) 
-0

>  <r_i_glide_rewards>  (353) 
-1.53245

>  <r_i_glide_evdw>  (353) 
-17.0072

>  <r_i_glide_ecoul>  (353) 
-10.3138

>  <r_i_glide_erotb>  (353) 
0.474433

>  <r_i_glide_esite>  (353) 
-0.232272

>  <r_i_glide_emodel>  (353) 
-36.0865

>  <r_i_glide_energy>  (353) 
-27.321

>  <r_i_glide_einternal>  (353) 
3.63949

>  <r_i_glide_intrahb_reward>  (353) 
-0

>  <i_i_glide_confnum>  (353) 
4

>  <i_i_glide_posenum>  (353) 
40

>  <r_i_glide_eff_state_penalty>  (353) 
0

>  <ligand_id>  (353) 
101

>  <original_smiles>  (353) 
O=C(O)c1cnc2n1CCN(C(=O)c1ccno1)CC2

>  <smiles>  (353) 
[H]c1noc(C(=O)N2C([H])([H])C([H])([H])c3nc([H])c(C(=O)[O-])n3C([H])([H])C2([H])[H])c1[H]

$$$$
101:1:2
     RDKit          3D

 31 33  0  0  1  0  0  0  0  0999 V2000
    3.5080   -4.8708    0.4044 O   0  0  0  0  0  0  0  0  0  0  0  0
    2.5731   -5.6764    0.6001 C   0  0  0  0  0  0  0  0  0  0  0  0
    1.4110   -5.4642    0.1896 O   0  0  0  0  0  0  0  0  0  0  0  0
    2.8890   -6.9217    1.3350 C   0  0  0  0  0  0  0  0  0  0  0  0
    4.1188   -7.4331    1.6845 C   0  0  0  0  0  0  0  0  0  0  0  0
    3.9679   -8.6416    2.3444 N   0  0  0  0  0  0  0  0  0  0  0  0
    2.6552   -8.8498    2.3586 C   0  0  0  0  0  0  0  0  0  0  0  0
    1.9377   -7.8337    1.8172 N   0  0  0  0  0  0  0  0  0  0  0  0
    0.4762   -7.6962    1.7258 C   0  0  0  0  0  0  0  0  0  0  0  0
   -0.3695   -8.6390    2.6086 C   0  0  0  0  0  0  0  0  0  0  0  0
    0.1709   -8.7597    3.9718 N   0  0  0  0  0  0  0  0  0  0  0  0
   -0.1964   -7.9034    4.9522 C   0  0  0  0  0  0  0  0  0  0  0  0
   -0.8819   -6.8992    4.7173 O   0  0  0  0  0  0  0  0  0  0  0  0
    0.2197   -8.1711    6.3678 C   0  0  0  0  0  0  0  0  0  0  0  0
    0.2803   -9.3920    6.9795 C   0  0  0  0  0  0  0  0  0  0  0  0
    0.7189   -9.0852    8.2983 C   0  0  0  0  0  0  0  0  0  0  0  0
    0.8161   -7.7819    8.4908 N   0  0  0  0  0  0  0  0  0  0  0  0
    0.4806   -7.1849    7.2651 O   0  0  0  0  0  0  0  0  0  0  0  0
    1.1478   -9.8468    4.1505 C   0  0  0  0  0  0  0  0  0  0  0  0
    2.0567  -10.0880    2.9446 C   0  0  0  0  0  0  0  0  0  0  0  0
    5.1013   -7.0251    1.4858 H   0  0  0  0  0  0  0  0  0  0  0  0
    0.2124   -6.6742    1.9986 H   0  0  0  0  0  0  0  0  0  0  0  0
    0.1818   -7.8268    0.6839 H   0  0  0  0  0  0  0  0  0  0  0  0
   -1.4041   -8.2776    2.6314 H   0  0  0  0  0  0  0  0  0  0  0  0
   -0.4521   -9.6225    2.1497 H   0  0  0  0  0  0  0  0  0  0  0  0
    0.0818  -10.3701    6.5691 H   0  0  0  0  0  0  0  0  0  0  0  0
    0.9654   -9.7599    9.1024 H   0  0  0  0  0  0  0  0  0  0  0  0
    1.8448   -9.5953    4.9487 H   0  0  0  0  0  0  0  0  0  0  0  0
    0.6167  -10.7599    4.4308 H   0  0  0  0  0  0  0  0  0  0  0  0
    1.5354  -10.6472    2.1698 H   0  0  0  0  0  0  0  0  0  0  0  0
    2.8737  -10.7131    3.2987 H   0  0  0  0  0  0  0  0  0  0  0  0
  1  2  2  0
  2  3  1  0
  2  4  1  0
  4  8  1  0
  4  5  2  0
  5  6  1  0
  5 21  1  0
  6  7  2  0
  7 20  1  0
  7  8  1  0
  8  9  1  0
  9 10  1  0
  9 22  1  0
  9 23  1  0
 10 11  1  0
 10 24  1  0
 10 25  1  0
 11 12  1  0
 11 19  1  0
 12 13  2  0
 12 14  1  0
 14 18  1  0
 14 15  2  0
 15 16  1  0
 15 26  1  0
 16 17  2  0
 16 27  1  0
 17 18  1  0
 19 20  1  0
 19 28  1  0
 19 29  1  0
 20 30  1  0
 20 31  1  0
M  CHG  1   3  -1
M  END
>  <i_m_ct_stereo_status>  (354) 
1

>  <s_m_source_file>  (354) 
/var/tmp/pbs.5076255.sched01/tmpxe1g82q3/12669a6jj4p.sdf

>  <i_m_source_file_index>  (354) 
10

>  <i_lp_mmshare_version>  (354) 
48012

>  <i_f3d_flags>  (354) 
0

>  <s_epik_input>  (354) 
Tz1DKFtPSF0pYyhbY0hdbjEpbihjMTIpW0NIMl1bQ0gyXU4oW0NIMl1bQ0gyXTIpQyg9TyljM1tjSF1bY0hdbm8z

>  <s_epik_cmdline>  (354) 
J2VwaWtfcHl0aG9uJywgJy1waHQnLCAnMi4wJywgJy1waCcsICc3LjAnLCAnLXRuJywgJzgnLCAnLW1hJywgJzIwMCcsICctaW1hZScsICc8aW5maWxlLm1hZT4nLCAnLW9tYWUnLCAnPG91dGZpbGUubWFlPic=

>  <r_epik_Ionization_Penalty>  (354) 
1.12248

>  <r_epik_Ionization_Penalty_Charging>  (354) 
1.12248

>  <r_epik_Ionization_Penalty_Neutral>  (354) 
2.60775e-12

>  <r_epik_State_Penalty>  (354) 
1.18117

>  <r_epik_Charging_Adjusted_Penalty>  (354) 
2.30364

>  <i_epik_Tot_Q>  (354) 
-1

>  <i_epik_Tot_abs_Q>  (354) 
1

>  <s_lp_Force_Field>  (354) 
OPLS3e

>  <r_lp_Energy>  (354) 
20.978

>  <b_lp_Chiralities_Consistent>  (354) 
1

>  <s_lp_Variant>  (354) 
101:0-2

>  <s_i_glide_gridfile>  (354) 
pfpi4k_grid

>  <i_i_glide_lignum>  (354) 
10

>  <i_i_glide_rotatable_bonds>  (354) 
3

>  <r_i_docking_score>  (354) 
-3.25435

>  <r_i_glide_ligand_efficiency>  (354) 
-0.162717

>  <r_i_glide_ligand_efficiency_sa>  (354) 
-0.441683

>  <r_i_glide_ligand_efficiency_ln>  (354) 
-0.814456

>  <r_i_glide_gscore>  (354) 
-3.25435

>  <r_i_glide_lipo>  (354) 
-0.136331

>  <r_i_glide_hbond>  (354) 
-0.148726

>  <r_i_glide_metal>  (354) 
-0

>  <r_i_glide_rewards>  (354) 
-1.53245

>  <r_i_glide_evdw>  (354) 
-21.978

>  <r_i_glide_ecoul>  (354) 
-4.20769

>  <r_i_glide_erotb>  (354) 
0.474433

>  <r_i_glide_esite>  (354) 
-0.181215

>  <r_i_glide_emodel>  (354) 
-33.487

>  <r_i_glide_energy>  (354) 
-26.1857

>  <r_i_glide_einternal>  (354) 
2.55606

>  <r_i_glide_intrahb_reward>  (354) 
-0

>  <i_i_glide_confnum>  (354) 
1

>  <i_i_glide_posenum>  (354) 
22

>  <r_i_glide_eff_state_penalty>  (354) 
0

>  <ligand_id>  (354) 
101

>  <original_smiles>  (354) 
O=C(O)c1cnc2n1CCN(C(=O)c1ccno1)CC2

>  <smiles>  (354) 
[H]c1noc(C(=O)N2C([H])([H])C([H])([H])c3nc([H])c(C(=O)[O-])n3C([H])([H])C2([H])[H])c1[H]

$$$$
102:0:0
     RDKit          3D

 42 45  0  0  1  0  0  0  0  0999 V2000
    7.4689   -2.2544   -1.1385 O   0  0  0  0  0  0  0  0  0  0  0  0
    6.7225   -2.3157   -0.1646 C   0  0  0  0  0  0  0  0  0  0  0  0
    7.1145   -3.1803    1.0371 C   0  0  0  0  0  0  0  0  0  0  0  0
    6.7602   -4.9542    0.8281 S   0  0  0  0  0  0  0  0  0  0  0  0
    5.0083   -5.1564    0.8858 C   0  0  0  0  0  0  0  0  0  0  0  0
    4.2610   -4.0761    0.6153 N   0  0  0  0  0  0  0  0  0  0  0  0
    2.9374   -4.2271    0.6391 C   0  0  0  0  0  0  0  0  0  0  0  0
    2.2610   -5.3328    0.9549 N   0  0  0  0  0  0  0  0  0  0  0  0
    3.0168   -6.4008    1.2590 C   0  0  0  0  0  0  0  0  0  0  0  0
    4.3990   -6.3710    1.2165 C   0  0  0  0  0  0  0  0  0  0  0  0
    4.9906   -7.6803    1.6019 C   0  0  0  0  0  0  0  0  0  0  0  0
    3.7140   -8.5486    1.7094 C   0  0  0  0  0  0  0  0  0  0  0  0
    2.5462   -7.6471    1.6766 N   0  0  0  0  0  0  0  0  0  0  0  0
    1.2557   -8.0373    2.0701 C   0  0  0  0  0  0  0  0  0  0  0  0
    0.9973   -9.3409    2.5377 C   0  0  0  0  0  0  0  0  0  0  0  0
   -0.3248   -9.6233    2.9128 C   0  0  0  0  0  0  0  0  0  0  0  0
   -1.3053   -8.7007    2.8361 N   0  0  0  0  0  0  0  0  0  0  0  0
   -0.9502   -7.5025    2.3900 C   0  0  0  0  0  0  0  0  0  0  0  0
    0.2607   -7.1232    2.0110 N   0  0  0  0  0  0  0  0  0  0  0  0
    5.5314   -1.7030   -0.0968 N   0  0  0  0  0  0  0  0  0  0  0  0
    4.7982   -1.0272   -1.1658 C   0  0  0  0  0  0  0  0  0  0  0  0
    4.3069   -1.9334   -2.2602 C   0  0  0  0  0  0  0  0  0  0  0  0
    3.1124   -2.0345   -2.9281 C   0  0  0  0  0  0  0  0  0  0  0  0
    3.2727   -3.0535   -3.9106 C   0  0  0  0  0  0  0  0  0  0  0  0
    4.5553   -3.5007   -3.7702 C   0  0  0  0  0  0  0  0  0  0  0  0
    5.1985   -2.8227   -2.7818 O   0  0  0  0  0  0  0  0  0  0  0  0
    8.1902   -3.0798    1.1726 H   0  0  0  0  0  0  0  0  0  0  0  0
    6.6250   -2.8263    1.9474 H   0  0  0  0  0  0  0  0  0  0  0  0
    2.3565   -3.3479    0.4118 H   0  0  0  0  0  0  0  0  0  0  0  0
    5.7059   -8.0434    0.8729 H   0  0  0  0  0  0  0  0  0  0  0  0
    5.4873   -7.5715    2.5611 H   0  0  0  0  0  0  0  0  0  0  0  0
    3.6501   -9.1997    0.8315 H   0  0  0  0  0  0  0  0  0  0  0  0
    3.7487   -9.1804    2.6010 H   0  0  0  0  0  0  0  0  0  0  0  0
    1.7648  -10.0951    2.5976 H   0  0  0  0  0  0  0  0  0  0  0  0
   -0.5887  -10.6020    3.2830 H   0  0  0  0  0  0  0  0  0  0  0  0
   -1.7181   -6.7422    2.3304 H   0  0  0  0  0  0  0  0  0  0  0  0
    4.9642   -1.9758    0.6993 H   0  0  0  0  0  0  0  0  0  0  0  0
    3.9308   -0.5511   -0.7003 H   0  0  0  0  0  0  0  0  0  0  0  0
    5.4186   -0.2427   -1.5861 H   0  0  0  0  0  0  0  0  0  0  0  0
    2.2327   -1.4424   -2.7270 H   0  0  0  0  0  0  0  0  0  0  0  0
    2.5438   -3.4170   -4.6212 H   0  0  0  0  0  0  0  0  0  0  0  0
    5.1399   -4.2622   -4.2626 H   0  0  0  0  0  0  0  0  0  0  0  0
  1  2  2  0
  2  3  1  0
  2 20  1  0
  3  4  1  0
  3 27  1  0
  3 28  1  0
  4  5  1  0
  5 10  1  0
  5  6  2  0
  6  7  1  0
  7  8  2  0
  7 29  1  0
  8  9  1  0
  9 13  1  0
  9 10  2  0
 10 11  1  0
 11 12  1  0
 11 30  1  0
 11 31  1  0
 12 13  1  0
 12 32  1  0
 12 33  1  0
 13 14  1  0
 14 19  1  0
 14 15  2  0
 15 16  1  0
 15 34  1  0
 16 17  2  0
 16 35  1  0
 17 18  1  0
 18 19  2  0
 18 36  1  0
 20 21  1  0
 20 37  1  0
 21 22  1  0
 21 38  1  0
 21 39  1  0
 22 26  1  0
 22 23  2  0
 23 24  1  0
 23 40  1  0
 24 25  2  0
 24 41  1  0
 25 26  1  0
 25 42  1  0
M  END
>  <i_m_ct_stereo_status>  (355) 
1

>  <s_m_source_file>  (355) 
/var/tmp/pbs.5076255.sched01/tmpxe1g82q3/12669a6jj4p.sdf

>  <i_m_source_file_index>  (355) 
11

>  <i_lp_mmshare_version>  (355) 
48012

>  <i_f3d_flags>  (355) 
0

>  <s_epik_input>  (355) 
bzFbY0hdW2NIXVtjSF1jMVtDSDJdW05IXUMoPU8pW0NIMl1TYyhuW2NIXW4yKWMoYzIzKVtDSDJdW0NIMl1OM2M0W2NIXVtjSF1uW2NIXW40

>  <s_epik_cmdline>  (355) 
J2VwaWtfcHl0aG9uJywgJy1waHQnLCAnMi4wJywgJy1waCcsICc3LjAnLCAnLXRuJywgJzgnLCAnLW1hJywgJzIwMCcsICctaW1hZScsICc8aW5maWxlLm1hZT4nLCAnLW9tYWUnLCAnPG91dGZpbGUubWFlPic=

>  <r_lp_tautomer_probability>  (355) 
1

>  <r_epik_Ionization_Penalty>  (355) 
5.20245e-05

>  <r_epik_Ionization_Penalty_Charging>  (355) 
0

>  <r_epik_Ionization_Penalty_Neutral>  (355) 
5.20245e-05

>  <r_epik_State_Penalty>  (355) 
-0

>  <r_epik_Charging_Adjusted_Penalty>  (355) 
0

>  <i_epik_Tot_Q>  (355) 
0

>  <i_epik_Tot_abs_Q>  (355) 
0

>  <s_lp_Force_Field>  (355) 
OPLS3e

>  <r_lp_Energy>  (355) 
35.5073

>  <b_lp_Chiralities_Consistent>  (355) 
1

>  <s_lp_Variant>  (355) 
102:0-1

>  <s_i_glide_gridfile>  (355) 
pfpi4k_grid

>  <i_i_glide_lignum>  (355) 
11

>  <i_i_glide_rotatable_bonds>  (355) 
7

>  <r_i_docking_score>  (355) 
-3.77253

>  <r_i_glide_ligand_efficiency>  (355) 
-0.145097

>  <r_i_glide_ligand_efficiency_sa>  (355) 
-0.429851

>  <r_i_glide_ligand_efficiency_ln>  (355) 
-0.885967

>  <r_i_glide_gscore>  (355) 
-3.77253

>  <r_i_glide_lipo>  (355) 
-0.688222

>  <r_i_glide_hbond>  (355) 
-0.160382

>  <r_i_glide_metal>  (355) 
-0

>  <r_i_glide_rewards>  (355) 
-0.897178

>  <r_i_glide_evdw>  (355) 
-39.3195

>  <r_i_glide_ecoul>  (355) 
-5.23121

>  <r_i_glide_erotb>  (355) 
0.851827

>  <r_i_glide_esite>  (355) 
-0.127922

>  <r_i_glide_emodel>  (355) 
-54.5392

>  <r_i_glide_energy>  (355) 
-44.5507

>  <r_i_glide_einternal>  (355) 
1.39909

>  <r_i_glide_intrahb_reward>  (355) 
-0

>  <i_i_glide_confnum>  (355) 
2

>  <i_i_glide_posenum>  (355) 
1

>  <r_i_glide_eff_state_penalty>  (355) 
0

>  <ligand_id>  (355) 
102

>  <original_smiles>  (355) 
O=C(CSc1ncnc2c1CCN2c1ccncn1)NCc1ccco1

>  <smiles>  (355) 
[H]c1nc([H])c([H])c(N2c3nc([H])nc(SC([H])([H])C(=O)N([H])C([H])([H])c4oc([H])c([H])c4[H])c3C([H])([H])C2([H])[H])n1

$$$$
102:0:1
     RDKit          3D

 42 45  0  0  1  0  0  0  0  0999 V2000
    0.5586   -6.6926    6.1902 O   0  0  0  0  0  0  0  0  0  0  0  0
    1.6466   -7.2135    5.9400 C   0  0  0  0  0  0  0  0  0  0  0  0
    2.9224   -6.3798    6.0507 C   0  0  0  0  0  0  0  0  0  0  0  0
    2.7989   -4.8015    5.1505 S   0  0  0  0  0  0  0  0  0  0  0  0
    3.1629   -5.1422    3.4547 C   0  0  0  0  0  0  0  0  0  0  0  0
    3.5750   -6.3893    3.1412 N   0  0  0  0  0  0  0  0  0  0  0  0
    3.9127   -6.6121    1.8630 C   0  0  0  0  0  0  0  0  0  0  0  0
    3.8786   -5.7331    0.8563 N   0  0  0  0  0  0  0  0  0  0  0  0
    3.4543   -4.5002    1.1802 C   0  0  0  0  0  0  0  0  0  0  0  0
    3.0746   -4.1569    2.4656 C   0  0  0  0  0  0  0  0  0  0  0  0
    2.6489   -2.7319    2.5469 C   0  0  0  0  0  0  0  0  0  0  0  0
    2.6550   -2.3362    1.0470 C   0  0  0  0  0  0  0  0  0  0  0  0
    3.2803   -3.4376    0.2943 N   0  0  0  0  0  0  0  0  0  0  0  0
    3.8087   -3.2441   -0.9900 C   0  0  0  0  0  0  0  0  0  0  0  0
    3.0357   -2.6547   -2.0064 C   0  0  0  0  0  0  0  0  0  0  0  0
    3.6328   -2.5305   -3.2689 C   0  0  0  0  0  0  0  0  0  0  0  0
    4.8972   -2.9355   -3.4965 N   0  0  0  0  0  0  0  0  0  0  0  0
    5.5489   -3.4566   -2.4599 C   0  0  0  0  0  0  0  0  0  0  0  0
    5.0828   -3.6228   -1.2199 N   0  0  0  0  0  0  0  0  0  0  0  0
    1.7927   -8.4956    5.5662 N   0  0  0  0  0  0  0  0  0  0  0  0
    0.7144   -9.4526    5.3341 C   0  0  0  0  0  0  0  0  0  0  0  0
   -0.1756   -9.0597    4.1955 C   0  0  0  0  0  0  0  0  0  0  0  0
   -0.2868   -9.4754    2.8972 C   0  0  0  0  0  0  0  0  0  0  0  0
   -1.3396   -8.7103    2.3229 C   0  0  0  0  0  0  0  0  0  0  0  0
   -1.7877   -7.8845    3.3120 C   0  0  0  0  0  0  0  0  0  0  0  0
   -1.1091   -8.1041    4.4667 O   0  0  0  0  0  0  0  0  0  0  0  0
    3.0788   -6.1595    7.1055 H   0  0  0  0  0  0  0  0  0  0  0  0
    3.7953   -6.9406    5.7112 H   0  0  0  0  0  0  0  0  0  0  0  0
    4.2580   -7.6050    1.6265 H   0  0  0  0  0  0  0  0  0  0  0  0
    1.6722   -2.6185    3.0123 H   0  0  0  0  0  0  0  0  0  0  0  0
    3.3881   -2.1724    3.1160 H   0  0  0  0  0  0  0  0  0  0  0  0
    1.6267   -2.2494    0.7089 H   0  0  0  0  0  0  0  0  0  0  0  0
    3.1357   -1.3707    0.8775 H   0  0  0  0  0  0  0  0  0  0  0  0
    2.0204   -2.3401   -1.8455 H   0  0  0  0  0  0  0  0  0  0  0  0
    3.0925   -2.1073   -4.1040 H   0  0  0  0  0  0  0  0  0  0  0  0
    6.5683   -3.7667   -2.6455 H   0  0  0  0  0  0  0  0  0  0  0  0
    2.7298   -8.8416    5.4262 H   0  0  0  0  0  0  0  0  0  0  0  0
    1.1668  -10.4242    5.1172 H   0  0  0  0  0  0  0  0  0  0  0  0
    0.1305   -9.5838    6.2460 H   0  0  0  0  0  0  0  0  0  0  0  0
    0.3113  -10.2464    2.4312 H   0  0  0  0  0  0  0  0  0  0  0  0
   -1.7171   -8.7633    1.3129 H   0  0  0  0  0  0  0  0  0  0  0  0
   -2.5569   -7.1321    3.3792 H   0  0  0  0  0  0  0  0  0  0  0  0
  1  2  2  0
  2  3  1  0
  2 20  1  0
  3  4  1  0
  3 27  1  0
  3 28  1  0
  4  5  1  0
  5 10  1  0
  5  6  2  0
  6  7  1  0
  7  8  2  0
  7 29  1  0
  8  9  1  0
  9 13  1  0
  9 10  2  0
 10 11  1  0
 11 12  1  0
 11 30  1  0
 11 31  1  0
 12 13  1  0
 12 32  1  0
 12 33  1  0
 13 14  1  0
 14 19  1  0
 14 15  2  0
 15 16  1  0
 15 34  1  0
 16 17  2  0
 16 35  1  0
 17 18  1  0
 18 19  2  0
 18 36  1  0
 20 21  1  0
 20 37  1  0
 21 22  1  0
 21 38  1  0
 21 39  1  0
 22 26  1  0
 22 23  2  0
 23 24  1  0
 23 40  1  0
 24 25  2  0
 24 41  1  0
 25 26  1  0
 25 42  1  0
M  END
>  <i_m_ct_stereo_status>  (356) 
1

>  <s_m_source_file>  (356) 
/var/tmp/pbs.5076255.sched01/tmpxe1g82q3/12669a6jj4p.sdf

>  <i_m_source_file_index>  (356) 
11

>  <i_lp_mmshare_version>  (356) 
48012

>  <i_f3d_flags>  (356) 
0

>  <s_epik_input>  (356) 
bzFbY0hdW2NIXVtjSF1jMVtDSDJdW05IXUMoPU8pW0NIMl1TYyhuW2NIXW4yKWMoYzIzKVtDSDJdW0NIMl1OM2M0W2NIXVtjSF1uW2NIXW40

>  <s_epik_cmdline>  (356) 
J2VwaWtfcHl0aG9uJywgJy1waHQnLCAnMi4wJywgJy1waCcsICc3LjAnLCAnLXRuJywgJzgnLCAnLW1hJywgJzIwMCcsICctaW1hZScsICc8aW5maWxlLm1hZT4nLCAnLW9tYWUnLCAnPG91dGZpbGUubWFlPic=

>  <r_lp_tautomer_probability>  (356) 
1

>  <r_epik_Ionization_Penalty>  (356) 
5.20245e-05

>  <r_epik_Ionization_Penalty_Charging>  (356) 
0

>  <r_epik_Ionization_Penalty_Neutral>  (356) 
5.20245e-05

>  <r_epik_State_Penalty>  (356) 
-0

>  <r_epik_Charging_Adjusted_Penalty>  (356) 
0

>  <i_epik_Tot_Q>  (356) 
0

>  <i_epik_Tot_abs_Q>  (356) 
0

>  <s_lp_Force_Field>  (356) 
OPLS3e

>  <r_lp_Energy>  (356) 
35.5073

>  <b_lp_Chiralities_Consistent>  (356) 
1

>  <s_lp_Variant>  (356) 
102:0-1

>  <s_i_glide_gridfile>  (356) 
pfpi4k_grid

>  <i_i_glide_lignum>  (356) 
11

>  <i_i_glide_rotatable_bonds>  (356) 
7

>  <r_i_docking_score>  (356) 
-2.71596

>  <r_i_glide_ligand_efficiency>  (356) 
-0.10446

>  <r_i_glide_ligand_efficiency_sa>  (356) 
-0.309462

>  <r_i_glide_ligand_efficiency_ln>  (356) 
-0.637834

>  <r_i_glide_gscore>  (356) 
-2.71596

>  <r_i_glide_lipo>  (356) 
-0.262774

>  <r_i_glide_hbond>  (356) 
0

>  <r_i_glide_metal>  (356) 
-0

>  <r_i_glide_rewards>  (356) 
-1.23984

>  <r_i_glide_evdw>  (356) 
-30.1956

>  <r_i_glide_ecoul>  (356) 
-3.53891

>  <r_i_glide_erotb>  (356) 
0.851827

>  <r_i_glide_esite>  (356) 
-0.0245581

>  <r_i_glide_emodel>  (356) 
-39.0401

>  <r_i_glide_energy>  (356) 
-33.7345

>  <r_i_glide_einternal>  (356) 
4.80373

>  <r_i_glide_intrahb_reward>  (356) 
-0

>  <i_i_glide_confnum>  (356) 
2

>  <i_i_glide_posenum>  (356) 
16

>  <r_i_glide_eff_state_penalty>  (356) 
0

>  <ligand_id>  (356) 
102

>  <original_smiles>  (356) 
O=C(CSc1ncnc2c1CCN2c1ccncn1)NCc1ccco1

>  <smiles>  (356) 
[H]c1nc([H])c([H])c(N2c3nc([H])nc(SC([H])([H])C(=O)N([H])C([H])([H])c4oc([H])c([H])c4[H])c3C([H])([H])C2([H])[H])n1

$$$$
102:0:2
     RDKit          3D

 42 45  0  0  1  0  0  0  0  0999 V2000
    3.2455   -9.1664    4.5199 O   0  0  0  0  0  0  0  0  0  0  0  0
    3.3406   -9.9700    3.5913 C   0  0  0  0  0  0  0  0  0  0  0  0
    4.5900   -9.9979    2.7039 C   0  0  0  0  0  0  0  0  0  0  0  0
    5.5271   -8.4364    2.6498 S   0  0  0  0  0  0  0  0  0  0  0  0
    4.4854   -7.2468    1.8581 C   0  0  0  0  0  0  0  0  0  0  0  0
    3.1557   -7.4653    1.8661 N   0  0  0  0  0  0  0  0  0  0  0  0
    2.3824   -6.5512    1.2782 C   0  0  0  0  0  0  0  0  0  0  0  0
    2.7886   -5.4458    0.6482 N   0  0  0  0  0  0  0  0  0  0  0  0
    4.1203   -5.2466    0.6260 C   0  0  0  0  0  0  0  0  0  0  0  0
    5.0087   -6.1075    1.2398 C   0  0  0  0  0  0  0  0  0  0  0  0
    6.4160   -5.6508    1.0944 C   0  0  0  0  0  0  0  0  0  0  0  0
    6.2044   -4.2784    0.4126 C   0  0  0  0  0  0  0  0  0  0  0  0
    4.7899   -4.1792    0.0138 N   0  0  0  0  0  0  0  0  0  0  0  0
    4.3324   -3.2495   -0.9380 C   0  0  0  0  0  0  0  0  0  0  0  0
    5.1430   -2.1820   -1.3750 C   0  0  0  0  0  0  0  0  0  0  0  0
    4.5751   -1.3179   -2.3286 C   0  0  0  0  0  0  0  0  0  0  0  0
    3.3468   -1.5170   -2.8373 N   0  0  0  0  0  0  0  0  0  0  0  0
    2.6615   -2.5569   -2.3555 C   0  0  0  0  0  0  0  0  0  0  0  0
    3.0922   -3.4143   -1.4367 N   0  0  0  0  0  0  0  0  0  0  0  0
    2.3738  -10.8472    3.2808 N   0  0  0  0  0  0  0  0  0  0  0  0
    1.0853  -10.9185    3.9616 C   0  0  0  0  0  0  0  0  0  0  0  0
    0.2081   -9.7362    3.6691 C   0  0  0  0  0  0  0  0  0  0  0  0
   -0.6954   -9.4580    2.6791 C   0  0  0  0  0  0  0  0  0  0  0  0
   -1.2320   -8.1703    2.9680 C   0  0  0  0  0  0  0  0  0  0  0  0
   -0.6107   -7.7569    4.1102 C   0  0  0  0  0  0  0  0  0  0  0  0
    0.2600   -8.7022    4.5579 O   0  0  0  0  0  0  0  0  0  0  0  0
    5.2488  -10.7870    3.0638 H   0  0  0  0  0  0  0  0  0  0  0  0
    4.3125  -10.2560    1.6825 H   0  0  0  0  0  0  0  0  0  0  0  0
    1.3233   -6.7456    1.2766 H   0  0  0  0  0  0  0  0  0  0  0  0
    6.9274   -5.5830    2.0519 H   0  0  0  0  0  0  0  0  0  0  0  0
    6.9481   -6.3504    0.4565 H   0  0  0  0  0  0  0  0  0  0  0  0
    6.3896   -3.4825    1.1370 H   0  0  0  0  0  0  0  0  0  0  0  0
    6.8982   -4.1382   -0.4208 H   0  0  0  0  0  0  0  0  0  0  0  0
    6.1350   -2.0313   -0.9849 H   0  0  0  0  0  0  0  0  0  0  0  0
    5.1056   -0.4492   -2.6950 H   0  0  0  0  0  0  0  0  0  0  0  0
    1.6580   -2.7035   -2.7229 H   0  0  0  0  0  0  0  0  0  0  0  0
    2.5472  -11.5042    2.5319 H   0  0  0  0  0  0  0  0  0  0  0  0
    0.5851  -11.8325    3.6345 H   0  0  0  0  0  0  0  0  0  0  0  0
    1.2440  -11.0104    5.0382 H   0  0  0  0  0  0  0  0  0  0  0  0
   -0.9404  -10.1206    1.8627 H   0  0  0  0  0  0  0  0  0  0  0  0
   -1.9810   -7.6245    2.4132 H   0  0  0  0  0  0  0  0  0  0  0  0
   -0.6702   -6.8668    4.7208 H   0  0  0  0  0  0  0  0  0  0  0  0
  1  2  2  0
  2  3  1  0
  2 20  1  0
  3  4  1  0
  3 27  1  0
  3 28  1  0
  4  5  1  0
  5 10  1  0
  5  6  2  0
  6  7  1  0
  7  8  2  0
  7 29  1  0
  8  9  1  0
  9 13  1  0
  9 10  2  0
 10 11  1  0
 11 12  1  0
 11 30  1  0
 11 31  1  0
 12 13  1  0
 12 32  1  0
 12 33  1  0
 13 14  1  0
 14 19  1  0
 14 15  2  0
 15 16  1  0
 15 34  1  0
 16 17  2  0
 16 35  1  0
 17 18  1  0
 18 19  2  0
 18 36  1  0
 20 21  1  0
 20 37  1  0
 21 22  1  0
 21 38  1  0
 21 39  1  0
 22 26  1  0
 22 23  2  0
 23 24  1  0
 23 40  1  0
 24 25  2  0
 24 41  1  0
 25 26  1  0
 25 42  1  0
M  END
>  <i_m_ct_stereo_status>  (357) 
1

>  <s_m_source_file>  (357) 
/var/tmp/pbs.5076255.sched01/tmpxe1g82q3/12669a6jj4p.sdf

>  <i_m_source_file_index>  (357) 
11

>  <i_lp_mmshare_version>  (357) 
48012

>  <i_f3d_flags>  (357) 
0

>  <s_epik_input>  (357) 
bzFbY0hdW2NIXVtjSF1jMVtDSDJdW05IXUMoPU8pW0NIMl1TYyhuW2NIXW4yKWMoYzIzKVtDSDJdW0NIMl1OM2M0W2NIXVtjSF1uW2NIXW40

>  <s_epik_cmdline>  (357) 
J2VwaWtfcHl0aG9uJywgJy1waHQnLCAnMi4wJywgJy1waCcsICc3LjAnLCAnLXRuJywgJzgnLCAnLW1hJywgJzIwMCcsICctaW1hZScsICc8aW5maWxlLm1hZT4nLCAnLW9tYWUnLCAnPG91dGZpbGUubWFlPic=

>  <r_lp_tautomer_probability>  (357) 
1

>  <r_epik_Ionization_Penalty>  (357) 
5.20245e-05

>  <r_epik_Ionization_Penalty_Charging>  (357) 
0

>  <r_epik_Ionization_Penalty_Neutral>  (357) 
5.20245e-05

>  <r_epik_State_Penalty>  (357) 
-0

>  <r_epik_Charging_Adjusted_Penalty>  (357) 
0

>  <i_epik_Tot_Q>  (357) 
0

>  <i_epik_Tot_abs_Q>  (357) 
0

>  <s_lp_Force_Field>  (357) 
OPLS3e

>  <r_lp_Energy>  (357) 
35.5073

>  <b_lp_Chiralities_Consistent>  (357) 
1

>  <s_lp_Variant>  (357) 
102:0-1

>  <s_i_glide_gridfile>  (357) 
pfpi4k_grid

>  <i_i_glide_lignum>  (357) 
11

>  <i_i_glide_rotatable_bonds>  (357) 
7

>  <r_i_docking_score>  (357) 
-2.37767

>  <r_i_glide_ligand_efficiency>  (357) 
-0.0914489

>  <r_i_glide_ligand_efficiency_sa>  (357) 
-0.270917

>  <r_i_glide_ligand_efficiency_ln>  (357) 
-0.558388

>  <r_i_glide_gscore>  (357) 
-2.37767

>  <r_i_glide_lipo>  (357) 
-0.538078

>  <r_i_glide_hbond>  (357) 
0

>  <r_i_glide_metal>  (357) 
-0

>  <r_i_glide_rewards>  (357) 
-0.944528

>  <r_i_glide_evdw>  (357) 
-34.9996

>  <r_i_glide_ecoul>  (357) 
0.503805

>  <r_i_glide_erotb>  (357) 
0.851827

>  <r_i_glide_esite>  (357) 
-0.0724842

>  <r_i_glide_emodel>  (357) 
-40.3998

>  <r_i_glide_energy>  (357) 
-34.4958

>  <r_i_glide_einternal>  (357) 
1.80039

>  <r_i_glide_intrahb_reward>  (357) 
-0

>  <i_i_glide_confnum>  (357) 
2

>  <i_i_glide_posenum>  (357) 
11

>  <r_i_glide_eff_state_penalty>  (357) 
0

>  <ligand_id>  (357) 
102

>  <original_smiles>  (357) 
O=C(CSc1ncnc2c1CCN2c1ccncn1)NCc1ccco1

>  <smiles>  (357) 
[H]c1nc([H])c([H])c(N2c3nc([H])nc(SC([H])([H])C(=O)N([H])C([H])([H])c4oc([H])c([H])c4[H])c3C([H])([H])C2([H])[H])n1

$$$$
103:0:0
     RDKit          3D

 62 65  0  0  1  0  0  0  0  0999 V2000
    5.6755   -1.1356    2.4745 C   0  0  0  0  0  0  0  0  0  0  0  0
    4.9776   -1.9518    1.6719 C   0  0  0  0  0  0  0  0  0  0  0  0
    4.3357   -1.4865    0.4371 C   0  0  0  0  0  0  0  0  0  0  0  0
    4.2512   -0.3316    0.0520 O   0  0  0  0  0  0  0  0  0  0  0  0
    3.6691   -2.6671   -0.2669 C   0  0  1  0  0  0  0  0  0  0  0  0
    2.3287   -2.6955    0.1854 O   0  0  0  0  0  0  0  0  0  0  0  0
    3.6750   -2.5289   -1.8202 C   0  0  0  0  0  0  0  0  0  0  0  0
    4.6160   -2.0161   -2.4361 O   0  0  0  0  0  0  0  0  0  0  0  0
    2.5755   -3.0555   -2.3886 O   0  0  0  0  0  0  0  0  0  0  0  0
    2.4123   -3.0146   -3.7935 C   0  0  0  0  0  0  0  0  0  0  0  0
    4.4672   -3.8931    0.3091 C   0  0  2  0  0  0  0  0  0  0  0  0
    5.8137   -4.1004   -0.4480 C   0  0  0  0  0  0  0  0  0  0  0  0
    3.7345   -5.2601    0.2173 C   0  0  0  0  0  0  0  0  0  0  0  0
    2.7938   -5.5264    1.3865 C   0  0  0  0  0  0  0  0  0  0  0  0
    1.6066   -5.7314    1.1817 O   0  0  0  0  0  0  0  0  0  0  0  0
    3.4722   -5.4443    2.7580 C   0  0  1  0  0  0  0  0  0  0  0  0
    3.9549   -3.9717    2.9416 C   0  0  2  0  0  0  0  0  0  0  0  0
    2.7623   -3.0792    3.3617 C   0  0  0  0  0  0  0  0  0  0  0  0
    2.1681   -3.5777    4.6848 C   0  0  0  0  0  0  0  0  0  0  0  0
    1.7066   -5.0515    4.6583 C   0  0  1  0  0  0  0  0  0  0  0  0
    0.2774   -5.2140    4.1360 C   0  0  0  0  0  0  0  0  0  0  0  0
   -0.2083   -6.6350    4.4240 C   0  0  1  0  0  0  0  0  0  0  0  0
   -1.5953   -6.7440    4.2358 O   0  0  0  0  0  0  0  0  0  0  0  0
    0.5828   -7.6893    3.6357 C   0  0  1  0  0  0  0  0  0  0  0  0
    0.2153   -7.6974    2.2588 O   0  0  0  0  0  0  0  0  0  0  0  0
   -0.8393   -8.6037    1.9247 C   0  0  0  0  0  0  0  0  0  0  0  0
    2.1155   -7.4917    3.8529 C   0  0  0  0  0  0  0  0  0  0  0  0
    2.7391   -6.0431    4.0298 C   0  0  1  0  0  0  0  0  0  0  0  0
    3.8643   -6.2484    5.0860 C   0  0  0  0  0  0  0  0  0  0  0  0
    4.8611   -3.4606    1.7641 C   0  0  2  0  0  0  0  0  0  0  0  0
    6.1628   -1.5295    3.3397 H   0  0  0  0  0  0  0  0  0  0  0  0
    5.7522   -0.0854    2.2823 H   0  0  0  0  0  0  0  0  0  0  0  0
    1.8548   -1.9688   -0.2242 H   0  0  0  0  0  0  0  0  0  0  0  0
    1.4399   -3.4328   -4.0602 H   0  0  0  0  0  0  0  0  0  0  0  0
    3.1814   -3.6089   -4.2837 H   0  0  0  0  0  0  0  0  0  0  0  0
    2.4485   -1.9925   -4.1689 H   0  0  0  0  0  0  0  0  0  0  0  0
    6.4283   -4.8601    0.0443 H   0  0  0  0  0  0  0  0  0  0  0  0
    6.4132   -3.1821   -0.4901 H   0  0  0  0  0  0  0  0  0  0  0  0
    5.6473   -4.4356   -1.4755 H   0  0  0  0  0  0  0  0  0  0  0  0
    3.1780   -5.3089   -0.7126 H   0  0  0  0  0  0  0  0  0  0  0  0
    4.4641   -6.0712    0.1981 H   0  0  0  0  0  0  0  0  0  0  0  0
    4.3763   -6.0398    2.6311 H   0  0  0  0  0  0  0  0  0  0  0  0
    4.6285   -3.9380    3.7955 H   0  0  0  0  0  0  0  0  0  0  0  0
    3.0695   -2.0405    3.4971 H   0  0  0  0  0  0  0  0  0  0  0  0
    1.9704   -3.0756    2.6155 H   0  0  0  0  0  0  0  0  0  0  0  0
    2.9151   -3.4539    5.4700 H   0  0  0  0  0  0  0  0  0  0  0  0
    1.3321   -2.9344    4.9663 H   0  0  0  0  0  0  0  0  0  0  0  0
    1.6147   -5.3194    5.7116 H   0  0  0  0  0  0  0  0  0  0  0  0
   -0.3666   -4.5044    4.6532 H   0  0  0  0  0  0  0  0  0  0  0  0
    0.2207   -4.9901    3.0746 H   0  0  0  0  0  0  0  0  0  0  0  0
   -0.0542   -6.8499    5.4790 H   0  0  0  0  0  0  0  0  0  0  0  0
   -1.8358   -7.6582    4.3321 H   0  0  0  0  0  0  0  0  0  0  0  0
    0.3619   -8.6861    4.0190 H   0  0  0  0  0  0  0  0  0  0  0  0
   -1.1444   -8.4357    0.8914 H   0  0  0  0  0  0  0  0  0  0  0  0
   -1.7478   -8.4822    2.5094 H   0  0  0  0  0  0  0  0  0  0  0  0
   -0.5183   -9.6410    2.0523 H   0  0  0  0  0  0  0  0  0  0  0  0
    2.3093   -8.0536    4.7712 H   0  0  0  0  0  0  0  0  0  0  0  0
    2.6596   -8.0433    3.0873 H   0  0  0  0  0  0  0  0  0  0  0  0
    3.4882   -6.7036    6.0048 H   0  0  0  0  0  0  0  0  0  0  0  0
    4.3408   -5.3206    5.3953 H   0  0  0  0  0  0  0  0  0  0  0  0
    4.6478   -6.9047    4.7041 H   0  0  0  0  0  0  0  0  0  0  0  0
    5.8631   -3.8424    1.9882 H   0  0  0  0  0  0  0  0  0  0  0  0
  1  2  2  0
  1 31  1  0
  1 32  1  0
  2 30  1  0
  2  3  1  0
  3  4  2  0
  3  5  1  0
  5  6  1  1
  5  7  1  0
  5 11  1  0
  6 33  1  0
  7  8  2  0
  7  9  1  0
  9 10  1  0
 10 34  1  0
 10 35  1  0
 10 36  1  0
 11 30  1  0
 11 12  1  6
 11 13  1  0
 12 37  1  0
 12 38  1  0
 12 39  1  0
 13 14  1  0
 13 40  1  0
 13 41  1  0
 14 15  2  0
 14 16  1  0
 16 28  1  0
 16 17  1  0
 16 42  1  6
 17 18  1  0
 17 30  1  0
 17 43  1  1
 18 19  1  0
 18 44  1  0
 18 45  1  0
 19 20  1  0
 19 46  1  0
 19 47  1  0
 20 28  1  0
 20 21  1  0
 20 48  1  1
 21 22  1  0
 21 49  1  0
 21 50  1  0
 22 23  1  0
 22 24  1  0
 22 51  1  1
 23 52  1  0
 24 25  1  0
 24 27  1  0
 24 53  1  1
 25 26  1  0
 26 54  1  0
 26 55  1  0
 26 56  1  0
 27 28  1  0
 27 57  1  0
 27 58  1  0
 28 29  1  1
 29 59  1  0
 29 60  1  0
 29 61  1  0
 30 62  1  1
M  END
>  <i_m_ct_stereo_status>  (358) 
1

>  <s_m_source_file>  (358) 
/var/tmp/pbs.5076255.sched01/tmpxe1g82q3/12669a6jj4p.sdf

>  <i_m_source_file_index>  (358) 
12

>  <i_lp_mmshare_version>  (358) 
48012

>  <i_f3d_flags>  (358) 
0

>  <s_epik_input>  (358) 
W0NIM11PQyg9TylbQ0BdMShbT0hdKUMoPU8pQyg9W0NIMl0pW0NASF0oW0NAXTEyW0NIM10pW0NAQEhdM1tDQEhdKEMoPU8pW0NIMl0yKVtDQEBdNChbQ0gzXSlbQ0BASF0oW0NIMl1bQ0gyXTMpW0NIMl1bQ0BASF0oW09IXSlbQ0BIXShbQ0gyXTQpT1tDSDNd

>  <s_epik_cmdline>  (358) 
J2VwaWtfcHl0aG9uJywgJy1waHQnLCAnMi4wJywgJy1waCcsICc3LjAnLCAnLXRuJywgJzgnLCAnLW1hJywgJzIwMCcsICctaW1hZScsICc8aW5maWxlLm1hZT4nLCAnLW9tYWUnLCAnPG91dGZpbGUubWFlPic=

>  <r_lp_tautomer_probability>  (358) 
1

>  <r_epik_Ionization_Penalty>  (358) 
5.59664e-06

>  <r_epik_Ionization_Penalty_Charging>  (358) 
0

>  <r_epik_Ionization_Penalty_Neutral>  (358) 
5.59664e-06

>  <r_epik_State_Penalty>  (358) 
-0

>  <r_epik_Charging_Adjusted_Penalty>  (358) 
0

>  <i_epik_Tot_Q>  (358) 
0

>  <i_epik_Tot_abs_Q>  (358) 
0

>  <s_epik_Chemistry_Notes>  (358) 
This compound has an ester and may undergo hydrolysis at high or low pH.

>  <s_lp_Force_Field>  (358) 
OPLS3e

>  <r_lp_Energy>  (358) 
56.1315

>  <b_lp_Chiralities_Consistent>  (358) 
1

>  <s_lp_Variant>  (358) 
103:0-1

>  <s_i_glide_gridfile>  (358) 
pfpi4k_grid

>  <i_i_glide_lignum>  (358) 
12

>  <i_i_glide_rotatable_bonds>  (358) 
5

>  <r_i_docking_score>  (358) 
-3.45048

>  <r_i_glide_ligand_efficiency>  (358) 
-0.115016

>  <r_i_glide_ligand_efficiency_sa>  (358) 
-0.357382

>  <r_i_glide_ligand_efficiency_ln>  (358) 
-0.783987

>  <r_i_glide_gscore>  (358) 
-3.45048

>  <r_i_glide_lipo>  (358) 
-0.457308

>  <r_i_glide_hbond>  (358) 
-0.124472

>  <r_i_glide_metal>  (358) 
-0

>  <r_i_glide_rewards>  (358) 
-0.542073

>  <r_i_glide_evdw>  (358) 
-20.856

>  <r_i_glide_ecoul>  (358) 
-8.73103

>  <r_i_glide_erotb>  (358) 
0.0783583

>  <r_i_glide_esite>  (358) 
-0.0525339

>  <r_i_glide_emodel>  (358) 
-33.5502

>  <r_i_glide_energy>  (358) 
-29.587

>  <r_i_glide_einternal>  (358) 
6.95073

>  <r_i_glide_intrahb_reward>  (358) 
-0

>  <i_i_glide_confnum>  (358) 
1

>  <i_i_glide_posenum>  (358) 
1

>  <r_i_glide_eff_state_penalty>  (358) 
0

>  <ligand_id>  (358) 
103

>  <original_smiles>  (358) 
C=C1C(=O)C(O)(C(=O)OC)C2(C)CC(=O)C3C(CCC4CC(O)C(OC)CC43C)C12

>  <smiles>  (358) 
[H]OC1(C(=O)OC([H])([H])[H])C(=O)C(=C([H])[H])C2([H])C3([H])C([H])([H])C([H])([H])C4([H])C([H])([H])C([H])(O[H])C([H])(OC([H])([H])[H])C([H])([H])C4(C([H])([H])[H])C3([H])C(=O)C([H])([H])C12C([H])([H])[H]

$$$$
103:0:1
     RDKit          3D

 62 65  0  0  1  0  0  0  0  0999 V2000
    5.1690   -3.0837    5.3789 C   0  0  0  0  0  0  0  0  0  0  0  0
    4.3084   -2.5566    4.4848 C   0  0  0  0  0  0  0  0  0  0  0  0
    2.8536   -2.6549    4.6218 C   0  0  0  0  0  0  0  0  0  0  0  0
    2.2569   -3.3272    5.4606 O   0  0  0  0  0  0  0  0  0  0  0  0
    2.1693   -1.8428    3.5080 C   0  0  1  0  0  0  0  0  0  0  0  0
    1.8328   -2.7477    2.4742 O   0  0  0  0  0  0  0  0  0  0  0  0
    0.8425   -1.1493    3.9464 C   0  0  0  0  0  0  0  0  0  0  0  0
    0.2536   -1.3866    5.0029 O   0  0  0  0  0  0  0  0  0  0  0  0
    0.4112   -0.2858    3.0111 O   0  0  0  0  0  0  0  0  0  0  0  0
   -0.7581    0.4807    3.2198 C   0  0  0  0  0  0  0  0  0  0  0  0
    3.3143   -0.8650    3.0418 C   0  0  2  0  0  0  0  0  0  0  0  0
    3.3881    0.3940    3.9585 C   0  0  0  0  0  0  0  0  0  0  0  0
    3.1843   -0.3260    1.5829 C   0  0  0  0  0  0  0  0  0  0  0  0
    3.7974   -1.2722    0.5575 C   0  0  0  0  0  0  0  0  0  0  0  0
    3.1158   -1.8492   -0.2741 O   0  0  0  0  0  0  0  0  0  0  0  0
    5.2639   -1.5896    0.7814 C   0  0  1  0  0  0  0  0  0  0  0  0
    5.3135   -2.4091    2.1007 C   0  0  2  0  0  0  0  0  0  0  0  0
    4.8769   -3.8783    1.8490 C   0  0  0  0  0  0  0  0  0  0  0  0
    5.8019   -4.5341    0.8204 C   0  0  0  0  0  0  0  0  0  0  0  0
    5.8447   -3.7933   -0.5281 C   0  0  1  0  0  0  0  0  0  0  0  0
    4.7279   -4.2363   -1.4928 C   0  0  0  0  0  0  0  0  0  0  0  0
    5.0300   -3.6826   -2.8931 C   0  0  1  0  0  0  0  0  0  0  0  0
    4.2465   -4.2466   -3.9227 O   0  0  0  0  0  0  0  0  0  0  0  0
    4.9584   -2.1537   -2.9295 C   0  0  1  0  0  0  0  0  0  0  0  0
    3.6167   -1.6910   -2.8895 O   0  0  0  0  0  0  0  0  0  0  0  0
    3.4258   -0.3655   -3.3761 C   0  0  0  0  0  0  0  0  0  0  0  0
    5.8753   -1.5532   -1.8235 C   0  0  0  0  0  0  0  0  0  0  0  0
    6.0578   -2.2464   -0.4143 C   0  0  1  0  0  0  0  0  0  0  0  0
    7.5524   -2.0065   -0.0502 C   0  0  0  0  0  0  0  0  0  0  0  0
    4.6464   -1.6580    3.3079 C   0  0  2  0  0  0  0  0  0  0  0  0
    6.2332   -2.9504    5.2839 H   0  0  0  0  0  0  0  0  0  0  0  0
    4.8248   -3.6647    6.2206 H   0  0  0  0  0  0  0  0  0  0  0  0
    2.6319   -3.1280    2.1453 H   0  0  0  0  0  0  0  0  0  0  0  0
   -0.9307    1.1107    2.3449 H   0  0  0  0  0  0  0  0  0  0  0  0
   -0.6450    1.1232    4.0943 H   0  0  0  0  0  0  0  0  0  0  0  0
   -1.6242   -0.1690    3.3551 H   0  0  0  0  0  0  0  0  0  0  0  0
    4.2675    0.9962    3.7217 H   0  0  0  0  0  0  0  0  0  0  0  0
    3.4517    0.1322    5.0205 H   0  0  0  0  0  0  0  0  0  0  0  0
    2.5228    1.0483    3.8294 H   0  0  0  0  0  0  0  0  0  0  0  0
    2.1459   -0.1339    1.3163 H   0  0  0  0  0  0  0  0  0  0  0  0
    3.6990    0.6303    1.4969 H   0  0  0  0  0  0  0  0  0  0  0  0
    5.7149   -0.6168    0.9767 H   0  0  0  0  0  0  0  0  0  0  0  0
    6.3544   -2.4841    2.3972 H   0  0  0  0  0  0  0  0  0  0  0  0
    4.9278   -4.4706    2.7669 H   0  0  0  0  0  0  0  0  0  0  0  0
    3.8557   -3.9635    1.4796 H   0  0  0  0  0  0  0  0  0  0  0  0
    6.8102   -4.5810    1.2308 H   0  0  0  0  0  0  0  0  0  0  0  0
    5.5014   -5.5685    0.6587 H   0  0  0  0  0  0  0  0  0  0  0  0
    6.7452   -4.1669   -1.0078 H   0  0  0  0  0  0  0  0  0  0  0  0
    4.7141   -5.3228   -1.5201 H   0  0  0  0  0  0  0  0  0  0  0  0
    3.7368   -3.9397   -1.1579 H   0  0  0  0  0  0  0  0  0  0  0  0
    6.0559   -3.9496   -3.1485 H   0  0  0  0  0  0  0  0  0  0  0  0
    3.7383   -4.9582   -3.5415 H   0  0  0  0  0  0  0  0  0  0  0  0
    5.3316   -1.8592   -3.9089 H   0  0  0  0  0  0  0  0  0  0  0  0
    2.3644   -0.1322   -3.4003 H   0  0  0  0  0  0  0  0  0  0  0  0
    3.8094   -0.2289   -4.3887 H   0  0  0  0  0  0  0  0  0  0  0  0
    3.8986    0.3682   -2.7273 H   0  0  0  0  0  0  0  0  0  0  0  0
    6.8453   -1.6255   -2.3084 H   0  0  0  0  0  0  0  0  0  0  0  0
    5.6726   -0.4966   -1.6973 H   0  0  0  0  0  0  0  0  0  0  0  0
    8.2395   -2.3600   -0.8219 H   0  0  0  0  0  0  0  0  0  0  0  0
    7.8501   -2.5177    0.8635 H   0  0  0  0  0  0  0  0  0  0  0  0
    7.7497   -0.9470    0.1052 H   0  0  0  0  0  0  0  0  0  0  0  0
    5.4119   -0.9585    3.6558 H   0  0  0  0  0  0  0  0  0  0  0  0
  1  2  2  0
  1 31  1  0
  1 32  1  0
  2 30  1  0
  2  3  1  0
  3  4  2  0
  3  5  1  0
  5  6  1  6
  5  7  1  0
  5 11  1  0
  6 33  1  0
  7  8  2  0
  7  9  1  0
  9 10  1  0
 10 34  1  0
 10 35  1  0
 10 36  1  0
 11 30  1  0
 11 12  1  1
 11 13  1  0
 12 37  1  0
 12 38  1  0
 12 39  1  0
 13 14  1  0
 13 40  1  0
 13 41  1  0
 14 15  2  0
 14 16  1  0
 16 28  1  0
 16 17  1  0
 16 42  1  1
 17 18  1  0
 17 30  1  0
 17 43  1  1
 18 19  1  0
 18 44  1  0
 18 45  1  0
 19 20  1  0
 19 46  1  0
 19 47  1  0
 20 28  1  0
 20 21  1  0
 20 48  1  6
 21 22  1  0
 21 49  1  0
 21 50  1  0
 22 23  1  0
 22 24  1  0
 22 51  1  6
 23 52  1  0
 24 25  1  0
 24 27  1  0
 24 53  1  6
 25 26  1  0
 26 54  1  0
 26 55  1  0
 26 56  1  0
 27 28  1  0
 27 57  1  0
 27 58  1  0
 28 29  1  1
 29 59  1  0
 29 60  1  0
 29 61  1  0
 30 62  1  1
M  END
>  <i_m_ct_stereo_status>  (359) 
1

>  <s_m_source_file>  (359) 
/var/tmp/pbs.5076255.sched01/tmpxe1g82q3/12669a6jj4p.sdf

>  <i_m_source_file_index>  (359) 
12

>  <i_lp_mmshare_version>  (359) 
48012

>  <i_f3d_flags>  (359) 
0

>  <s_epik_input>  (359) 
W0NIM11PQyg9TylbQ0BdMShbT0hdKUMoPU8pQyg9W0NIMl0pW0NASF0oW0NAXTEyW0NIM10pW0NAQEhdM1tDQEhdKEMoPU8pW0NIMl0yKVtDQEBdNChbQ0gzXSlbQ0BASF0oW0NIMl1bQ0gyXTMpW0NIMl1bQ0BASF0oW09IXSlbQ0BIXShbQ0gyXTQpT1tDSDNd

>  <s_epik_cmdline>  (359) 
J2VwaWtfcHl0aG9uJywgJy1waHQnLCAnMi4wJywgJy1waCcsICc3LjAnLCAnLXRuJywgJzgnLCAnLW1hJywgJzIwMCcsICctaW1hZScsICc8aW5maWxlLm1hZT4nLCAnLW9tYWUnLCAnPG91dGZpbGUubWFlPic=

>  <r_lp_tautomer_probability>  (359) 
1

>  <r_epik_Ionization_Penalty>  (359) 
5.59664e-06

>  <r_epik_Ionization_Penalty_Charging>  (359) 
0

>  <r_epik_Ionization_Penalty_Neutral>  (359) 
5.59664e-06

>  <r_epik_State_Penalty>  (359) 
-0

>  <r_epik_Charging_Adjusted_Penalty>  (359) 
0

>  <i_epik_Tot_Q>  (359) 
0

>  <i_epik_Tot_abs_Q>  (359) 
0

>  <s_epik_Chemistry_Notes>  (359) 
This compound has an ester and may undergo hydrolysis at high or low pH.

>  <s_lp_Force_Field>  (359) 
OPLS3e

>  <r_lp_Energy>  (359) 
56.1315

>  <b_lp_Chiralities_Consistent>  (359) 
1

>  <s_lp_Variant>  (359) 
103:0-1

>  <s_i_glide_gridfile>  (359) 
pfpi4k_grid

>  <i_i_glide_lignum>  (359) 
12

>  <i_i_glide_rotatable_bonds>  (359) 
5

>  <r_i_docking_score>  (359) 
-2.71364

>  <r_i_glide_ligand_efficiency>  (359) 
-0.0904547

>  <r_i_glide_ligand_efficiency_sa>  (359) 
-0.281064

>  <r_i_glide_ligand_efficiency_ln>  (359) 
-0.616569

>  <r_i_glide_gscore>  (359) 
-2.71364

>  <r_i_glide_lipo>  (359) 
-0.698993

>  <r_i_glide_hbond>  (359) 
0

>  <r_i_glide_metal>  (359) 
-0

>  <r_i_glide_rewards>  (359) 
-0.542073

>  <r_i_glide_evdw>  (359) 
-22.2162

>  <r_i_glide_ecoul>  (359) 
-2.85813

>  <r_i_glide_erotb>  (359) 
0.11194

>  <r_i_glide_esite>  (359) 
-0.0449877

>  <r_i_glide_emodel>  (359) 
-29.0888

>  <r_i_glide_energy>  (359) 
-25.0743

>  <r_i_glide_einternal>  (359) 
3.33378

>  <r_i_glide_intrahb_reward>  (359) 
-0

>  <i_i_glide_confnum>  (359) 
2

>  <i_i_glide_posenum>  (359) 
11

>  <r_i_glide_eff_state_penalty>  (359) 
0

>  <ligand_id>  (359) 
103

>  <original_smiles>  (359) 
C=C1C(=O)C(O)(C(=O)OC)C2(C)CC(=O)C3C(CCC4CC(O)C(OC)CC43C)C12

>  <smiles>  (359) 
[H]OC1(C(=O)OC([H])([H])[H])C(=O)C(=C([H])[H])C2([H])C3([H])C([H])([H])C([H])([H])C4([H])C([H])([H])C([H])(O[H])C([H])(OC([H])([H])[H])C([H])([H])C4(C([H])([H])[H])C3([H])C(=O)C([H])([H])C12C([H])([H])[H]

$$$$
103:0:2
     RDKit          3D

 62 65  0  0  1  0  0  0  0  0999 V2000
    1.3214   -7.3000    5.5144 C   0  0  0  0  0  0  0  0  0  0  0  0
    1.5193   -5.9787    5.3776 C   0  0  0  0  0  0  0  0  0  0  0  0
    0.5612   -4.9626    5.8344 C   0  0  0  0  0  0  0  0  0  0  0  0
   -0.5708   -5.1844    6.2712 O   0  0  0  0  0  0  0  0  0  0  0  0
    1.1515   -3.5570    5.6347 C   0  0  1  0  0  0  0  0  0  0  0  0
    0.6313   -3.0559    4.4176 O   0  0  0  0  0  0  0  0  0  0  0  0
    0.7629   -2.5274    6.7397 C   0  0  0  0  0  0  0  0  0  0  0  0
    0.0209   -2.7784    7.6910 O   0  0  0  0  0  0  0  0  0  0  0  0
    1.3103   -1.3204    6.4995 O   0  0  0  0  0  0  0  0  0  0  0  0
    1.1043   -0.2451    7.3955 C   0  0  0  0  0  0  0  0  0  0  0  0
    2.7001   -3.8478    5.5160 C   0  0  2  0  0  0  0  0  0  0  0  0
    3.3678   -3.9632    6.9216 C   0  0  0  0  0  0  0  0  0  0  0  0
    3.5240   -2.7706    4.7509 C   0  0  0  0  0  0  0  0  0  0  0  0
    3.5145   -2.9692    3.2452 C   0  0  0  0  0  0  0  0  0  0  0  0
    3.0471   -2.1095    2.5087 O   0  0  0  0  0  0  0  0  0  0  0  0
    4.0244   -4.3402    2.7871 C   0  0  1  0  0  0  0  0  0  0  0  0
    3.0121   -5.3958    3.3330 C   0  0  2  0  0  0  0  0  0  0  0  0
    1.7559   -5.4394    2.4291 C   0  0  0  0  0  0  0  0  0  0  0  0
    2.1486   -5.8175    0.9929 C   0  0  0  0  0  0  0  0  0  0  0  0
    3.1934   -4.8726    0.3542 C   0  0  1  0  0  0  0  0  0  0  0  0
    2.5585   -3.6360   -0.3078 C   0  0  0  0  0  0  0  0  0  0  0  0
    3.6057   -2.9014   -1.1478 C   0  0  1  0  0  0  0  0  0  0  0  0
    3.0248   -1.9006   -1.9613 O   0  0  0  0  0  0  0  0  0  0  0  0
    4.7526   -2.3466   -0.2863 C   0  0  1  0  0  0  0  0  0  0  0  0
    4.3040   -1.1813    0.3943 O   0  0  0  0  0  0  0  0  0  0  0  0
    5.3162   -0.3843    0.9961 C   0  0  0  0  0  0  0  0  0  0  0  0
    5.3526   -3.4523    0.6380 C   0  0  0  0  0  0  0  0  0  0  0  0
    4.4237   -4.5647    1.2702 C   0  0  1  0  0  0  0  0  0  0  0  0
    5.3310   -5.8295    1.2754 C   0  0  0  0  0  0  0  0  0  0  0  0
    2.7814   -5.2850    4.8857 C   0  0  2  0  0  0  0  0  0  0  0  0
    2.0644   -8.0242    5.2151 H   0  0  0  0  0  0  0  0  0  0  0  0
    0.4057   -7.6933    5.9287 H   0  0  0  0  0  0  0  0  0  0  0  0
    0.8836   -3.6427    3.7213 H   0  0  0  0  0  0  0  0  0  0  0  0
    1.6333    0.6372    7.0289 H   0  0  0  0  0  0  0  0  0  0  0  0
    1.4909   -0.4889    8.3865 H   0  0  0  0  0  0  0  0  0  0  0  0
    0.0426   -0.0070    7.4651 H   0  0  0  0  0  0  0  0  0  0  0  0
    4.4027   -4.3041    6.8303 H   0  0  0  0  0  0  0  0  0  0  0  0
    2.8513   -4.6756    7.5729 H   0  0  0  0  0  0  0  0  0  0  0  0
    3.4009   -2.9992    7.4350 H   0  0  0  0  0  0  0  0  0  0  0  0
    3.1643   -1.7697    4.9796 H   0  0  0  0  0  0  0  0  0  0  0  0
    4.5655   -2.8035    5.0719 H   0  0  0  0  0  0  0  0  0  0  0  0
    4.9420   -4.4704    3.3641 H   0  0  0  0  0  0  0  0  0  0  0  0
    3.4610   -6.3832    3.2203 H   0  0  0  0  0  0  0  0  0  0  0  0
    1.0360   -6.1774    2.7864 H   0  0  0  0  0  0  0  0  0  0  0  0
    1.2457   -4.4812    2.4139 H   0  0  0  0  0  0  0  0  0  0  0  0
    2.5480   -6.8333    0.9998 H   0  0  0  0  0  0  0  0  0  0  0  0
    1.2637   -5.8648    0.3584 H   0  0  0  0  0  0  0  0  0  0  0  0
    3.5925   -5.4387   -0.4868 H   0  0  0  0  0  0  0  0  0  0  0  0
    1.7506   -3.9581   -0.9655 H   0  0  0  0  0  0  0  0  0  0  0  0
    2.1175   -2.9665    0.4276 H   0  0  0  0  0  0  0  0  0  0  0  0
    4.0428   -3.6204   -1.8421 H   0  0  0  0  0  0  0  0  0  0  0  0
    2.3423   -1.4532   -1.4551 H   0  0  0  0  0  0  0  0  0  0  0  0
    5.5362   -2.0105   -0.9663 H   0  0  0  0  0  0  0  0  0  0  0  0
    4.8671    0.5373    1.3663 H   0  0  0  0  0  0  0  0  0  0  0  0
    6.1129   -0.1122    0.3019 H   0  0  0  0  0  0  0  0  0  0  0  0
    5.7573   -0.8906    1.8526 H   0  0  0  0  0  0  0  0  0  0  0  0
    6.0742   -3.9445   -0.0166 H   0  0  0  0  0  0  0  0  0  0  0  0
    5.9816   -3.0179    1.4103 H   0  0  0  0  0  0  0  0  0  0  0  0
    5.7184   -6.0613    0.2823 H   0  0  0  0  0  0  0  0  0  0  0  0
    4.8158   -6.7293    1.6051 H   0  0  0  0  0  0  0  0  0  0  0  0
    6.1956   -5.6925    1.9283 H   0  0  0  0  0  0  0  0  0  0  0  0
    3.6243   -5.8192    5.3301 H   0  0  0  0  0  0  0  0  0  0  0  0
  1  2  2  0
  1 31  1  0
  1 32  1  0
  2 30  1  0
  2  3  1  0
  3  4  2  0
  3  5  1  0
  5  6  1  6
  5  7  1  0
  5 11  1  0
  6 33  1  0
  7  8  2  0
  7  9  1  0
  9 10  1  0
 10 34  1  0
 10 35  1  0
 10 36  1  0
 11 30  1  0
 11 12  1  1
 11 13  1  0
 12 37  1  0
 12 38  1  0
 12 39  1  0
 13 14  1  0
 13 40  1  0
 13 41  1  0
 14 15  2  0
 14 16  1  0
 16 28  1  0
 16 17  1  0
 16 42  1  1
 17 18  1  0
 17 30  1  0
 17 43  1  1
 18 19  1  0
 18 44  1  0
 18 45  1  0
 19 20  1  0
 19 46  1  0
 19 47  1  0
 20 28  1  0
 20 21  1  0
 20 48  1  6
 21 22  1  0
 21 49  1  0
 21 50  1  0
 22 23  1  0
 22 24  1  0
 22 51  1  6
 23 52  1  0
 24 25  1  0
 24 27  1  0
 24 53  1  6
 25 26  1  0
 26 54  1  0
 26 55  1  0
 26 56  1  0
 27 28  1  0
 27 57  1  0
 27 58  1  0
 28 29  1  1
 29 59  1  0
 29 60  1  0
 29 61  1  0
 30 62  1  1
M  END
>  <i_m_ct_stereo_status>  (360) 
1

>  <s_m_source_file>  (360) 
/var/tmp/pbs.5076255.sched01/tmpxe1g82q3/12669a6jj4p.sdf

>  <i_m_source_file_index>  (360) 
12

>  <i_lp_mmshare_version>  (360) 
48012

>  <i_f3d_flags>  (360) 
0

>  <s_epik_input>  (360) 
W0NIM11PQyg9TylbQ0BdMShbT0hdKUMoPU8pQyg9W0NIMl0pW0NASF0oW0NAXTEyW0NIM10pW0NAQEhdM1tDQEhdKEMoPU8pW0NIMl0yKVtDQEBdNChbQ0gzXSlbQ0BASF0oW0NIMl1bQ0gyXTMpW0NIMl1bQ0BASF0oW09IXSlbQ0BIXShbQ0gyXTQpT1tDSDNd

>  <s_epik_cmdline>  (360) 
J2VwaWtfcHl0aG9uJywgJy1waHQnLCAnMi4wJywgJy1waCcsICc3LjAnLCAnLXRuJywgJzgnLCAnLW1hJywgJzIwMCcsICctaW1hZScsICc8aW5maWxlLm1hZT4nLCAnLW9tYWUnLCAnPG91dGZpbGUubWFlPic=

>  <r_lp_tautomer_probability>  (360) 
1

>  <r_epik_Ionization_Penalty>  (360) 
5.59664e-06

>  <r_epik_Ionization_Penalty_Charging>  (360) 
0

>  <r_epik_Ionization_Penalty_Neutral>  (360) 
5.59664e-06

>  <r_epik_State_Penalty>  (360) 
-0

>  <r_epik_Charging_Adjusted_Penalty>  (360) 
0

>  <i_epik_Tot_Q>  (360) 
0

>  <i_epik_Tot_abs_Q>  (360) 
0

>  <s_epik_Chemistry_Notes>  (360) 
This compound has an ester and may undergo hydrolysis at high or low pH.

>  <s_lp_Force_Field>  (360) 
OPLS3e

>  <r_lp_Energy>  (360) 
56.1315

>  <b_lp_Chiralities_Consistent>  (360) 
1

>  <s_lp_Variant>  (360) 
103:0-1

>  <s_i_glide_gridfile>  (360) 
pfpi4k_grid

>  <i_i_glide_lignum>  (360) 
12

>  <i_i_glide_rotatable_bonds>  (360) 
5

>  <r_i_docking_score>  (360) 
-2.3156

>  <r_i_glide_ligand_efficiency>  (360) 
-0.0771866

>  <r_i_glide_ligand_efficiency_sa>  (360) 
-0.239837

>  <r_i_glide_ligand_efficiency_ln>  (360) 
-0.526129

>  <r_i_glide_gscore>  (360) 
-2.3156

>  <r_i_glide_lipo>  (360) 
-0.29983

>  <r_i_glide_hbond>  (360) 
-0.00212195

>  <r_i_glide_metal>  (360) 
-0

>  <r_i_glide_rewards>  (360) 
-0.542199

>  <r_i_glide_evdw>  (360) 
-20.2307

>  <r_i_glide_ecoul>  (360) 
-3.71926

>  <r_i_glide_erotb>  (360) 
0.11194

>  <r_i_glide_esite>  (360) 
-0.013962

>  <r_i_glide_emodel>  (360) 
-28.033

>  <r_i_glide_energy>  (360) 
-23.95

>  <r_i_glide_einternal>  (360) 
1.95977

>  <r_i_glide_intrahb_reward>  (360) 
-0

>  <i_i_glide_confnum>  (360) 
2

>  <i_i_glide_posenum>  (360) 
15

>  <r_i_glide_eff_state_penalty>  (360) 
0

>  <ligand_id>  (360) 
103

>  <original_smiles>  (360) 
C=C1C(=O)C(O)(C(=O)OC)C2(C)CC(=O)C3C(CCC4CC(O)C(OC)CC43C)C12

>  <smiles>  (360) 
[H]OC1(C(=O)OC([H])([H])[H])C(=O)C(=C([H])[H])C2([H])C3([H])C([H])([H])C([H])([H])C4([H])C([H])([H])C([H])(O[H])C([H])(OC([H])([H])[H])C([H])([H])C4(C([H])([H])[H])C3([H])C(=O)C([H])([H])C12C([H])([H])[H]

$$$$
104:1:0
     RDKit          3D

 75 82  0  0  1  0  0  0  0  0999 V2000
    4.1619   -6.3836    8.4818 C   0  0  0  0  0  0  0  0  0  0  0  0
    3.7041   -6.4845    7.0146 C   0  0  0  0  0  0  0  0  0  0  0  0
    4.4891   -7.5132    6.1517 C   0  0  2  0  0  0  0  0  0  0  0  0
    5.9800   -6.8761    5.8857 C   0  0  0  0  0  0  0  0  0  0  0  0
    6.5204   -6.6856    4.3164 C   0  0  0  0  0  0  0  0  0  0  0  0
    5.9083   -7.6573    3.1478 C   0  0  2  0  0  0  0  0  0  0  0  0
    6.9556   -8.2281    2.3564 O   0  0  0  0  0  0  0  0  0  0  0  0
    7.7628   -7.3157    1.6165 C   0  0  0  0  0  0  0  0  0  0  0  0
    4.7163   -7.3450    2.1062 C   0  0  2  0  0  0  0  0  0  0  0  0
    4.8973   -6.1247    1.3526 O   0  0  0  0  0  0  0  0  0  0  0  0
    3.8406   -5.3045    1.6723 C   0  0  0  0  0  0  0  0  0  0  0  0
    3.6943   -3.9095    1.5447 C   0  0  0  0  0  0  0  0  0  0  0  0
    4.6396   -3.0954    0.6682 C   0  0  0  0  0  0  0  0  0  0  0  0
    4.0444   -2.6556   -0.5356 O   0  0  0  0  0  0  0  0  0  0  0  0
    2.6568   -3.2436    2.2709 C   0  0  0  0  0  0  0  0  0  0  0  0
    1.8637   -3.9438    3.2269 C   0  0  0  0  0  0  0  0  0  0  0  0
    2.0001   -5.3396    3.3014 C   0  0  0  0  0  0  0  0  0  0  0  0
    2.9047   -5.9398    2.4515 C   0  0  0  0  0  0  0  0  0  0  0  0
    3.1693   -7.3896    2.6082 C   0  0  1  0  0  0  0  0  0  0  0  0
    2.2069   -8.2035    1.6993 C   0  0  0  0  0  0  0  0  0  0  0  0
    0.9950   -8.8588    2.4101 C   0  0  0  0  0  0  0  0  0  0  0  0
    1.3918   -9.6361    3.5812 N   0  0  0  0  0  0  0  0  0  0  0  0
    0.2604  -10.4087    4.0833 C   0  0  0  0  0  0  0  0  0  0  0  0
    2.0706   -8.8872    4.6570 C   0  0  1  0  0  0  0  0  0  0  0  0
    3.0700   -9.7972    5.4644 C   0  0  1  0  0  0  0  0  0  0  0  0
    3.8076  -10.5681    4.3793 C   0  0  0  0  0  0  0  0  0  0  0  0
    4.6824   -9.9541    3.5754 C   0  0  0  0  0  0  0  0  0  0  0  0
    5.2690   -8.6548    4.0670 C   0  0  1  0  0  0  0  0  0  0  0  0
    6.3058   -9.1864    4.9424 O   0  0  0  0  0  0  0  0  0  0  0  0
    7.4422   -9.9100    4.4566 C   0  0  0  0  0  0  0  0  0  0  0  0
    4.1758   -7.5899    4.7150 C   0  0  1  0  0  0  0  0  0  0  0  0
    2.7746   -7.6081    4.1169 C   0  0  1  0  0  0  0  0  0  0  0  0
    1.7798   -6.3873    4.3637 C   0  0  0  0  0  0  0  0  0  0  0  0
    4.0002   -9.0087    6.5456 C   0  0  1  0  0  0  0  0  0  0  0  0
    5.0416   -9.8073    7.1167 O   0  0  0  0  0  0  0  0  0  0  0  0
    4.5987  -10.9899    7.7875 C   0  0  0  0  0  0  0  0  0  0  0  0
    3.5982   -5.6048    8.9944 H   0  0  0  0  0  0  0  0  0  0  0  0
    5.2221   -6.1475    8.5771 H   0  0  0  0  0  0  0  0  0  0  0  0
    3.9737   -7.3149    9.0178 H   0  0  0  0  0  0  0  0  0  0  0  0
    2.6517   -6.7533    7.0600 H   0  0  0  0  0  0  0  0  0  0  0  0
    3.7714   -5.4941    6.5581 H   0  0  0  0  0  0  0  0  0  0  0  0
    6.0305   -5.8860    6.3453 H   0  0  0  0  0  0  0  0  0  0  0  0
    6.7120   -7.4410    6.4704 H   0  0  0  0  0  0  0  0  0  0  0  0
    6.3865   -5.6477    4.0024 H   0  0  0  0  0  0  0  0  0  0  0  0
    7.6038   -6.8221    4.3503 H   0  0  0  0  0  0  0  0  0  0  0  0
    8.5750   -7.8654    1.1391 H   0  0  0  0  0  0  0  0  0  0  0  0
    8.2275   -6.5510    2.2378 H   0  0  0  0  0  0  0  0  0  0  0  0
    7.2099   -6.8162    0.8243 H   0  0  0  0  0  0  0  0  0  0  0  0
    4.8025   -8.1342    1.3571 H   0  0  0  0  0  0  0  0  0  0  0  0
    4.9912   -2.2284    1.2264 H   0  0  0  0  0  0  0  0  0  0  0  0
    5.5272   -3.6795    0.4244 H   0  0  0  0  0  0  0  0  0  0  0  0
    3.2974   -2.1071   -0.3352 H   0  0  0  0  0  0  0  0  0  0  0  0
    2.5550   -2.1774    2.1735 H   0  0  0  0  0  0  0  0  0  0  0  0
    1.2206   -3.4088    3.9097 H   0  0  0  0  0  0  0  0  0  0  0  0
    1.8409   -7.5607    0.8954 H   0  0  0  0  0  0  0  0  0  0  0  0
    2.7652   -8.9970    1.2026 H   0  0  0  0  0  0  0  0  0  0  0  0
    0.2310   -8.1305    2.6776 H   0  0  0  0  0  0  0  0  0  0  0  0
    0.5304   -9.5436    1.7026 H   0  0  0  0  0  0  0  0  0  0  0  0
    0.5519  -11.0824    4.8906 H   0  0  0  0  0  0  0  0  0  0  0  0
   -0.1566  -11.0277    3.2889 H   0  0  0  0  0  0  0  0  0  0  0  0
   -0.5332   -9.7590    4.4516 H   0  0  0  0  0  0  0  0  0  0  0  0
    1.3083   -8.5628    5.3645 H   0  0  0  0  0  0  0  0  0  0  0  0
    2.4724  -10.5364    6.0055 H   0  0  0  0  0  0  0  0  0  0  0  0
    3.4383  -11.5587    4.1556 H   0  0  0  0  0  0  0  0  0  0  0  0
    5.1227  -10.4439    2.7183 H   0  0  0  0  0  0  0  0  0  0  0  0
    7.8711  -10.4655    5.2924 H   0  0  0  0  0  0  0  0  0  0  0  0
    8.2288   -9.2439    4.0948 H   0  0  0  0  0  0  0  0  0  0  0  0
    7.1923  -10.6270    3.6741 H   0  0  0  0  0  0  0  0  0  0  0  0
    4.2779   -6.5326    4.4716 H   0  0  0  0  0  0  0  0  0  0  0  0
    1.7933   -5.9319    5.3429 H   0  0  0  0  0  0  0  0  0  0  0  0
    0.7518   -6.7139    4.2042 H   0  0  0  0  0  0  0  0  0  0  0  0
    3.3308   -8.8548    7.3870 H   0  0  0  0  0  0  0  0  0  0  0  0
    5.4640  -11.5620    8.1301 H   0  0  0  0  0  0  0  0  0  0  0  0
    4.0184  -11.6651    7.1566 H   0  0  0  0  0  0  0  0  0  0  0  0
    3.9972  -10.7361    8.6629 H   0  0  0  0  0  0  0  0  0  0  0  0
  1  2  1  0
  1 37  1  0
  1 38  1  0
  1 39  1  0
  3  2  1  1
  2 40  1  0
  2 41  1  0
  3 31  1  0
  3 34  1  0
  3  4  1  0
  4  5  1  0
  4 42  1  0
  4 43  1  0
  5  6  1  0
  5 44  1  0
  5 45  1  0
  6 28  1  0
  6  7  1  6
  6  9  1  0
  7  8  1  0
  8 46  1  0
  8 47  1  0
  8 48  1  0
  9 19  1  0
  9 10  1  0
  9 49  1  6
 10 11  1  0
 11 18  2  0
 11 12  1  0
 12 13  1  0
 12 15  2  0
 13 14  1  0
 13 50  1  0
 13 51  1  0
 14 52  1  0
 15 16  1  0
 15 53  1  0
 16 17  2  0
 16 54  1  0
 17 33  1  0
 17 18  1  0
 18 19  1  0
 19 32  1  0
 19 20  1  6
 20 21  1  0
 20 55  1  0
 20 56  1  0
 21 22  1  0
 21 57  1  0
 21 58  1  0
 22 23  1  0
 22 24  1  0
 23 59  1  0
 23 60  1  0
 23 61  1  0
 24 32  1  0
 24 25  1  0
 24 62  1  1
 25 26  1  0
 25 34  1  0
 25 63  1  1
 26 27  2  0
 26 64  1  0
 27 28  1  0
 27 65  1  0
 28 29  1  1
 28 31  1  0
 29 30  1  0
 30 66  1  0
 30 67  1  0
 30 68  1  0
 31 32  1  0
 31 69  1  6
 32 33  1  1
 33 70  1  0
 33 71  1  0
 34 35  1  0
 34 72  1  1
 35 36  1  0
 36 73  1  0
 36 74  1  0
 36 75  1  0
M  END
>  <i_m_ct_stereo_status>  (361) 
1

>  <s_m_source_file>  (361) 
/var/tmp/pbs.5076255.sched01/tmpxe1g82q3/12669a6jj4p.sdf

>  <i_m_source_file_index>  (361) 
14

>  <i_lp_mmshare_version>  (361) 
48012

>  <i_f3d_flags>  (361) 
0

>  <s_epik_input>  (361) 
W0NIMl0xW0NIMl1OKFtDSDNdKVtDQEhdKFtDQF0yM1tDQF0xNDUpW0NASF02W0NIXT1bQ0hdW0NAQF03KE9bQ0gzXSlbQ0BdKE9bQ0gzXSkoW0NIMl1bQ0gyXUMoW0NIXTI3KShbQ0gyXVtDSDNdKVtDQEBIXTZPW0NIM10pW0NAQEhdNE9jOGM1YyhbQ0gyXTMpW2NIXVtjSF1jOFtDSDJdW09IXQ==

>  <s_epik_cmdline>  (361) 
J2VwaWtfcHl0aG9uJywgJy1waHQnLCAnMi4wJywgJy1waCcsICc3LjAnLCAnLXRuJywgJzgnLCAnLW1hJywgJzIwMCcsICctaW1hZScsICc8aW5maWxlLm1hZT4nLCAnLW9tYWUnLCAnPG91dGZpbGUubWFlPic=

>  <r_lp_tautomer_probability>  (361) 
1

>  <r_epik_Ionization_Penalty>  (361) 
1.98138

>  <r_epik_Ionization_Penalty_Charging>  (361) 
0

>  <r_epik_Ionization_Penalty_Neutral>  (361) 
1.98138

>  <r_epik_State_Penalty>  (361) 
2.10869

>  <r_epik_Charging_Adjusted_Penalty>  (361) 
2.10869

>  <i_epik_Tot_Q>  (361) 
0

>  <i_epik_Tot_abs_Q>  (361) 
0

>  <s_lp_Force_Field>  (361) 
OPLS3e

>  <r_lp_Energy>  (361) 
254.215

>  <b_lp_Chiralities_Consistent>  (361) 
1

>  <s_lp_Variant>  (361) 
104:0-2

>  <s_i_glide_gridfile>  (361) 
pfpi4k_grid

>  <i_i_glide_lignum>  (361) 
14

>  <i_i_glide_rotatable_bonds>  (361) 
6

>  <r_i_docking_score>  (361) 
-1.32454

>  <r_i_glide_ligand_efficiency>  (361) 
-0.0367929

>  <r_i_glide_ligand_efficiency_sa>  (361) 
-0.121487

>  <r_i_glide_ligand_efficiency_ln>  (361) 
-0.28898

>  <r_i_glide_gscore>  (361) 
-1.32454

>  <r_i_glide_lipo>  (361) 
-0.0762444

>  <r_i_glide_hbond>  (361) 
0

>  <r_i_glide_metal>  (361) 
-0

>  <r_i_glide_rewards>  (361) 
-0.0434021

>  <r_i_glide_evdw>  (361) 
-19.6951

>  <r_i_glide_ecoul>  (361) 
-2.025

>  <r_i_glide_erotb>  (361) 
0.0836068

>  <r_i_glide_esite>  (361) 
0

>  <r_i_glide_emodel>  (361) 
-22.1914

>  <r_i_glide_energy>  (361) 
-21.7201

>  <r_i_glide_einternal>  (361) 
1.43539

>  <r_i_glide_intrahb_reward>  (361) 
-0

>  <i_i_glide_confnum>  (361) 
5

>  <i_i_glide_posenum>  (361) 
34

>  <r_i_glide_eff_state_penalty>  (361) 
0

>  <ligand_id>  (361) 
104

>  <original_smiles>  (361) 
CCC12CCC3(OC)C4Oc5c(CO)ccc6c5C45CCN(C)C4C(C=CC3(OC)C1C45C6)C2OC

>  <smiles>  (361) 
[H]OC([H])([H])c1c([H])c([H])c2c3c1OC1([H])C4(OC([H])([H])[H])C([H])([H])C([H])([H])C5(C([H])([H])C([H])([H])[H])C([H])(OC([H])([H])[H])C6([H])C([H])=C([H])C4(OC([H])([H])[H])C5([H])C4(C2([H])[H])C6([H])N(C([H])([H])[H])C([H])([H])C([H])([H])C314

$$$$
104:1:1
     RDKit          3D

 75 82  0  0  1  0  0  0  0  0999 V2000
    4.4434   -5.4740    7.6081 C   0  0  0  0  0  0  0  0  0  0  0  0
    3.7708   -5.6984    6.2411 C   0  0  0  0  0  0  0  0  0  0  0  0
    3.9405   -7.1303    5.6548 C   0  0  2  0  0  0  0  0  0  0  0  0
    5.5060   -7.2721    5.1701 C   0  0  0  0  0  0  0  0  0  0  0  0
    5.8410   -7.6957    3.5864 C   0  0  0  0  0  0  0  0  0  0  0  0
    4.7202   -8.5441    2.7499 C   0  0  2  0  0  0  0  0  0  0  0  0
    5.3346   -9.6706    2.1202 O   0  0  0  0  0  0  0  0  0  0  0  0
    6.1342   -9.4010    0.9764 C   0  0  0  0  0  0  0  0  0  0  0  0
    3.6233   -7.9875    1.7089 C   0  0  2  0  0  0  0  0  0  0  0  0
    4.1783   -7.1561    0.6602 O   0  0  0  0  0  0  0  0  0  0  0  0
    3.5913   -5.9224    0.7834 C   0  0  0  0  0  0  0  0  0  0  0  0
    3.9990   -4.6661    0.2855 C   0  0  0  0  0  0  0  0  0  0  0  0
    5.0649   -4.5762   -0.8049 C   0  0  0  0  0  0  0  0  0  0  0  0
    5.0073   -3.3983   -1.5835 O   0  0  0  0  0  0  0  0  0  0  0  0
    3.4316   -3.4771    0.8588 C   0  0  0  0  0  0  0  0  0  0  0  0
    2.5884   -3.5464    2.0012 C   0  0  0  0  0  0  0  0  0  0  0  0
    2.1592   -4.8068    2.4378 C   0  0  0  0  0  0  0  0  0  0  0  0
    2.6047   -5.9061    1.7366 C   0  0  0  0  0  0  0  0  0  0  0  0
    2.2833   -7.2524    2.2627 C   0  0  1  0  0  0  0  0  0  0  0  0
    0.9577   -7.7619    1.6369 C   0  0  0  0  0  0  0  0  0  0  0  0
   -0.3037   -7.6662    2.5333 C   0  0  0  0  0  0  0  0  0  0  0  0
   -0.0934   -8.2399    3.8599 N   0  0  0  0  0  0  0  0  0  0  0  0
   -1.3552   -8.3333    4.5881 C   0  0  0  0  0  0  0  0  0  0  0  0
    0.9834   -7.6396    4.6740 C   0  0  1  0  0  0  0  0  0  0  0  0
    1.6385   -8.6791    5.6596 C   0  0  1  0  0  0  0  0  0  0  0  0
    1.8336   -9.9162    4.7936 C   0  0  0  0  0  0  0  0  0  0  0  0
    2.7506   -9.9316    3.8193 C   0  0  0  0  0  0  0  0  0  0  0  0
    3.8770   -8.9359    3.9269 C   0  0  1  0  0  0  0  0  0  0  0  0
    4.7277   -9.6448    4.8732 O   0  0  0  0  0  0  0  0  0  0  0  0
    5.3604  -10.8958    4.5741 C   0  0  0  0  0  0  0  0  0  0  0  0
    3.4165   -7.3908    4.3052 C   0  0  1  0  0  0  0  0  0  0  0  0
    2.0548   -6.9421    3.7882 C   0  0  1  0  0  0  0  0  0  0  0  0
    1.6860   -5.3943    3.7415 C   0  0  0  0  0  0  0  0  0  0  0  0
    2.9561   -8.1380    6.4539 C   0  0  1  0  0  0  0  0  0  0  0  0
    3.6712   -9.1384    7.1837 O   0  0  0  0  0  0  0  0  0  0  0  0
    2.9221   -9.7994    8.2042 C   0  0  0  0  0  0  0  0  0  0  0  0
    4.3241   -4.4330    7.9136 H   0  0  0  0  0  0  0  0  0  0  0  0
    5.5112   -5.6931    7.5927 H   0  0  0  0  0  0  0  0  0  0  0  0
    3.9840   -6.0882    8.3829 H   0  0  0  0  0  0  0  0  0  0  0  0
    2.7172   -5.4773    6.3980 H   0  0  0  0  0  0  0  0  0  0  0  0
    4.1595   -4.9626    5.5343 H   0  0  0  0  0  0  0  0  0  0  0  0
    6.0175   -6.3212    5.3476 H   0  0  0  0  0  0  0  0  0  0  0  0
    6.0224   -7.9475    5.8636 H   0  0  0  0  0  0  0  0  0  0  0  0
    6.0895   -6.7953    3.0136 H   0  0  0  0  0  0  0  0  0  0  0  0
    6.7684   -8.2730    3.5888 H   0  0  0  0  0  0  0  0  0  0  0  0
    6.6214  -10.3213    0.6499 H   0  0  0  0  0  0  0  0  0  0  0  0
    6.9070   -8.6572    1.1709 H   0  0  0  0  0  0  0  0  0  0  0  0
    5.5318   -9.0577    0.1406 H   0  0  0  0  0  0  0  0  0  0  0  0
    3.2700   -8.8838    1.1952 H   0  0  0  0  0  0  0  0  0  0  0  0
    6.0479   -4.6317   -0.3389 H   0  0  0  0  0  0  0  0  0  0  0  0
    4.9997   -5.4309   -1.4837 H   0  0  0  0  0  0  0  0  0  0  0  0
    4.9931   -2.6594   -0.9967 H   0  0  0  0  0  0  0  0  0  0  0  0
    3.7302   -2.5044    0.5098 H   0  0  0  0  0  0  0  0  0  0  0  0
    2.3080   -2.6503    2.5363 H   0  0  0  0  0  0  0  0  0  0  0  0
    0.7738   -7.2448    0.6938 H   0  0  0  0  0  0  0  0  0  0  0  0
    1.0983   -8.8070    1.3677 H   0  0  0  0  0  0  0  0  0  0  0  0
   -0.6598   -6.6434    2.6275 H   0  0  0  0  0  0  0  0  0  0  0  0
   -1.1038   -8.2274    2.0446 H   0  0  0  0  0  0  0  0  0  0  0  0
   -1.2267   -8.8748    5.5267 H   0  0  0  0  0  0  0  0  0  0  0  0
   -2.0961   -8.8895    4.0096 H   0  0  0  0  0  0  0  0  0  0  0  0
   -1.7674   -7.3473    4.8087 H   0  0  0  0  0  0  0  0  0  0  0  0
    0.5323   -6.8664    5.2973 H   0  0  0  0  0  0  0  0  0  0  0  0
    0.8830   -8.9579    6.3975 H   0  0  0  0  0  0  0  0  0  0  0  0
    1.0731  -10.6803    4.8656 H   0  0  0  0  0  0  0  0  0  0  0  0
    2.8327  -10.7451    3.1101 H   0  0  0  0  0  0  0  0  0  0  0  0
    5.6528  -11.3576    5.5178 H   0  0  0  0  0  0  0  0  0  0  0  0
    6.2802  -10.7621    3.9988 H   0  0  0  0  0  0  0  0  0  0  0  0
    4.7096  -11.5963    4.0488 H   0  0  0  0  0  0  0  0  0  0  0  0
    3.9005   -6.5648    3.7841 H   0  0  0  0  0  0  0  0  0  0  0  0
    2.0262   -4.7761    4.5597 H   0  0  0  0  0  0  0  0  0  0  0  0
    0.6028   -5.2727    3.7099 H   0  0  0  0  0  0  0  0  0  0  0  0
    2.5359   -7.5214    7.2441 H   0  0  0  0  0  0  0  0  0  0  0  0
    3.5085  -10.6135    8.6334 H   0  0  0  0  0  0  0  0  0  0  0  0
    1.9985  -10.2516    7.8447 H   0  0  0  0  0  0  0  0  0  0  0  0
    2.6759   -9.1026    9.0080 H   0  0  0  0  0  0  0  0  0  0  0  0
  1  2  1  0
  1 37  1  0
  1 38  1  0
  1 39  1  0
  3  2  1  1
  2 40  1  0
  2 41  1  0
  3 31  1  0
  3 34  1  0
  3  4  1  0
  4  5  1  0
  4 42  1  0
  4 43  1  0
  5  6  1  0
  5 44  1  0
  5 45  1  0
  6 28  1  0
  6  7  1  6
  6  9  1  0
  7  8  1  0
  8 46  1  0
  8 47  1  0
  8 48  1  0
  9 19  1  0
  9 10  1  0
  9 49  1  6
 10 11  1  0
 11 18  2  0
 11 12  1  0
 12 13  1  0
 12 15  2  0
 13 14  1  0
 13 50  1  0
 13 51  1  0
 14 52  1  0
 15 16  1  0
 15 53  1  0
 16 17  2  0
 16 54  1  0
 17 33  1  0
 17 18  1  0
 18 19  1  0
 19 32  1  0
 19 20  1  6
 20 21  1  0
 20 55  1  0
 20 56  1  0
 21 22  1  0
 21 57  1  0
 21 58  1  0
 22 23  1  0
 22 24  1  0
 23 59  1  0
 23 60  1  0
 23 61  1  0
 24 32  1  0
 24 25  1  0
 24 62  1  1
 25 26  1  0
 25 34  1  0
 25 63  1  1
 26 27  2  0
 26 64  1  0
 27 28  1  0
 27 65  1  0
 28 29  1  1
 28 31  1  0
 29 30  1  0
 30 66  1  0
 30 67  1  0
 30 68  1  0
 31 32  1  0
 31 69  1  6
 32 33  1  6
 33 70  1  0
 33 71  1  0
 34 35  1  0
 34 72  1  1
 35 36  1  0
 36 73  1  0
 36 74  1  0
 36 75  1  0
M  END
>  <i_m_ct_stereo_status>  (362) 
1

>  <s_m_source_file>  (362) 
/var/tmp/pbs.5076255.sched01/tmpxe1g82q3/12669a6jj4p.sdf

>  <i_m_source_file_index>  (362) 
14

>  <i_lp_mmshare_version>  (362) 
48012

>  <i_f3d_flags>  (362) 
0

>  <s_epik_input>  (362) 
W0NIMl0xW0NIMl1OKFtDSDNdKVtDQEhdKFtDQF0yM1tDQF0xNDUpW0NASF02W0NIXT1bQ0hdW0NAQF03KE9bQ0gzXSlbQ0BdKE9bQ0gzXSkoW0NIMl1bQ0gyXUMoW0NIXTI3KShbQ0gyXVtDSDNdKVtDQEBIXTZPW0NIM10pW0NAQEhdNE9jOGM1YyhbQ0gyXTMpW2NIXVtjSF1jOFtDSDJdW09IXQ==

>  <s_epik_cmdline>  (362) 
J2VwaWtfcHl0aG9uJywgJy1waHQnLCAnMi4wJywgJy1waCcsICc3LjAnLCAnLXRuJywgJzgnLCAnLW1hJywgJzIwMCcsICctaW1hZScsICc8aW5maWxlLm1hZT4nLCAnLW9tYWUnLCAnPG91dGZpbGUubWFlPic=

>  <r_lp_tautomer_probability>  (362) 
1

>  <r_epik_Ionization_Penalty>  (362) 
1.98138

>  <r_epik_Ionization_Penalty_Charging>  (362) 
0

>  <r_epik_Ionization_Penalty_Neutral>  (362) 
1.98138

>  <r_epik_State_Penalty>  (362) 
2.10869

>  <r_epik_Charging_Adjusted_Penalty>  (362) 
2.10869

>  <i_epik_Tot_Q>  (362) 
0

>  <i_epik_Tot_abs_Q>  (362) 
0

>  <s_lp_Force_Field>  (362) 
OPLS3e

>  <r_lp_Energy>  (362) 
254.215

>  <b_lp_Chiralities_Consistent>  (362) 
1

>  <s_lp_Variant>  (362) 
104:0-2

>  <s_i_glide_gridfile>  (362) 
pfpi4k_grid

>  <i_i_glide_lignum>  (362) 
14

>  <i_i_glide_rotatable_bonds>  (362) 
6

>  <r_i_docking_score>  (362) 
-1.09194

>  <r_i_glide_ligand_efficiency>  (362) 
-0.0303316

>  <r_i_glide_ligand_efficiency_sa>  (362) 
-0.100153

>  <r_i_glide_ligand_efficiency_ln>  (362) 
-0.238232

>  <r_i_glide_gscore>  (362) 
-1.09194

>  <r_i_glide_lipo>  (362) 
-0.0552951

>  <r_i_glide_hbond>  (362) 
0

>  <r_i_glide_metal>  (362) 
-0

>  <r_i_glide_rewards>  (362) 
-0.0434021

>  <r_i_glide_evdw>  (362) 
-24.8749

>  <r_i_glide_ecoul>  (362) 
1.11266

>  <r_i_glide_erotb>  (362) 
0.0836068

>  <r_i_glide_esite>  (362) 
0

>  <r_i_glide_emodel>  (362) 
-23.4389

>  <r_i_glide_energy>  (362) 
-23.7623

>  <r_i_glide_einternal>  (362) 
1.89075

>  <r_i_glide_intrahb_reward>  (362) 
-0

>  <i_i_glide_confnum>  (362) 
3

>  <i_i_glide_posenum>  (362) 
37

>  <r_i_glide_eff_state_penalty>  (362) 
0

>  <ligand_id>  (362) 
104

>  <original_smiles>  (362) 
CCC12CCC3(OC)C4Oc5c(CO)ccc6c5C45CCN(C)C4C(C=CC3(OC)C1C45C6)C2OC

>  <smiles>  (362) 
[H]OC([H])([H])c1c([H])c([H])c2c3c1OC1([H])C4(OC([H])([H])[H])C([H])([H])C([H])([H])C5(C([H])([H])C([H])([H])[H])C([H])(OC([H])([H])[H])C6([H])C([H])=C([H])C4(OC([H])([H])[H])C5([H])C4(C2([H])[H])C6([H])N(C([H])([H])[H])C([H])([H])C([H])([H])C314

$$$$
104:1:2
     RDKit          3D

 75 82  0  0  1  0  0  0  0  0999 V2000
    3.0797   -5.3921    7.9882 C   0  0  0  0  0  0  0  0  0  0  0  0
    2.7924   -5.5744    6.4872 C   0  0  0  0  0  0  0  0  0  0  0  0
    3.0964   -6.9943    5.9270 C   0  0  2  0  0  0  0  0  0  0  0  0
    4.7349   -7.1613    5.8627 C   0  0  0  0  0  0  0  0  0  0  0  0
    5.4640   -7.5499    4.4114 C   0  0  0  0  0  0  0  0  0  0  0  0
    4.5890   -8.3606    3.2859 C   0  0  2  0  0  0  0  0  0  0  0  0
    5.3229   -9.4842    2.7949 O   0  0  0  0  0  0  0  0  0  0  0  0
    6.4720   -9.1966    2.0046 C   0  0  0  0  0  0  0  0  0  0  0  0
    3.8076   -7.7606    2.0070 C   0  0  2  0  0  0  0  0  0  0  0  0
    4.6286   -6.9191    1.1581 O   0  0  0  0  0  0  0  0  0  0  0  0
    4.0659   -5.6754    1.1728 C   0  0  0  0  0  0  0  0  0  0  0  0
    4.6124   -4.4140    0.8392 C   0  0  0  0  0  0  0  0  0  0  0  0
    5.9256   -4.3156    0.0694 C   0  0  0  0  0  0  0  0  0  0  0  0
    5.8760   -3.4033   -1.0120 O   0  0  0  0  0  0  0  0  0  0  0  0
    3.9427   -3.2344    1.2705 C   0  0  0  0  0  0  0  0  0  0  0  0
    2.8102   -3.2994    2.1316 C   0  0  0  0  0  0  0  0  0  0  0  0
    2.2784   -4.5681    2.4230 C   0  0  0  0  0  0  0  0  0  0  0  0
    2.8617   -5.6567    1.8338 C   0  0  0  0  0  0  0  0  0  0  0  0
    2.3819   -7.0065    2.2134 C   0  0  1  0  0  0  0  0  0  0  0  0
    1.2628   -7.4642    1.2449 C   0  0  0  0  0  0  0  0  0  0  0  0
   -0.1887   -7.3623    1.7751 C   0  0  0  0  0  0  0  0  0  0  0  0
   -0.3541   -7.9701    3.0955 N   0  0  0  0  0  0  0  0  0  0  0  0
   -1.7655   -8.0557    3.4614 C   0  0  0  0  0  0  0  0  0  0  0  0
    0.4803   -7.4165    4.1866 C   0  0  1  0  0  0  0  0  0  0  0  0
    0.8432   -8.4944    5.2881 C   0  0  1  0  0  0  0  0  0  0  0  0
    1.2373   -9.7125    4.4635 C   0  0  0  0  0  0  0  0  0  0  0  0
    2.3793   -9.7238    3.7586 C   0  0  0  0  0  0  0  0  0  0  0  0
    3.4571   -8.7592    4.1847 C   0  0  1  0  0  0  0  0  0  0  0  0
    4.0175   -9.5128    5.2995 O   0  0  0  0  0  0  0  0  0  0  0  0
    4.6675  -10.7802    5.1447 C   0  0  0  0  0  0  0  0  0  0  0  0
    2.9348   -7.2125    4.4796 C   0  0  1  0  0  0  0  0  0  0  0  0
    1.7647   -6.7206    3.6364 C   0  0  1  0  0  0  0  0  0  0  0  0
    1.4498   -5.1606    3.5330 C   0  0  0  0  0  0  0  0  0  0  0  0
    1.9209   -8.0021    6.4095 C   0  0  1  0  0  0  0  0  0  0  0  0
    2.3329   -9.1138    7.1997 O   0  0  0  0  0  0  0  0  0  0  0  0
    2.9182   -8.8215    8.4573 C   0  0  0  0  0  0  0  0  0  0  0  0
    2.9031   -4.3562    8.2826 H   0  0  0  0  0  0  0  0  0  0  0  0
    4.1077   -5.6429    8.2517 H   0  0  0  0  0  0  0  0  0  0  0  0
    2.4140   -6.0024    8.5964 H   0  0  0  0  0  0  0  0  0  0  0  0
    1.7386   -5.3380    6.3634 H   0  0  0  0  0  0  0  0  0  0  0  0
    3.3634   -4.8293    5.9290 H   0  0  0  0  0  0  0  0  0  0  0  0
    5.1936   -6.2285    6.1969 H   0  0  0  0  0  0  0  0  0  0  0  0
    5.0622   -7.8711    6.6231 H   0  0  0  0  0  0  0  0  0  0  0  0
    5.8756   -6.6500    3.9519 H   0  0  0  0  0  0  0  0  0  0  0  0
    6.3323   -8.1626    4.6623 H   0  0  0  0  0  0  0  0  0  0  0  0
    6.9927  -10.1293    1.7900 H   0  0  0  0  0  0  0  0  0  0  0  0
    7.1756   -8.5341    2.5091 H   0  0  0  0  0  0  0  0  0  0  0  0
    6.2180   -8.7608    1.0399 H   0  0  0  0  0  0  0  0  0  0  0  0
    3.5952   -8.6347    1.3924 H   0  0  0  0  0  0  0  0  0  0  0  0
    6.7129   -4.0020    0.7511 H   0  0  0  0  0  0  0  0  0  0  0  0
    6.2077   -5.2986   -0.3108 H   0  0  0  0  0  0  0  0  0  0  0  0
    6.6886   -3.4627   -1.4954 H   0  0  0  0  0  0  0  0  0  0  0  0
    4.3656   -2.2750    1.0225 H   0  0  0  0  0  0  0  0  0  0  0  0
    2.4209   -2.4067    2.6031 H   0  0  0  0  0  0  0  0  0  0  0  0
    1.3298   -6.8878    0.3244 H   0  0  0  0  0  0  0  0  0  0  0  0
    1.4432   -8.5004    0.9574 H   0  0  0  0  0  0  0  0  0  0  0  0
   -0.5350   -6.3342    1.7894 H   0  0  0  0  0  0  0  0  0  0  0  0
   -0.8389   -7.8879    1.0746 H   0  0  0  0  0  0  0  0  0  0  0  0
   -1.9039   -8.6200    4.3843 H   0  0  0  0  0  0  0  0  0  0  0  0
   -2.3293   -8.5731    2.6837 H   0  0  0  0  0  0  0  0  0  0  0  0
   -2.1993   -7.0637    3.5937 H   0  0  0  0  0  0  0  0  0  0  0  0
   -0.1065   -6.6490    4.6938 H   0  0  0  0  0  0  0  0  0  0  0  0
   -0.0614   -8.7946    5.8215 H   0  0  0  0  0  0  0  0  0  0  0  0
    0.4706  -10.4567    4.3023 H   0  0  0  0  0  0  0  0  0  0  0  0
    2.6205  -10.5204    3.0703 H   0  0  0  0  0  0  0  0  0  0  0  0
    4.6885  -11.2696    6.1173 H   0  0  0  0  0  0  0  0  0  0  0  0
    5.7080  -10.6645    4.8311 H   0  0  0  0  0  0  0  0  0  0  0  0
    4.1580  -11.4497    4.4512 H   0  0  0  0  0  0  0  0  0  0  0  0
    3.5531   -6.3857    4.1257 H   0  0  0  0  0  0  0  0  0  0  0  0
    1.5636   -4.5806    4.4389 H   0  0  0  0  0  0  0  0  0  0  0  0
    0.4192   -5.0193    3.2207 H   0  0  0  0  0  0  0  0  0  0  0  0
    1.2963   -7.4275    7.0894 H   0  0  0  0  0  0  0  0  0  0  0  0
    3.2018   -9.7563    8.9421 H   0  0  0  0  0  0  0  0  0  0  0  0
    2.2235   -8.3022    9.1187 H   0  0  0  0  0  0  0  0  0  0  0  0
    3.8218   -8.2233    8.3692 H   0  0  0  0  0  0  0  0  0  0  0  0
  1  2  1  0
  1 37  1  0
  1 38  1  0
  1 39  1  0
  3  2  1  6
  2 40  1  0
  2 41  1  0
  3 31  1  0
  3 34  1  0
  3  4  1  0
  4  5  1  0
  4 42  1  0
  4 43  1  0
  5  6  1  0
  5 44  1  0
  5 45  1  0
  6 28  1  0
  6  7  1  6
  6  9  1  0
  7  8  1  0
  8 46  1  0
  8 47  1  0
  8 48  1  0
  9 19  1  0
  9 10  1  0
  9 49  1  6
 10 11  1  0
 11 18  2  0
 11 12  1  0
 12 13  1  0
 12 15  2  0
 13 14  1  0
 13 50  1  0
 13 51  1  0
 14 52  1  0
 15 16  1  0
 15 53  1  0
 16 17  2  0
 16 54  1  0
 17 33  1  0
 17 18  1  0
 18 19  1  0
 19 32  1  0
 19 20  1  6
 20 21  1  0
 20 55  1  0
 20 56  1  0
 21 22  1  0
 21 57  1  0
 21 58  1  0
 22 23  1  0
 22 24  1  0
 23 59  1  0
 23 60  1  0
 23 61  1  0
 24 32  1  0
 24 25  1  0
 24 62  1  1
 25 26  1  0
 25 34  1  0
 25 63  1  1
 26 27  2  0
 26 64  1  0
 27 28  1  0
 27 65  1  0
 28 29  1  1
 28 31  1  0
 29 30  1  0
 30 66  1  0
 30 67  1  0
 30 68  1  0
 31 32  1  0
 31 69  1  6
 32 33  1  6
 33 70  1  0
 33 71  1  0
 34 35  1  0
 34 72  1  1
 35 36  1  0
 36 73  1  0
 36 74  1  0
 36 75  1  0
M  END
>  <i_m_ct_stereo_status>  (363) 
1

>  <s_m_source_file>  (363) 
/var/tmp/pbs.5076255.sched01/tmpxe1g82q3/12669a6jj4p.sdf

>  <i_m_source_file_index>  (363) 
14

>  <i_lp_mmshare_version>  (363) 
48012

>  <i_f3d_flags>  (363) 
0

>  <s_epik_input>  (363) 
W0NIMl0xW0NIMl1OKFtDSDNdKVtDQEhdKFtDQF0yM1tDQF0xNDUpW0NASF02W0NIXT1bQ0hdW0NAQF03KE9bQ0gzXSlbQ0BdKE9bQ0gzXSkoW0NIMl1bQ0gyXUMoW0NIXTI3KShbQ0gyXVtDSDNdKVtDQEBIXTZPW0NIM10pW0NAQEhdNE9jOGM1YyhbQ0gyXTMpW2NIXVtjSF1jOFtDSDJdW09IXQ==

>  <s_epik_cmdline>  (363) 
J2VwaWtfcHl0aG9uJywgJy1waHQnLCAnMi4wJywgJy1waCcsICc3LjAnLCAnLXRuJywgJzgnLCAnLW1hJywgJzIwMCcsICctaW1hZScsICc8aW5maWxlLm1hZT4nLCAnLW9tYWUnLCAnPG91dGZpbGUubWFlPic=

>  <r_lp_tautomer_probability>  (363) 
1

>  <r_epik_Ionization_Penalty>  (363) 
1.98138

>  <r_epik_Ionization_Penalty_Charging>  (363) 
0

>  <r_epik_Ionization_Penalty_Neutral>  (363) 
1.98138

>  <r_epik_State_Penalty>  (363) 
2.10869

>  <r_epik_Charging_Adjusted_Penalty>  (363) 
2.10869

>  <i_epik_Tot_Q>  (363) 
0

>  <i_epik_Tot_abs_Q>  (363) 
0

>  <s_lp_Force_Field>  (363) 
OPLS3e

>  <r_lp_Energy>  (363) 
254.215

>  <b_lp_Chiralities_Consistent>  (363) 
1

>  <s_lp_Variant>  (363) 
104:0-2

>  <s_i_glide_gridfile>  (363) 
pfpi4k_grid

>  <i_i_glide_lignum>  (363) 
14

>  <i_i_glide_rotatable_bonds>  (363) 
6

>  <r_i_docking_score>  (363) 
-1.01957

>  <r_i_glide_ligand_efficiency>  (363) 
-0.0283214

>  <r_i_glide_ligand_efficiency_sa>  (363) 
-0.0935153

>  <r_i_glide_ligand_efficiency_ln>  (363) 
-0.222443

>  <r_i_glide_gscore>  (363) 
-1.01957

>  <r_i_glide_lipo>  (363) 
-0.203848

>  <r_i_glide_hbond>  (363) 
0

>  <r_i_glide_metal>  (363) 
-0

>  <r_i_glide_rewards>  (363) 
-0.0434021

>  <r_i_glide_evdw>  (363) 
-25.1724

>  <r_i_glide_ecoul>  (363) 
2.6846

>  <r_i_glide_erotb>  (363) 
0.0836068

>  <r_i_glide_esite>  (363) 
0

>  <r_i_glide_emodel>  (363) 
-23.1948

>  <r_i_glide_energy>  (363) 
-22.4878

>  <r_i_glide_einternal>  (363) 
0.158611

>  <r_i_glide_intrahb_reward>  (363) 
-0

>  <i_i_glide_confnum>  (363) 
5

>  <i_i_glide_posenum>  (363) 
38

>  <r_i_glide_eff_state_penalty>  (363) 
0

>  <ligand_id>  (363) 
104

>  <original_smiles>  (363) 
CCC12CCC3(OC)C4Oc5c(CO)ccc6c5C45CCN(C)C4C(C=CC3(OC)C1C45C6)C2OC

>  <smiles>  (363) 
[H]OC([H])([H])c1c([H])c([H])c2c3c1OC1([H])C4(OC([H])([H])[H])C([H])([H])C([H])([H])C5(C([H])([H])C([H])([H])[H])C([H])(OC([H])([H])[H])C6([H])C([H])=C([H])C4(OC([H])([H])[H])C5([H])C4(C2([H])[H])C6([H])N(C([H])([H])[H])C([H])([H])C([H])([H])C314

$$$$
105:0:0
     RDKit          3D

 50 54  0  0  1  0  0  0  0  0999 V2000
    5.2732   -5.4585    5.0534 C   0  0  0  0  0  0  0  0  0  0  0  0
    4.7299   -4.8955    3.9647 C   0  0  0  0  0  0  0  0  0  0  0  0
    4.9002   -3.4264    3.6381 C   0  0  0  0  0  0  0  0  0  0  0  0
    4.2597   -2.9417    2.3007 C   0  0  1  0  0  0  0  0  0  0  0  0
    4.3142   -1.4288    2.4801 C   0  0  0  0  0  0  0  0  0  0  0  0
    5.3047   -0.6737    1.9910 C   0  0  0  0  0  0  0  0  0  0  0  0
    6.2871   -1.2225    1.0930 C   0  0  0  0  0  0  0  0  0  0  0  0
    6.1353   -2.4379    0.5407 C   0  0  0  0  0  0  0  0  0  0  0  0
    6.8330   -2.6738   -0.7105 C   0  0  0  0  0  0  0  0  0  0  0  0
    6.0990   -3.1212   -1.7461 C   0  0  0  0  0  0  0  0  0  0  0  0
    4.6606   -3.2969   -1.5709 C   0  0  0  0  0  0  0  0  0  0  0  0
    4.1317   -3.3912   -0.3277 C   0  0  0  0  0  0  0  0  0  0  0  0
    5.0011   -3.4217    0.9565 C   0  0  2  0  0  0  0  0  0  0  0  0
    5.5273   -4.9241    1.0751 C   0  0  1  0  0  0  0  0  0  0  0  0
    6.9461   -5.0377    1.6809 C   0  0  0  0  0  0  0  0  0  0  0  0
    7.9496   -4.9967    0.9676 O   0  0  0  0  0  0  0  0  0  0  0  0
    4.5264   -6.0163    1.6541 C   0  0  2  0  0  0  0  0  0  0  0  0
    5.2298   -7.3948    1.7983 C   0  0  0  0  0  0  0  0  0  0  0  0
    3.3026   -6.2376    0.7300 C   0  0  0  0  0  0  0  0  0  0  0  0
    2.0480   -5.6786    1.4257 C   0  0  1  0  0  0  0  0  0  0  0  0
    1.1648   -6.7387    1.7465 O   0  0  0  0  0  0  0  0  0  0  0  0
    2.5354   -4.9134    2.6798 C   0  0  2  0  0  0  0  0  0  0  0  0
    1.5487   -4.9555    3.8731 C   0  0  0  0  0  0  0  0  0  0  0  0
    2.7950   -3.4229    2.3425 C   0  0  0  0  0  0  0  0  0  0  0  0
    1.8627   -2.6489    2.1248 O   0  0  0  0  0  0  0  0  0  0  0  0
    3.8486   -5.6615    3.0054 C   0  0  2  0  0  0  0  0  0  0  0  0
    5.1244   -6.5090    5.2683 H   0  0  0  0  0  0  0  0  0  0  0  0
    5.8788   -4.8793    5.7366 H   0  0  0  0  0  0  0  0  0  0  0  0
    4.4250   -2.8988    4.4686 H   0  0  0  0  0  0  0  0  0  0  0  0
    5.9473   -3.1519    3.6859 H   0  0  0  0  0  0  0  0  0  0  0  0
    3.5706   -0.9741    3.1192 H   0  0  0  0  0  0  0  0  0  0  0  0
    5.3158    0.3785    2.2172 H   0  0  0  0  0  0  0  0  0  0  0  0
    7.0319   -0.5598    0.6850 H   0  0  0  0  0  0  0  0  0  0  0  0
    7.9032   -2.5421   -0.7901 H   0  0  0  0  0  0  0  0  0  0  0  0
    6.5743   -3.3558   -2.6887 H   0  0  0  0  0  0  0  0  0  0  0  0
    4.0127   -3.3146   -2.4379 H   0  0  0  0  0  0  0  0  0  0  0  0
    3.0620   -3.4761   -0.2404 H   0  0  0  0  0  0  0  0  0  0  0  0
    5.7094   -5.2519    0.0521 H   0  0  0  0  0  0  0  0  0  0  0  0
    6.9990   -5.1723    2.7587 H   0  0  0  0  0  0  0  0  0  0  0  0
    4.5194   -8.1862    2.0549 H   0  0  0  0  0  0  0  0  0  0  0  0
    5.9840   -7.4002    2.5873 H   0  0  0  0  0  0  0  0  0  0  0  0
    5.7139   -7.6921    0.8679 H   0  0  0  0  0  0  0  0  0  0  0  0
    3.4323   -5.8089   -0.2611 H   0  0  0  0  0  0  0  0  0  0  0  0
    3.1688   -7.2982    0.5260 H   0  0  0  0  0  0  0  0  0  0  0  0
    1.5013   -5.0364    0.7390 H   0  0  0  0  0  0  0  0  0  0  0  0
    1.6427   -7.3809    2.2534 H   0  0  0  0  0  0  0  0  0  0  0  0
    1.4156   -5.9644    4.2618 H   0  0  0  0  0  0  0  0  0  0  0  0
    0.5674   -4.5748    3.5952 H   0  0  0  0  0  0  0  0  0  0  0  0
    1.9104   -4.3445    4.7009 H   0  0  0  0  0  0  0  0  0  0  0  0
    3.5678   -6.5938    3.5039 H   0  0  0  0  0  0  0  0  0  0  0  0
  1  2  2  0
  1 27  1  0
  1 28  1  0
  2 26  1  0
  2  3  1  0
  3  4  1  0
  3 29  1  0
  3 30  1  0
  4 13  1  0
  4 24  1  0
  4  5  1  1
  5  6  2  0
  5 31  1  0
  6  7  1  0
  6 32  1  0
  7  8  2  0
  7 33  1  0
  8 13  1  0
  8  9  1  0
  9 10  2  0
  9 34  1  0
 10 11  1  0
 10 35  1  0
 11 12  2  0
 11 36  1  0
 13 12  1  6
 12 37  1  0
 13 14  1  0
 14 15  1  0
 14 17  1  0
 14 38  1  6
 15 16  2  0
 15 39  1  0
 17 26  1  0
 17 18  1  1
 17 19  1  0
 18 40  1  0
 18 41  1  0
 18 42  1  0
 19 20  1  0
 19 43  1  0
 19 44  1  0
 20 21  1  0
 20 22  1  0
 20 45  1  6
 21 46  1  0
 22 23  1  1
 22 24  1  0
 22 26  1  0
 23 47  1  0
 23 48  1  0
 23 49  1  0
 24 25  2  0
 26 50  1  1
M  END
>  <i_m_ct_stereo_status>  (364) 
1

>  <s_m_source_file>  (364) 
/var/tmp/pbs.5076255.sched01/tmpxe1g82q3/12669a6jj4p.sdf

>  <i_m_source_file_index>  (364) 
15

>  <i_lp_mmshare_version>  (364) 
48012

>  <i_f3d_flags>  (364) 
1

>  <s_epik_input>  (364) 
W0NIMl0xW0NAQEhdKFtPSF0pW0NAXShbQ0gzXSkoQzI9TylbQ0BIXShDKD1bQ0gyXSlbQ0gyXTMpW0NAXTEoW0NIM10pW0NASF0oW0NIXT1PKVtDQEBdNChbQ0BAXTIzNSlDKD1bQ0hdW0NIXT1bQ0hdNSlbQ0hdPVtDSF1bQ0hdPVtDSF00

>  <s_epik_cmdline>  (364) 
J2VwaWtfcHl0aG9uJywgJy1waHQnLCAnMi4wJywgJy1waCcsICc3LjAnLCAnLXRuJywgJzgnLCAnLW1hJywgJzIwMCcsICctaW1hZScsICc8aW5maWxlLm1hZT4nLCAnLW9tYWUnLCAnPG91dGZpbGUubWFlPic=

>  <r_lp_tautomer_probability>  (364) 
1

>  <r_epik_Ionization_Penalty>  (364) 
2.30859e-06

>  <r_epik_Ionization_Penalty_Charging>  (364) 
0

>  <r_epik_Ionization_Penalty_Neutral>  (364) 
2.30859e-06

>  <r_epik_State_Penalty>  (364) 
-0

>  <r_epik_Charging_Adjusted_Penalty>  (364) 
0

>  <i_epik_Tot_Q>  (364) 
0

>  <i_epik_Tot_abs_Q>  (364) 
0

>  <s_lp_Force_Field>  (364) 
OPLS3e

>  <r_lp_Energy>  (364) 
73.2437

>  <b_lp_Chiralities_Consistent>  (364) 
1

>  <s_lp_Variant>  (364) 
105:0-1

>  <s_i_glide_gridfile>  (364) 
pfpi4k_grid

>  <i_i_glide_lignum>  (364) 
15

>  <i_i_glide_rotatable_bonds>  (364) 
2

>  <r_i_docking_score>  (364) 
-2.99541

>  <r_i_glide_ligand_efficiency>  (364) 
-0.115208

>  <r_i_glide_ligand_efficiency_sa>  (364) 
-0.341304

>  <r_i_glide_ligand_efficiency_ln>  (364) 
-0.703462

>  <r_i_glide_gscore>  (364) 
-2.99541

>  <r_i_glide_lipo>  (364) 
-0.755994

>  <r_i_glide_hbond>  (364) 
0

>  <r_i_glide_metal>  (364) 
-0

>  <r_i_glide_rewards>  (364) 
-1.14118

>  <r_i_glide_evdw>  (364) 
-23.9493

>  <r_i_glide_ecoul>  (364) 
0.673509

>  <r_i_glide_erotb>  (364) 
0

>  <r_i_glide_esite>  (364) 
-0.00179434

>  <r_i_glide_emodel>  (364) 
-27.554

>  <r_i_glide_energy>  (364) 
-23.2758

>  <r_i_glide_einternal>  (364) 
0.388933

>  <r_i_glide_intrahb_reward>  (364) 
-0

>  <i_i_glide_confnum>  (364) 
1

>  <i_i_glide_posenum>  (364) 
36

>  <r_i_glide_eff_state_penalty>  (364) 
0

>  <ligand_id>  (364) 
105

>  <original_smiles>  (364) 
C=C1CC23C=CC=C4C=CC=CC42C(C=O)C2(C)CC(O)C(C)(C3=O)C12

>  <smiles>  (364) 
[H]OC1([H])C([H])([H])C2(C([H])([H])[H])C([H])(C([H])=O)C34C([H])=C([H])C([H])=C([H])C3=C([H])C([H])=C([H])C43C(=O)C1(C([H])([H])[H])C2([H])C(=C([H])[H])C3([H])[H]

$$$$
105:0:1
     RDKit          3D

 50 54  0  0  1  0  0  0  0  0999 V2000
    5.8651   -5.3435    4.8192 C   0  0  0  0  0  0  0  0  0  0  0  0
    4.9807   -4.8330    3.9491 C   0  0  0  0  0  0  0  0  0  0  0  0
    4.8685   -3.3454    3.6791 C   0  0  0  0  0  0  0  0  0  0  0  0
    3.8239   -2.9188    2.6015 C   0  0  1  0  0  0  0  0  0  0  0  0
    3.7328   -1.4160    2.8560 C   0  0  0  0  0  0  0  0  0  0  0  0
    4.4491   -0.5113    2.1718 C   0  0  0  0  0  0  0  0  0  0  0  0
    5.2191   -0.8904    1.0144 C   0  0  0  0  0  0  0  0  0  0  0  0
    5.0713   -2.1003    0.4443 C   0  0  0  0  0  0  0  0  0  0  0  0
    5.4215   -2.2063   -0.9619 C   0  0  0  0  0  0  0  0  0  0  0  0
    4.5058   -2.7420   -1.7886 C   0  0  0  0  0  0  0  0  0  0  0  0
    3.2052   -3.1193   -1.2498 C   0  0  0  0  0  0  0  0  0  0  0  0
    3.0538   -3.3178    0.0805 C   0  0  0  0  0  0  0  0  0  0  0  0
    4.2335   -3.2515    1.0823 C   0  0  2  0  0  0  0  0  0  0  0  0
    4.9627   -4.6682    0.9633 C   0  0  1  0  0  0  0  0  0  0  0  0
    6.4954   -4.5912    1.1781 C   0  0  0  0  0  0  0  0  0  0  0  0
    7.2592   -4.2873    0.2622 O   0  0  0  0  0  0  0  0  0  0  0  0
    4.2974   -5.9105    1.7080 C   0  0  2  0  0  0  0  0  0  0  0  0
    5.1845   -7.1778    1.5669 C   0  0  0  0  0  0  0  0  0  0  0  0
    2.9027   -6.2824    1.1291 C   0  0  0  0  0  0  0  0  0  0  0  0
    1.8267   -5.9273    2.1774 C   0  0  1  0  0  0  0  0  0  0  0  0
    1.2264   -7.1181    2.6525 O   0  0  0  0  0  0  0  0  0  0  0  0
    2.5399   -5.1329    3.2985 C   0  0  2  0  0  0  0  0  0  0  0  0
    1.9290   -5.3448    4.7058 C   0  0  0  0  0  0  0  0  0  0  0  0
    2.4991   -3.6132    2.9976 C   0  0  0  0  0  0  0  0  0  0  0  0
    1.4393   -2.9861    3.0693 O   0  0  0  0  0  0  0  0  0  0  0  0
    3.9784   -5.6925    3.2124 C   0  0  2  0  0  0  0  0  0  0  0  0
    5.9170   -6.4098    5.0003 H   0  0  0  0  0  0  0  0  0  0  0  0
    6.5542   -4.7046    5.3540 H   0  0  0  0  0  0  0  0  0  0  0  0
    4.5808   -2.9120    4.6396 H   0  0  0  0  0  0  0  0  0  0  0  0
    5.8431   -2.9265    3.4460 H   0  0  0  0  0  0  0  0  0  0  0  0
    3.1332   -1.0915    3.6943 H   0  0  0  0  0  0  0  0  0  0  0  0
    4.3790    0.5338    2.4379 H   0  0  0  0  0  0  0  0  0  0  0  0
    5.7316   -0.1113    0.4698 H   0  0  0  0  0  0  0  0  0  0  0  0
    6.3970   -1.9143   -1.3177 H   0  0  0  0  0  0  0  0  0  0  0  0
    4.7296   -2.8836   -2.8361 H   0  0  0  0  0  0  0  0  0  0  0  0
    2.3536   -3.1938   -1.9140 H   0  0  0  0  0  0  0  0  0  0  0  0
    2.0714   -3.5494    0.4465 H   0  0  0  0  0  0  0  0  0  0  0  0
    4.9065   -4.9384   -0.0916 H   0  0  0  0  0  0  0  0  0  0  0  0
    6.8564   -4.8433    2.1736 H   0  0  0  0  0  0  0  0  0  0  0  0
    4.6841   -8.0683    1.9569 H   0  0  0  0  0  0  0  0  0  0  0  0
    6.1230   -7.0995    2.1198 H   0  0  0  0  0  0  0  0  0  0  0  0
    5.4141   -7.3756    0.5193 H   0  0  0  0  0  0  0  0  0  0  0  0
    2.7052   -5.8134    0.1690 H   0  0  0  0  0  0  0  0  0  0  0  0
    2.8433   -7.3463    0.8933 H   0  0  0  0  0  0  0  0  0  0  0  0
    1.0203   -5.3555    1.7251 H   0  0  0  0  0  0  0  0  0  0  0  0
    1.9031   -7.6741    3.0138 H   0  0  0  0  0  0  0  0  0  0  0  0
    2.0397   -6.3717    5.0517 H   0  0  0  0  0  0  0  0  0  0  0  0
    0.8661   -5.1046    4.7215 H   0  0  0  0  0  0  0  0  0  0  0  0
    2.4181   -4.7092    5.4452 H   0  0  0  0  0  0  0  0  0  0  0  0
    3.9689   -6.6677    3.7078 H   0  0  0  0  0  0  0  0  0  0  0  0
  1  2  2  0
  1 27  1  0
  1 28  1  0
  2 26  1  0
  2  3  1  0
  3  4  1  0
  3 29  1  0
  3 30  1  0
  4 13  1  0
  4 24  1  0
  4  5  1  6
  5  6  2  0
  5 31  1  0
  6  7  1  0
  6 32  1  0
  7  8  2  0
  7 33  1  0
  8 13  1  0
  8  9  1  0
  9 10  2  0
  9 34  1  0
 10 11  1  0
 10 35  1  0
 11 12  2  0
 11 36  1  0
 13 12  1  6
 12 37  1  0
 13 14  1  0
 14 15  1  0
 14 17  1  0
 14 38  1  6
 15 16  2  0
 15 39  1  0
 17 26  1  0
 17 18  1  1
 17 19  1  0
 18 40  1  0
 18 41  1  0
 18 42  1  0
 19 20  1  0
 19 43  1  0
 19 44  1  0
 20 21  1  0
 20 22  1  0
 20 45  1  6
 21 46  1  0
 22 23  1  1
 22 24  1  0
 22 26  1  0
 23 47  1  0
 23 48  1  0
 23 49  1  0
 24 25  2  0
 26 50  1  1
M  END
>  <i_m_ct_stereo_status>  (365) 
1

>  <s_m_source_file>  (365) 
/var/tmp/pbs.5076255.sched01/tmpxe1g82q3/12669a6jj4p.sdf

>  <i_m_source_file_index>  (365) 
15

>  <i_lp_mmshare_version>  (365) 
48012

>  <i_f3d_flags>  (365) 
1

>  <s_epik_input>  (365) 
W0NIMl0xW0NAQEhdKFtPSF0pW0NAXShbQ0gzXSkoQzI9TylbQ0BIXShDKD1bQ0gyXSlbQ0gyXTMpW0NAXTEoW0NIM10pW0NASF0oW0NIXT1PKVtDQEBdNChbQ0BAXTIzNSlDKD1bQ0hdW0NIXT1bQ0hdNSlbQ0hdPVtDSF1bQ0hdPVtDSF00

>  <s_epik_cmdline>  (365) 
J2VwaWtfcHl0aG9uJywgJy1waHQnLCAnMi4wJywgJy1waCcsICc3LjAnLCAnLXRuJywgJzgnLCAnLW1hJywgJzIwMCcsICctaW1hZScsICc8aW5maWxlLm1hZT4nLCAnLW9tYWUnLCAnPG91dGZpbGUubWFlPic=

>  <r_lp_tautomer_probability>  (365) 
1

>  <r_epik_Ionization_Penalty>  (365) 
2.30859e-06

>  <r_epik_Ionization_Penalty_Charging>  (365) 
0

>  <r_epik_Ionization_Penalty_Neutral>  (365) 
2.30859e-06

>  <r_epik_State_Penalty>  (365) 
-0

>  <r_epik_Charging_Adjusted_Penalty>  (365) 
0

>  <i_epik_Tot_Q>  (365) 
0

>  <i_epik_Tot_abs_Q>  (365) 
0

>  <s_lp_Force_Field>  (365) 
OPLS3e

>  <r_lp_Energy>  (365) 
73.2437

>  <b_lp_Chiralities_Consistent>  (365) 
1

>  <s_lp_Variant>  (365) 
105:0-1

>  <s_i_glide_gridfile>  (365) 
pfpi4k_grid

>  <i_i_glide_lignum>  (365) 
15

>  <i_i_glide_rotatable_bonds>  (365) 
2

>  <r_i_docking_score>  (365) 
-2.61866

>  <r_i_glide_ligand_efficiency>  (365) 
-0.100718

>  <r_i_glide_ligand_efficiency_sa>  (365) 
-0.298376

>  <r_i_glide_ligand_efficiency_ln>  (365) 
-0.614985

>  <r_i_glide_gscore>  (365) 
-2.61866

>  <r_i_glide_lipo>  (365) 
-0.477869

>  <r_i_glide_hbond>  (365) 
0

>  <r_i_glide_metal>  (365) 
-0

>  <r_i_glide_rewards>  (365) 
-1.16731

>  <r_i_glide_evdw>  (365) 
-25.0018

>  <r_i_glide_ecoul>  (365) 
1.85169

>  <r_i_glide_erotb>  (365) 
0

>  <r_i_glide_esite>  (365) 
-0.00115033

>  <r_i_glide_emodel>  (365) 
-26.8217

>  <r_i_glide_energy>  (365) 
-23.1501

>  <r_i_glide_einternal>  (365) 
0.444

>  <r_i_glide_intrahb_reward>  (365) 
-0

>  <i_i_glide_confnum>  (365) 
1

>  <i_i_glide_posenum>  (365) 
13

>  <r_i_glide_eff_state_penalty>  (365) 
0

>  <ligand_id>  (365) 
105

>  <original_smiles>  (365) 
C=C1CC23C=CC=C4C=CC=CC42C(C=O)C2(C)CC(O)C(C)(C3=O)C12

>  <smiles>  (365) 
[H]OC1([H])C([H])([H])C2(C([H])([H])[H])C([H])(C([H])=O)C34C([H])=C([H])C([H])=C([H])C3=C([H])C([H])=C([H])C43C(=O)C1(C([H])([H])[H])C2([H])C(=C([H])[H])C3([H])[H]

$$$$
106:0:0
     RDKit          3D

 87 93  0  0  1  0  0  0  0  0999 V2000
    2.6942  -11.1052    5.2804 C   0  0  0  0  0  0  0  0  0  0  0  0
    1.3120  -10.5168    4.9316 C   0  0  2  0  0  0  0  0  0  0  0  0
    1.0085  -10.7445    3.4406 C   0  0  0  0  0  0  0  0  0  0  0  0
   -0.0282   -9.7725    2.8917 C   0  0  0  0  0  0  0  0  0  0  0  0
    0.4192   -8.3035    3.0001 C   0  0  2  0  0  0  0  0  0  0  0  0
   -0.7284   -7.4865    2.3507 C   0  0  0  0  0  0  0  0  0  0  0  0
    1.7119   -8.0219    2.1917 C   0  0  0  0  0  0  0  0  0  0  0  0
    2.3299   -6.6174    2.4123 C   0  0  0  0  0  0  0  0  0  0  0  0
    2.6706   -6.2371    3.9062 C   0  0  2  0  0  0  0  0  0  0  0  0
    3.6767   -7.3291    4.4097 C   0  0  0  0  0  0  0  0  0  0  0  0
    1.2963   -6.5160    4.6504 C   0  0  2  0  0  0  0  0  0  0  0  0
    1.1398   -5.8131    5.9968 C   0  0  1  0  0  0  0  0  0  0  0  0
    2.0254   -6.2849    6.9826 O   0  0  0  0  0  0  0  0  0  0  0  0
    1.2701   -4.2867    5.8313 C   0  0  0  0  0  0  0  0  0  0  0  0
    2.0205   -3.6923    4.5856 C   0  0  1  0  0  0  0  0  0  0  0  0
    1.0213   -3.5204    3.3894 C   0  0  0  0  0  0  0  0  0  0  0  0
    2.2906   -2.2175    5.0936 C   0  0  0  0  0  0  0  0  0  0  0  0
    3.4200   -1.7690    5.6750 C   0  0  0  0  0  0  0  0  0  0  0  0
    4.5071   -1.5110    4.7756 C   0  0  0  0  0  0  0  0  0  0  0  0
    4.2934   -1.6604    3.4670 C   0  0  0  0  0  0  0  0  0  0  0  0
    3.4217   -1.2468    2.5486 C   0  0  0  0  0  0  0  0  0  0  0  0
    3.9770   -1.9716    1.5587 C   0  0  0  0  0  0  0  0  0  0  0  0
    4.7932   -2.7515    2.5953 C   0  0  2  0  0  0  0  0  0  0  0  0
    4.1402   -4.1927    2.8008 C   0  0  1  0  0  0  0  0  0  0  0  0
    5.3192   -5.1353    2.4409 C   0  0  0  0  0  0  0  0  0  0  0  0
    3.2703   -4.6802    4.1147 C   0  0  2  0  0  0  0  0  0  0  0  0
    4.3217   -4.7339    5.2740 C   0  0  0  0  0  0  0  0  0  0  0  0
    2.3625   -0.3372    2.5664 N   0  0  0  0  0  0  0  0  0  0  0  0
    2.0320    0.3847    1.3412 C   0  0  0  0  0  0  0  0  0  0  0  0
    1.4190   -0.2099    3.6362 C   0  0  0  0  0  0  0  0  0  0  0  0
    0.4425    0.8309    3.5856 C   0  0  0  0  0  0  0  0  0  0  0  0
   -0.5334    0.9882    4.5860 C   0  0  0  0  0  0  0  0  0  0  0  0
   -1.6797    2.2747    4.4949 Cl  0  0  0  0  0  0  0  0  0  0  0  0
   -0.5706    0.1064    5.6730 C   0  0  0  0  0  0  0  0  0  0  0  0
    0.3698   -0.9238    5.7468 C   0  0  0  0  0  0  0  0  0  0  0  0
    1.3590   -1.1017    4.7617 C   0  0  0  0  0  0  0  0  0  0  0  0
    0.6183   -7.9307    4.5090 C   0  0  2  0  0  0  0  0  0  0  0  0
    1.1265   -9.0667    5.4835 C   0  0  1  0  0  0  0  0  0  0  0  0
    0.2293   -9.1488    6.7412 C   0  0  0  0  0  0  0  0  0  0  0  0
    3.5132  -10.5941    4.7680 H   0  0  0  0  0  0  0  0  0  0  0  0
    2.7490  -12.1576    5.0088 H   0  0  0  0  0  0  0  0  0  0  0  0
    2.8906  -11.0477    6.3527 H   0  0  0  0  0  0  0  0  0  0  0  0
    0.5896  -11.1586    5.4543 H   0  0  0  0  0  0  0  0  0  0  0  0
    1.9207  -10.7380    2.8366 H   0  0  0  0  0  0  0  0  0  0  0  0
    0.6263  -11.7531    3.3242 H   0  0  0  0  0  0  0  0  0  0  0  0
   -0.2573  -10.0448    1.8592 H   0  0  0  0  0  0  0  0  0  0  0  0
   -0.9645   -9.9088    3.4309 H   0  0  0  0  0  0  0  0  0  0  0  0
   -0.5152   -6.4207    2.3038 H   0  0  0  0  0  0  0  0  0  0  0  0
   -1.6740   -7.6156    2.8777 H   0  0  0  0  0  0  0  0  0  0  0  0
   -0.8923   -7.8057    1.3207 H   0  0  0  0  0  0  0  0  0  0  0  0
    2.4771   -8.7665    2.3864 H   0  0  0  0  0  0  0  0  0  0  0  0
    1.4984   -8.1549    1.1313 H   0  0  0  0  0  0  0  0  0  0  0  0
    3.1978   -6.5975    1.7646 H   0  0  0  0  0  0  0  0  0  0  0  0
    1.6674   -5.8960    1.9543 H   0  0  0  0  0  0  0  0  0  0  0  0
    3.8066   -7.3099    5.4904 H   0  0  0  0  0  0  0  0  0  0  0  0
    4.6688   -7.2683    3.9766 H   0  0  0  0  0  0  0  0  0  0  0  0
    3.3675   -8.3437    4.1971 H   0  0  0  0  0  0  0  0  0  0  0  0
    0.5507   -5.9641    4.1139 H   0  0  0  0  0  0  0  0  0  0  0  0
    0.1353   -6.0103    6.3852 H   0  0  0  0  0  0  0  0  0  0  0  0
    1.9212   -7.2294    7.0523 H   0  0  0  0  0  0  0  0  0  0  0  0
    0.2579   -3.8854    5.8276 H   0  0  0  0  0  0  0  0  0  0  0  0
    1.6956   -3.8959    6.7594 H   0  0  0  0  0  0  0  0  0  0  0  0
    0.6612   -4.4118    2.9138 H   0  0  0  0  0  0  0  0  0  0  0  0
    1.4669   -2.9593    2.5753 H   0  0  0  0  0  0  0  0  0  0  0  0
    0.1132   -2.9959    3.6801 H   0  0  0  0  0  0  0  0  0  0  0  0
    3.8660   -2.5028    6.3216 H   0  0  0  0  0  0  0  0  0  0  0  0
    5.4351   -1.9104    5.1171 H   0  0  0  0  0  0  0  0  0  0  0  0
    3.8187   -2.0718    0.4896 H   0  0  0  0  0  0  0  0  0  0  0  0
    5.8889   -2.7425    2.4504 H   0  0  0  0  0  0  0  0  0  0  0  0
    3.4271   -4.3006    1.9817 H   0  0  0  0  0  0  0  0  0  0  0  0
    6.1088   -5.0754    3.1948 H   0  0  0  0  0  0  0  0  0  0  0  0
    5.7565   -4.8259    1.4910 H   0  0  0  0  0  0  0  0  0  0  0  0
    5.0838   -6.1824    2.2998 H   0  0  0  0  0  0  0  0  0  0  0  0
    3.8779   -4.7668    6.2656 H   0  0  0  0  0  0  0  0  0  0  0  0
    5.0109   -3.9065    5.2509 H   0  0  0  0  0  0  0  0  0  0  0  0
    5.0426   -5.5447    5.2334 H   0  0  0  0  0  0  0  0  0  0  0  0
    0.9886    0.2499    1.0590 H   0  0  0  0  0  0  0  0  0  0  0  0
    2.6319    0.0587    0.4918 H   0  0  0  0  0  0  0  0  0  0  0  0
    2.2035    1.4567    1.4626 H   0  0  0  0  0  0  0  0  0  0  0  0
    0.4144    1.5553    2.7842 H   0  0  0  0  0  0  0  0  0  0  0  0
   -1.3021    0.2360    6.4577 H   0  0  0  0  0  0  0  0  0  0  0  0
    0.3625   -1.5867    6.6097 H   0  0  0  0  0  0  0  0  0  0  0  0
   -0.4044   -7.7740    4.8423 H   0  0  0  0  0  0  0  0  0  0  0  0
    2.0893   -8.7587    5.8748 H   0  0  0  0  0  0  0  0  0  0  0  0
   -0.7685   -9.5064    6.4868 H   0  0  0  0  0  0  0  0  0  0  0  0
    0.1149   -8.1914    7.2459 H   0  0  0  0  0  0  0  0  0  0  0  0
    0.6484   -9.8493    7.4659 H   0  0  0  0  0  0  0  0  0  0  0  0
  1  2  1  0
  1 40  1  0
  1 41  1  0
  1 42  1  0
  2 38  1  0
  2  3  1  0
  2 43  1  1
  3  4  1  0
  3 44  1  0
  3 45  1  0
  4  5  1  0
  4 46  1  0
  4 47  1  0
  5 37  1  0
  5  6  1  6
  5  7  1  0
  6 48  1  0
  6 49  1  0
  6 50  1  0
  7  8  1  0
  7 51  1  0
  7 52  1  0
  8  9  1  0
  8 53  1  0
  8 54  1  0
  9 26  1  0
  9 10  1  1
  9 11  1  0
 10 55  1  0
 10 56  1  0
 10 57  1  0
 11 12  1  0
 11 37  1  0
 11 58  1  6
 12 13  1  0
 12 14  1  0
 12 59  1  1
 13 60  1  0
 14 15  1  0
 14 61  1  0
 14 62  1  0
 15 26  1  0
 15 16  1  6
 15 17  1  0
 16 63  1  0
 16 64  1  0
 16 65  1  0
 17 36  1  0
 17 18  2  3
 18 19  1  0
 18 66  1  0
 19 20  2  3
 19 67  1  0
 20 23  1  0
 20 21  1  0
 21 22  2  0
 21 28  1  0
 22 23  1  0
 22 68  1  0
 23 24  1  0
 23 69  1  6
 24 25  1  0
 24 26  1  0
 24 70  1  6
 25 71  1  0
 25 72  1  0
 25 73  1  0
 26 27  1  1
 27 74  1  0
 27 75  1  0
 27 76  1  0
 28 29  1  0
 28 30  1  0
 29 77  1  0
 29 78  1  0
 29 79  1  0
 30 36  2  0
 30 31  1  0
 31 32  2  0
 31 80  1  0
 32 33  1  0
 32 34  1  0
 34 35  2  0
 34 81  1  0
 35 36  1  0
 35 82  1  0
 37 38  1  0
 37 83  1  1
 38 39  1  0
 38 84  1  1
 39 85  1  0
 39 86  1  0
 39 87  1  0
M  END
>  <i_m_ct_stereo_status>  (366) 
1

>  <s_m_source_file>  (366) 
/var/tmp/pbs.5076255.sched01/tmpxe1g82q3/12669a6jj4p.sdf

>  <i_m_source_file_index>  (366) 
16

>  <i_lp_mmshare_version>  (366) 
48012

>  <i_f3d_flags>  (366) 
0

>  <s_epik_input>  (366) 
W0NIMl0xW0NIMl1bQ0BASF0oW0NIM10pW0NASF0oW0NIM10pW0NASF0oW0NAXTEyW0NIM10pW0NAQEhdM1tDQEBdKFtDSDNdKShbQ0gyXVtDSDJdMilbQ0BdNChbQ0gzXSlbQ0BAXShbQ0gzXSkoW0NIMl1bQ0BASF0zW09IXSkvQz01YzZjKFtjSF1jKENsKVtjSF1bY0hdNilOKFtDSDNdKUM9Ny9DKD1bQ0hdXFtDSF01KVtDQEhdKFtDSF03KVtDQEhdNFtDSDNd

>  <s_epik_cmdline>  (366) 
J2VwaWtfcHl0aG9uJywgJy1waHQnLCAnMi4wJywgJy1waCcsICc3LjAnLCAnLXRuJywgJzgnLCAnLW1hJywgJzIwMCcsICctaW1hZScsICc8aW5maWxlLm1hZT4nLCAnLW9tYWUnLCAnPG91dGZpbGUubWFlPic=

>  <r_lp_tautomer_probability>  (366) 
1

>  <r_epik_Ionization_Penalty>  (366) 
1.03483e-06

>  <r_epik_Ionization_Penalty_Charging>  (366) 
3.66525e-08

>  <r_epik_Ionization_Penalty_Neutral>  (366) 
9.98174e-07

>  <r_epik_State_Penalty>  (366) 
-0

>  <r_epik_Charging_Adjusted_Penalty>  (366) 
3.66525e-08

>  <i_epik_Tot_Q>  (366) 
0

>  <i_epik_Tot_abs_Q>  (366) 
0

>  <s_epik_Chemistry_Notes>  (366) 
This compound has an imine and may undergo hydrolysis.

>  <s_lp_Force_Field>  (366) 
OPLS3e

>  <r_lp_Energy>  (366) 
235.258

>  <b_lp_Chiralities_Consistent>  (366) 
1

>  <s_lp_Variant>  (366) 
106:0-1

>  <s_i_glide_gridfile>  (366) 
pfpi4k_grid

>  <i_i_glide_lignum>  (366) 
16

>  <i_i_glide_rotatable_bonds>  (366) 
1

>  <r_i_docking_score>  (366) 
-1.75732

>  <r_i_glide_ligand_efficiency>  (366) 
-0.0450594

>  <r_i_glide_ligand_efficiency_sa>  (366) 
-0.152806

>  <r_i_glide_ligand_efficiency_ln>  (366) 
-0.376819

>  <r_i_glide_gscore>  (366) 
-1.75732

>  <r_i_glide_lipo>  (366) 
-0.272724

>  <r_i_glide_hbond>  (366) 
0

>  <r_i_glide_metal>  (366) 
-0

>  <r_i_glide_rewards>  (366) 
0

>  <r_i_glide_evdw>  (366) 
-29.8515

>  <r_i_glide_ecoul>  (366) 
0.16541

>  <r_i_glide_erotb>  (366) 
0

>  <r_i_glide_esite>  (366) 
-0.0168312

>  <r_i_glide_emodel>  (366) 
-32.3865

>  <r_i_glide_energy>  (366) 
-29.6861

>  <r_i_glide_einternal>  (366) 
0.352401

>  <r_i_glide_intrahb_reward>  (366) 
-0

>  <i_i_glide_confnum>  (366) 
2

>  <i_i_glide_posenum>  (366) 
27

>  <r_i_glide_eff_state_penalty>  (366) 
0

>  <ligand_id>  (366) 
106

>  <original_smiles>  (366) 
CC1CCC2(C)CCC3(C)C(C(O)CC4(C)C5=CC=C6C(=CC6C(C)C43C)N(C)c3cc(Cl)ccc35)C2C1C

>  <smiles>  (366) 
[H]OC1([H])C([H])([H])C2(C([H])([H])[H])C3=C([H])C([H])=C4C(=C([H])C4([H])C([H])(C([H])([H])[H])C2(C([H])([H])[H])C2(C([H])([H])[H])C([H])([H])C([H])([H])C4(C([H])([H])[H])C([H])([H])C([H])([H])C([H])(C([H])([H])[H])C([H])(C([H])([H])[H])C4([H])C12[H])N(C([H])([H])[H])c1c([H])c(Cl)c([H])c([H])c13

$$$$
106:0:1
     RDKit          3D

 87 93  0  0  1  0  0  0  0  0999 V2000
    2.7695  -10.9646    5.4864 C   0  0  0  0  0  0  0  0  0  0  0  0
    1.3773  -10.4041    5.1329 C   0  0  2  0  0  0  0  0  0  0  0  0
    1.0703  -10.6614    3.6499 C   0  0  0  0  0  0  0  0  0  0  0  0
    0.0172   -9.7126    3.0883 C   0  0  0  0  0  0  0  0  0  0  0  0
    0.4419   -8.2344    3.1670 C   0  0  2  0  0  0  0  0  0  0  0  0
   -0.7205   -7.4460    2.5069 C   0  0  0  0  0  0  0  0  0  0  0  0
    1.7261   -7.9517    2.3451 C   0  0  0  0  0  0  0  0  0  0  0  0
    2.3249   -6.5345    2.5375 C   0  0  0  0  0  0  0  0  0  0  0  0
    2.6676   -6.1214    4.0227 C   0  0  2  0  0  0  0  0  0  0  0  0
    3.6914   -7.1912    4.5414 C   0  0  0  0  0  0  0  0  0  0  0  0
    1.3032   -6.4058    4.7813 C   0  0  2  0  0  0  0  0  0  0  0  0
    1.1421   -5.6783    6.1146 C   0  0  1  0  0  0  0  0  0  0  0  0
    2.0422   -6.1265    7.1035 O   0  0  0  0  0  0  0  0  0  0  0  0
    1.2474   -4.1539    5.9182 C   0  0  0  0  0  0  0  0  0  0  0  0
    1.9873   -3.5729    4.6583 C   0  0  1  0  0  0  0  0  0  0  0  0
    0.9871   -3.4383    3.4620 C   0  0  0  0  0  0  0  0  0  0  0  0
    2.2388   -2.0863    5.1384 C   0  0  0  0  0  0  0  0  0  0  0  0
    3.3634   -1.6109    5.7039 C   0  0  0  0  0  0  0  0  0  0  0  0
    4.4447   -1.3578    4.8003 C   0  0  0  0  0  0  0  0  0  0  0  0
    4.2275   -1.5338    3.4873 C   0  0  0  0  0  0  0  0  0  0  0  0
    3.3402   -1.1462    2.5652 C   0  0  0  0  0  0  0  0  0  0  0  0
    3.9035   -1.8824    1.5942 C   0  0  0  0  0  0  0  0  0  0  0  0
    4.7319   -2.6322    2.6346 C   0  0  2  0  0  0  0  0  0  0  0  0
    4.1045   -4.0810    2.8713 C   0  0  1  0  0  0  0  0  0  0  0  0
    5.2946   -5.0110    2.5240 C   0  0  0  0  0  0  0  0  0  0  0  0
    3.2464   -4.5526    4.1986 C   0  0  2  0  0  0  0  0  0  0  0  0
    4.3066   -4.5708    5.3539 C   0  0  0  0  0  0  0  0  0  0  0  0
    2.2728   -0.2550    2.5787 N   0  0  0  0  0  0  0  0  0  0  0  0
    1.9256    0.4449    1.3402 C   0  0  0  0  0  0  0  0  0  0  0  0
    1.3322   -0.1198    3.6479 C   0  0  0  0  0  0  0  0  0  0  0  0
    0.3419    0.9051    3.5835 C   0  0  0  0  0  0  0  0  0  0  0  0
   -0.6305    1.0682    4.5843 C   0  0  0  0  0  0  0  0  0  0  0  0
   -1.7836    2.3463    4.4767 Cl  0  0  0  0  0  0  0  0  0  0  0  0
   -0.6542    0.2059    5.6838 C   0  0  0  0  0  0  0  0  0  0  0  0
    0.3002   -0.8110    5.7755 C   0  0  0  0  0  0  0  0  0  0  0  0
    1.2887   -0.9914    4.7888 C   0  0  0  0  0  0  0  0  0  0  0  0
    0.6434   -7.8340    4.6675 C   0  0  2  0  0  0  0  0  0  0  0  0
    1.1718   -8.9432    5.6598 C   0  0  1  0  0  0  0  0  0  0  0  0
    0.2794   -9.0222    6.9202 C   0  0  0  0  0  0  0  0  0  0  0  0
    3.5764  -10.4501    4.9594 H   0  0  0  0  0  0  0  0  0  0  0  0
    2.8373  -12.0223    5.2297 H   0  0  0  0  0  0  0  0  0  0  0  0
    2.9729  -10.8876    6.5547 H   0  0  0  0  0  0  0  0  0  0  0  0
    0.6688  -11.0465    5.6711 H   0  0  0  0  0  0  0  0  0  0  0  0
    1.9774  -10.6537    3.0407 H   0  0  0  0  0  0  0  0  0  0  0  0
    0.6975  -11.6741    3.5529 H   0  0  0  0  0  0  0  0  0  0  0  0
   -0.2071  -10.0042    2.0612 H   0  0  0  0  0  0  0  0  0  0  0  0
   -0.9157   -9.8548    3.6339 H   0  0  0  0  0  0  0  0  0  0  0  0
   -0.5203   -6.3814    2.4407 H   0  0  0  0  0  0  0  0  0  0  0  0
   -1.6612   -7.5791    3.0419 H   0  0  0  0  0  0  0  0  0  0  0  0
   -0.8851   -7.7882    1.4840 H   0  0  0  0  0  0  0  0  0  0  0  0
    2.5003   -8.6832    2.5522 H   0  0  0  0  0  0  0  0  0  0  0  0
    1.5115   -8.1059    1.2860 H   0  0  0  0  0  0  0  0  0  0  0  0
    3.1887   -6.5152    1.8853 H   0  0  0  0  0  0  0  0  0  0  0  0
    1.6504   -5.8320    2.0690 H   0  0  0  0  0  0  0  0  0  0  0  0
    3.8232   -7.1483    5.6217 H   0  0  0  0  0  0  0  0  0  0  0  0
    4.6814   -7.1236    4.1037 H   0  0  0  0  0  0  0  0  0  0  0  0
    3.3938   -8.2125    4.3502 H   0  0  0  0  0  0  0  0  0  0  0  0
    0.5464   -5.8761    4.2376 H   0  0  0  0  0  0  0  0  0  0  0  0
    0.1413   -5.8852    6.5084 H   0  0  0  0  0  0  0  0  0  0  0  0
    1.8247   -5.7039    7.9308 H   0  0  0  0  0  0  0  0  0  0  0  0
    0.2301   -3.7675    5.9075 H   0  0  0  0  0  0  0  0  0  0  0  0
    1.6717   -3.7343    6.8353 H   0  0  0  0  0  0  0  0  0  0  0  0
    0.6343   -4.3445    3.0086 H   0  0  0  0  0  0  0  0  0  0  0  0
    1.4198   -2.8860    2.6348 H   0  0  0  0  0  0  0  0  0  0  0  0
    0.0690   -2.9215    3.7392 H   0  0  0  0  0  0  0  0  0  0  0  0
    3.8210   -2.3263    6.3641 H   0  0  0  0  0  0  0  0  0  0  0  0
    5.3803   -1.7392    5.1398 H   0  0  0  0  0  0  0  0  0  0  0  0
    3.7403   -2.0057    0.5230 H   0  0  0  0  0  0  0  0  0  0  0  0
    5.8294   -2.6109    2.4860 H   0  0  0  0  0  0  0  0  0  0  0  0
    3.3899   -4.2102    2.0590 H   0  0  0  0  0  0  0  0  0  0  0  0
    6.0850   -4.9285    3.2719 H   0  0  0  0  0  0  0  0  0  0  0  0
    5.7233   -4.7136    1.5652 H   0  0  0  0  0  0  0  0  0  0  0  0
    5.0703   -6.0645    2.4038 H   0  0  0  0  0  0  0  0  0  0  0  0
    3.8685   -4.5931    6.3474 H   0  0  0  0  0  0  0  0  0  0  0  0
    4.9844   -3.7343    5.3106 H   0  0  0  0  0  0  0  0  0  0  0  0
    5.0376   -5.3736    5.3226 H   0  0  0  0  0  0  0  0  0  0  0  0
    0.8815    0.2888    1.0665 H   0  0  0  0  0  0  0  0  0  0  0  0
    2.5241    0.1122    0.4941 H   0  0  0  0  0  0  0  0  0  0  0  0
    2.0831    1.5199    1.4400 H   0  0  0  0  0  0  0  0  0  0  0  0
    0.3013    1.6167    2.7694 H   0  0  0  0  0  0  0  0  0  0  0  0
   -1.3847    0.3407    6.4718 H   0  0  0  0  0  0  0  0  0  0  0  0
    0.3069   -1.4560    6.6488 H   0  0  0  0  0  0  0  0  0  0  0  0
   -0.3792   -7.6858    5.0037 H   0  0  0  0  0  0  0  0  0  0  0  0
    2.1275   -8.6097    6.0479 H   0  0  0  0  0  0  0  0  0  0  0  0
   -0.7156   -9.4040    6.6783 H   0  0  0  0  0  0  0  0  0  0  0  0
    0.1606   -8.0553    7.4066 H   0  0  0  0  0  0  0  0  0  0  0  0
    0.7140   -9.7009    7.6558 H   0  0  0  0  0  0  0  0  0  0  0  0
  1  2  1  0
  1 40  1  0
  1 41  1  0
  1 42  1  0
  2 38  1  0
  2  3  1  0
  2 43  1  1
  3  4  1  0
  3 44  1  0
  3 45  1  0
  4  5  1  0
  4 46  1  0
  4 47  1  0
  5 37  1  0
  5  6  1  6
  5  7  1  0
  6 48  1  0
  6 49  1  0
  6 50  1  0
  7  8  1  0
  7 51  1  0
  7 52  1  0
  8  9  1  0
  8 53  1  0
  8 54  1  0
  9 26  1  0
  9 10  1  1
  9 11  1  0
 10 55  1  0
 10 56  1  0
 10 57  1  0
 11 12  1  0
 11 37  1  0
 11 58  1  6
 12 13  1  0
 12 14  1  0
 12 59  1  1
 13 60  1  0
 14 15  1  0
 14 61  1  0
 14 62  1  0
 15 26  1  0
 15 16  1  6
 15 17  1  0
 16 63  1  0
 16 64  1  0
 16 65  1  0
 17 36  1  0
 17 18  2  3
 18 19  1  0
 18 66  1  0
 19 20  2  3
 19 67  1  0
 20 23  1  0
 20 21  1  0
 21 22  2  0
 21 28  1  0
 22 23  1  0
 22 68  1  0
 23 24  1  0
 23 69  1  6
 24 25  1  0
 24 26  1  0
 24 70  1  6
 25 71  1  0
 25 72  1  0
 25 73  1  0
 26 27  1  1
 27 74  1  0
 27 75  1  0
 27 76  1  0
 28 29  1  0
 28 30  1  0
 29 77  1  0
 29 78  1  0
 29 79  1  0
 30 36  2  0
 30 31  1  0
 31 32  2  0
 31 80  1  0
 32 33  1  0
 32 34  1  0
 34 35  2  0
 34 81  1  0
 35 36  1  0
 35 82  1  0
 37 38  1  0
 37 83  1  1
 38 39  1  0
 38 84  1  1
 39 85  1  0
 39 86  1  0
 39 87  1  0
M  END
>  <i_m_ct_stereo_status>  (367) 
1

>  <s_m_source_file>  (367) 
/var/tmp/pbs.5076255.sched01/tmpxe1g82q3/12669a6jj4p.sdf

>  <i_m_source_file_index>  (367) 
16

>  <i_lp_mmshare_version>  (367) 
48012

>  <i_f3d_flags>  (367) 
0

>  <s_epik_input>  (367) 
W0NIMl0xW0NIMl1bQ0BASF0oW0NIM10pW0NASF0oW0NIM10pW0NASF0oW0NAXTEyW0NIM10pW0NAQEhdM1tDQEBdKFtDSDNdKShbQ0gyXVtDSDJdMilbQ0BdNChbQ0gzXSlbQ0BAXShbQ0gzXSkoW0NIMl1bQ0BASF0zW09IXSkvQz01YzZjKFtjSF1jKENsKVtjSF1bY0hdNilOKFtDSDNdKUM9Ny9DKD1bQ0hdXFtDSF01KVtDQEhdKFtDSF03KVtDQEhdNFtDSDNd

>  <s_epik_cmdline>  (367) 
J2VwaWtfcHl0aG9uJywgJy1waHQnLCAnMi4wJywgJy1waCcsICc3LjAnLCAnLXRuJywgJzgnLCAnLW1hJywgJzIwMCcsICctaW1hZScsICc8aW5maWxlLm1hZT4nLCAnLW9tYWUnLCAnPG91dGZpbGUubWFlPic=

>  <r_lp_tautomer_probability>  (367) 
1

>  <r_epik_Ionization_Penalty>  (367) 
1.03483e-06

>  <r_epik_Ionization_Penalty_Charging>  (367) 
3.66525e-08

>  <r_epik_Ionization_Penalty_Neutral>  (367) 
9.98174e-07

>  <r_epik_State_Penalty>  (367) 
-0

>  <r_epik_Charging_Adjusted_Penalty>  (367) 
3.66525e-08

>  <i_epik_Tot_Q>  (367) 
0

>  <i_epik_Tot_abs_Q>  (367) 
0

>  <s_epik_Chemistry_Notes>  (367) 
This compound has an imine and may undergo hydrolysis.

>  <s_lp_Force_Field>  (367) 
OPLS3e

>  <r_lp_Energy>  (367) 
235.258

>  <b_lp_Chiralities_Consistent>  (367) 
1

>  <s_lp_Variant>  (367) 
106:0-1

>  <s_i_glide_gridfile>  (367) 
pfpi4k_grid

>  <i_i_glide_lignum>  (367) 
16

>  <i_i_glide_rotatable_bonds>  (367) 
1

>  <r_i_docking_score>  (367) 
-1.62502

>  <r_i_glide_ligand_efficiency>  (367) 
-0.0416672

>  <r_i_glide_ligand_efficiency_sa>  (367) 
-0.141302

>  <r_i_glide_ligand_efficiency_ln>  (367) 
-0.348451

>  <r_i_glide_gscore>  (367) 
-1.62502

>  <r_i_glide_lipo>  (367) 
-0.231236

>  <r_i_glide_hbond>  (367) 
0

>  <r_i_glide_metal>  (367) 
-0

>  <r_i_glide_rewards>  (367) 
0

>  <r_i_glide_evdw>  (367) 
-29.7856

>  <r_i_glide_ecoul>  (367) 
0.751217

>  <r_i_glide_erotb>  (367) 
0

>  <r_i_glide_esite>  (367) 
-0.0171871

>  <r_i_glide_emodel>  (367) 
-31.5144

>  <r_i_glide_energy>  (367) 
-29.0344

>  <r_i_glide_einternal>  (367) 
0.329063

>  <r_i_glide_intrahb_reward>  (367) 
-0

>  <i_i_glide_confnum>  (367) 
1

>  <i_i_glide_posenum>  (367) 
10

>  <r_i_glide_eff_state_penalty>  (367) 
0

>  <ligand_id>  (367) 
106

>  <original_smiles>  (367) 
CC1CCC2(C)CCC3(C)C(C(O)CC4(C)C5=CC=C6C(=CC6C(C)C43C)N(C)c3cc(Cl)ccc35)C2C1C

>  <smiles>  (367) 
[H]OC1([H])C([H])([H])C2(C([H])([H])[H])C3=C([H])C([H])=C4C(=C([H])C4([H])C([H])(C([H])([H])[H])C2(C([H])([H])[H])C2(C([H])([H])[H])C([H])([H])C([H])([H])C4(C([H])([H])[H])C([H])([H])C([H])([H])C([H])(C([H])([H])[H])C([H])(C([H])([H])[H])C4([H])C12[H])N(C([H])([H])[H])c1c([H])c(Cl)c([H])c([H])c13

$$$$
106:0:2
     RDKit          3D

 87 93  0  0  1  0  0  0  0  0999 V2000
    2.9932  -10.5580    5.0039 C   0  0  0  0  0  0  0  0  0  0  0  0
    2.2507   -9.9031    3.8214 C   0  0  2  0  0  0  0  0  0  0  0  0
    3.1915   -9.7592    2.6166 C   0  0  0  0  0  0  0  0  0  0  0  0
    2.7483   -8.6827    1.6339 C   0  0  0  0  0  0  0  0  0  0  0  0
    2.6760   -7.2800    2.2740 C   0  0  2  0  0  0  0  0  0  0  0  0
    2.2534   -6.3287    1.1196 C   0  0  0  0  0  0  0  0  0  0  0  0
    4.0602   -6.8094    2.7923 C   0  0  0  0  0  0  0  0  0  0  0  0
    4.0327   -5.5000    3.6191 C   0  0  0  0  0  0  0  0  0  0  0  0
    3.0819   -5.4979    4.8805 C   0  0  2  0  0  0  0  0  0  0  0  0
    3.5689   -6.6789    5.7918 C   0  0  0  0  0  0  0  0  0  0  0  0
    1.6917   -5.9513    4.2608 C   0  0  2  0  0  0  0  0  0  0  0  0
    0.4667   -5.5991    5.1011 C   0  0  1  0  0  0  0  0  0  0  0  0
    0.3961   -6.3038    6.3237 O   0  0  0  0  0  0  0  0  0  0  0  0
    0.3851   -4.0789    5.3340 C   0  0  0  0  0  0  0  0  0  0  0  0
    1.6822   -3.1963    5.2078 C   0  0  1  0  0  0  0  0  0  0  0  0
    1.8812   -2.7414    3.7177 C   0  0  0  0  0  0  0  0  0  0  0  0
    1.2061   -1.8898    5.9673 C   0  0  0  0  0  0  0  0  0  0  0  0
    1.4283   -1.5988    7.2636 C   0  0  0  0  0  0  0  0  0  0  0  0
    2.7472   -1.1167    7.5672 C   0  0  0  0  0  0  0  0  0  0  0  0
    3.6049   -0.9335    6.5623 C   0  0  0  0  0  0  0  0  0  0  0  0
    3.6302   -0.3232    5.3683 C   0  0  0  0  0  0  0  0  0  0  0  0
    4.8633   -0.7767    5.0675 C   0  0  0  0  0  0  0  0  0  0  0  0
    4.7690   -1.7910    6.2082 C   0  0  2  0  0  0  0  0  0  0  0  0
    4.4666   -3.2463    5.6175 C   0  0  1  0  0  0  0  0  0  0  0  0
    5.6783   -4.0635    6.1442 C   0  0  0  0  0  0  0  0  0  0  0  0
    3.0239   -4.0404    5.7105 C   0  0  2  0  0  0  0  0  0  0  0  0
    2.8620   -4.3700    7.2368 C   0  0  0  0  0  0  0  0  0  0  0  0
    2.7575    0.5424    4.7191 N   0  0  0  0  0  0  0  0  0  0  0  0
    3.3131    1.5460    3.8094 C   0  0  0  0  0  0  0  0  0  0  0  0
    1.3328    0.4094    4.7023 C   0  0  0  0  0  0  0  0  0  0  0  0
    0.5441    1.4274    4.0943 C   0  0  0  0  0  0  0  0  0  0  0  0
   -0.8560    1.3360    4.0125 C   0  0  0  0  0  0  0  0  0  0  0  0
   -1.7782    2.5978    3.2935 Cl  0  0  0  0  0  0  0  0  0  0  0  0
   -1.5088    0.2146    4.5328 C   0  0  0  0  0  0  0  0  0  0  0  0
   -0.7667   -0.8057    5.1291 C   0  0  0  0  0  0  0  0  0  0  0  0
    0.6361   -0.7300    5.2313 C   0  0  0  0  0  0  0  0  0  0  0  0
    1.6221   -7.2911    3.4307 C   0  0  2  0  0  0  0  0  0  0  0  0
    1.4469   -8.6264    4.2570 C   0  0  1  0  0  0  0  0  0  0  0  0
   -0.0470   -9.0192    4.3534 C   0  0  0  0  0  0  0  0  0  0  0  0
    3.8019   -9.9337    5.3840 H   0  0  0  0  0  0  0  0  0  0  0  0
    3.4358  -11.5093    4.7054 H   0  0  0  0  0  0  0  0  0  0  0  0
    2.3185  -10.7679    5.8350 H   0  0  0  0  0  0  0  0  0  0  0  0
    1.5183  -10.6497    3.5027 H   0  0  0  0  0  0  0  0  0  0  0  0
    4.2236   -9.5974    2.9295 H   0  0  0  0  0  0  0  0  0  0  0  0
    3.2209  -10.7120    2.0862 H   0  0  0  0  0  0  0  0  0  0  0  0
    3.4265   -8.6848    0.7795 H   0  0  0  0  0  0  0  0  0  0  0  0
    1.7720   -8.9594    1.2358 H   0  0  0  0  0  0  0  0  0  0  0  0
    2.2122   -5.2817    1.4143 H   0  0  0  0  0  0  0  0  0  0  0  0
    1.2787   -6.5955    0.7085 H   0  0  0  0  0  0  0  0  0  0  0  0
    2.9693   -6.3742    0.2981 H   0  0  0  0  0  0  0  0  0  0  0  0
    4.5503   -7.5783    3.3815 H   0  0  0  0  0  0  0  0  0  0  0  0
    4.7292   -6.6777    1.9421 H   0  0  0  0  0  0  0  0  0  0  0  0
    5.0677   -5.3192    3.8741 H   0  0  0  0  0  0  0  0  0  0  0  0
    3.8020   -4.6899    2.9380 H   0  0  0  0  0  0  0  0  0  0  0  0
    2.8522   -6.9222    6.5746 H   0  0  0  0  0  0  0  0  0  0  0  0
    4.5200   -6.5085    6.2831 H   0  0  0  0  0  0  0  0  0  0  0  0
    3.7148   -7.6098    5.2629 H   0  0  0  0  0  0  0  0  0  0  0  0
    1.5026   -5.2847    3.4403 H   0  0  0  0  0  0  0  0  0  0  0  0
   -0.4329   -5.8898    4.5515 H   0  0  0  0  0  0  0  0  0  0  0  0
    0.4705   -7.2291    6.1366 H   0  0  0  0  0  0  0  0  0  0  0  0
   -0.3384   -3.6855    4.6218 H   0  0  0  0  0  0  0  0  0  0  0  0
   -0.0947   -3.9265    6.3031 H   0  0  0  0  0  0  0  0  0  0  0  0
    2.1659   -3.4891    3.0008 H   0  0  0  0  0  0  0  0  0  0  0  0
    2.6669   -1.9962    3.6350 H   0  0  0  0  0  0  0  0  0  0  0  0
    0.9805   -2.3052    3.2854 H   0  0  0  0  0  0  0  0  0  0  0  0
    1.3770   -2.4675    7.8976 H   0  0  0  0  0  0  0  0  0  0  0  0
    3.1751   -1.5931    8.4293 H   0  0  0  0  0  0  0  0  0  0  0  0
    5.5687   -0.6202    4.2589 H   0  0  0  0  0  0  0  0  0  0  0  0
    5.5751   -1.7471    6.9453 H   0  0  0  0  0  0  0  0  0  0  0  0
    4.6276   -3.1464    4.5461 H   0  0  0  0  0  0  0  0  0  0  0  0
    5.6204   -4.1872    7.2267 H   0  0  0  0  0  0  0  0  0  0  0  0
    6.6035   -3.5282    5.9259 H   0  0  0  0  0  0  0  0  0  0  0  0
    5.8230   -5.0447    5.7102 H   0  0  0  0  0  0  0  0  0  0  0  0
    1.8467   -4.6461    7.5156 H   0  0  0  0  0  0  0  0  0  0  0  0
    3.1725   -3.5594    7.8731 H   0  0  0  0  0  0  0  0  0  0  0  0
    3.5131   -5.1442    7.6282 H   0  0  0  0  0  0  0  0  0  0  0  0
    2.8831    1.4728    2.8096 H   0  0  0  0  0  0  0  0  0  0  0  0
    4.3916    1.4391    3.6930 H   0  0  0  0  0  0  0  0  0  0  0  0
    3.1353    2.5579    4.1821 H   0  0  0  0  0  0  0  0  0  0  0  0
    0.9758    2.3217    3.6764 H   0  0  0  0  0  0  0  0  0  0  0  0
   -2.5810    0.1364    4.4814 H   0  0  0  0  0  0  0  0  0  0  0  0
   -1.2820   -1.6570    5.5485 H   0  0  0  0  0  0  0  0  0  0  0  0
    0.6794   -7.2228    2.8883 H   0  0  0  0  0  0  0  0  0  0  0  0
    1.7247   -8.4234    5.2845 H   0  0  0  0  0  0  0  0  0  0  0  0
   -0.4440   -9.3138    3.3797 H   0  0  0  0  0  0  0  0  0  0  0  0
   -0.6752   -8.2128    4.7320 H   0  0  0  0  0  0  0  0  0  0  0  0
   -0.1811   -9.8674    5.0259 H   0  0  0  0  0  0  0  0  0  0  0  0
  1  2  1  0
  1 40  1  0
  1 41  1  0
  1 42  1  0
  2 38  1  0
  2  3  1  0
  2 43  1  6
  3  4  1  0
  3 44  1  0
  3 45  1  0
  4  5  1  0
  4 46  1  0
  4 47  1  0
  5 37  1  0
  5  6  1  6
  5  7  1  0
  6 48  1  0
  6 49  1  0
  6 50  1  0
  7  8  1  0
  7 51  1  0
  7 52  1  0
  8  9  1  0
  8 53  1  0
  8 54  1  0
  9 26  1  0
  9 10  1  1
  9 11  1  0
 10 55  1  0
 10 56  1  0
 10 57  1  0
 11 12  1  0
 11 37  1  0
 11 58  1  6
 12 13  1  0
 12 14  1  0
 12 59  1  6
 13 60  1  0
 14 15  1  0
 14 61  1  0
 14 62  1  0
 15 26  1  0
 15 16  1  6
 15 17  1  0
 16 63  1  0
 16 64  1  0
 16 65  1  0
 17 36  1  0
 17 18  2  3
 18 19  1  0
 18 66  1  0
 19 20  2  3
 19 67  1  0
 20 23  1  0
 20 21  1  0
 21 22  2  0
 21 28  1  0
 22 23  1  0
 22 68  1  0
 23 24  1  0
 23 69  1  1
 24 25  1  0
 24 26  1  0
 24 70  1  6
 25 71  1  0
 25 72  1  0
 25 73  1  0
 26 27  1  1
 27 74  1  0
 27 75  1  0
 27 76  1  0
 28 29  1  0
 28 30  1  0
 29 77  1  0
 29 78  1  0
 29 79  1  0
 30 36  2  0
 30 31  1  0
 31 32  2  0
 31 80  1  0
 32 33  1  0
 32 34  1  0
 34 35  2  0
 34 81  1  0
 35 36  1  0
 35 82  1  0
 37 38  1  0
 37 83  1  6
 38 39  1  0
 38 84  1  1
 39 85  1  0
 39 86  1  0
 39 87  1  0
M  END
>  <i_m_ct_stereo_status>  (368) 
1

>  <s_m_source_file>  (368) 
/var/tmp/pbs.5076255.sched01/tmpxe1g82q3/12669a6jj4p.sdf

>  <i_m_source_file_index>  (368) 
16

>  <i_lp_mmshare_version>  (368) 
48012

>  <i_f3d_flags>  (368) 
0

>  <s_epik_input>  (368) 
W0NIMl0xW0NIMl1bQ0BASF0oW0NIM10pW0NASF0oW0NIM10pW0NASF0oW0NAXTEyW0NIM10pW0NAQEhdM1tDQEBdKFtDSDNdKShbQ0gyXVtDSDJdMilbQ0BdNChbQ0gzXSlbQ0BAXShbQ0gzXSkoW0NIMl1bQ0BASF0zW09IXSkvQz01YzZjKFtjSF1jKENsKVtjSF1bY0hdNilOKFtDSDNdKUM9Ny9DKD1bQ0hdXFtDSF01KVtDQEhdKFtDSF03KVtDQEhdNFtDSDNd

>  <s_epik_cmdline>  (368) 
J2VwaWtfcHl0aG9uJywgJy1waHQnLCAnMi4wJywgJy1waCcsICc3LjAnLCAnLXRuJywgJzgnLCAnLW1hJywgJzIwMCcsICctaW1hZScsICc8aW5maWxlLm1hZT4nLCAnLW9tYWUnLCAnPG91dGZpbGUubWFlPic=

>  <r_lp_tautomer_probability>  (368) 
1

>  <r_epik_Ionization_Penalty>  (368) 
1.03483e-06

>  <r_epik_Ionization_Penalty_Charging>  (368) 
3.66525e-08

>  <r_epik_Ionization_Penalty_Neutral>  (368) 
9.98174e-07

>  <r_epik_State_Penalty>  (368) 
-0

>  <r_epik_Charging_Adjusted_Penalty>  (368) 
3.66525e-08

>  <i_epik_Tot_Q>  (368) 
0

>  <i_epik_Tot_abs_Q>  (368) 
0

>  <s_epik_Chemistry_Notes>  (368) 
This compound has an imine and may undergo hydrolysis.

>  <s_lp_Force_Field>  (368) 
OPLS3e

>  <r_lp_Energy>  (368) 
235.258

>  <b_lp_Chiralities_Consistent>  (368) 
1

>  <s_lp_Variant>  (368) 
106:0-1

>  <s_i_glide_gridfile>  (368) 
pfpi4k_grid

>  <i_i_glide_lignum>  (368) 
16

>  <i_i_glide_rotatable_bonds>  (368) 
1

>  <r_i_docking_score>  (368) 
-1.57073

>  <r_i_glide_ligand_efficiency>  (368) 
-0.0402751

>  <r_i_glide_ligand_efficiency_sa>  (368) 
-0.136581

>  <r_i_glide_ligand_efficiency_ln>  (368) 
-0.336808

>  <r_i_glide_gscore>  (368) 
-1.57073

>  <r_i_glide_lipo>  (368) 
-0.0619984

>  <r_i_glide_hbond>  (368) 
0

>  <r_i_glide_metal>  (368) 
-0

>  <r_i_glide_rewards>  (368) 
0

>  <r_i_glide_evdw>  (368) 
-25.5653

>  <r_i_glide_ecoul>  (368) 
-1.53642

>  <r_i_glide_erotb>  (368) 
0

>  <r_i_glide_esite>  (368) 
0

>  <r_i_glide_emodel>  (368) 
-29.4778

>  <r_i_glide_energy>  (368) 
-27.1017

>  <r_i_glide_einternal>  (368) 
0.357997

>  <r_i_glide_intrahb_reward>  (368) 
-0

>  <i_i_glide_confnum>  (368) 
2

>  <i_i_glide_posenum>  (368) 
36

>  <r_i_glide_eff_state_penalty>  (368) 
0

>  <ligand_id>  (368) 
106

>  <original_smiles>  (368) 
CC1CCC2(C)CCC3(C)C(C(O)CC4(C)C5=CC=C6C(=CC6C(C)C43C)N(C)c3cc(Cl)ccc35)C2C1C

>  <smiles>  (368) 
[H]OC1([H])C([H])([H])C2(C([H])([H])[H])C3=C([H])C([H])=C4C(=C([H])C4([H])C([H])(C([H])([H])[H])C2(C([H])([H])[H])C2(C([H])([H])[H])C([H])([H])C([H])([H])C4(C([H])([H])[H])C([H])([H])C([H])([H])C([H])(C([H])([H])[H])C([H])(C([H])([H])[H])C4([H])C12[H])N(C([H])([H])[H])c1c([H])c(Cl)c([H])c([H])c13

$$$$
106:1:0
     RDKit          3D

 87 93  0  0  1  0  0  0  0  0999 V2000
   -0.3697    4.8463    7.5722 C   0  0  0  0  0  0  0  0  0  0  0  0
   -0.4128    4.0746    6.2341 C   0  0  2  0  0  0  0  0  0  0  0  0
   -1.7855    3.4092    6.1017 C   0  0  0  0  0  0  0  0  0  0  0  0
   -1.9318    2.8043    4.7135 C   0  0  0  0  0  0  0  0  0  0  0  0
   -0.8726    1.7316    4.3658 C   0  0  2  0  0  0  0  0  0  0  0  0
   -1.1149    1.4904    2.8481 C   0  0  0  0  0  0  0  0  0  0  0  0
   -1.1296    0.4260    5.1542 C   0  0  0  0  0  0  0  0  0  0  0  0
   -0.0902   -0.7024    4.8977 C   0  0  0  0  0  0  0  0  0  0  0  0
    1.4376   -0.3532    5.1381 C   0  0  2  0  0  0  0  0  0  0  0  0
    1.5690   -0.0823    6.6798 C   0  0  0  0  0  0  0  0  0  0  0  0
    1.5995    1.0312    4.3854 C   0  0  2  0  0  0  0  0  0  0  0  0
    3.0203    1.3761    3.9255 C   0  0  1  0  0  0  0  0  0  0  0  0
    3.9605    1.5928    4.9558 O   0  0  0  0  0  0  0  0  0  0  0  0
    3.5542    0.2908    2.9705 C   0  0  0  0  0  0  0  0  0  0  0  0
    3.0701   -1.2095    3.0871 C   0  0  1  0  0  0  0  0  0  0  0  0
    1.8793   -1.4122    2.0906 C   0  0  0  0  0  0  0  0  0  0  0  0
    4.3561   -1.9297    2.4407 C   0  0  0  0  0  0  0  0  0  0  0  0
    5.2694   -2.7738    2.9881 C   0  0  0  0  0  0  0  0  0  0  0  0
    4.7876   -3.6803    3.9643 C   0  0  0  0  0  0  0  0  0  0  0  0
    3.6337   -4.2360    3.6039 C   0  0  0  0  0  0  0  0  0  0  0  0
    3.0038   -4.5161    2.4469 C   0  0  0  0  0  0  0  0  0  0  0  0
    1.8615   -4.8769    3.0643 C   0  0  0  0  0  0  0  0  0  0  0  0
    2.4224   -4.3972    4.4109 C   0  0  2  0  0  0  0  0  0  0  0  0
    1.8220   -3.0092    4.8826 C   0  0  1  0  0  0  0  0  0  0  0  0
    1.4064   -3.2986    6.3498 C   0  0  0  0  0  0  0  0  0  0  0  0
    2.5254   -1.5241    4.6308 C   0  0  2  0  0  0  0  0  0  0  0  0
    3.8058   -1.4015    5.5480 C   0  0  0  0  0  0  0  0  0  0  0  0
    3.3753   -4.4745    1.0945 N   0  0  0  0  0  0  0  0  0  0  0  0
    3.0963   -5.6727    0.2997 C   0  0  0  0  0  0  0  0  0  0  0  0
    3.9240   -3.3514    0.3702 C   0  0  0  0  0  0  0  0  0  0  0  0
    3.9993   -3.3993   -1.0471 C   0  0  0  0  0  0  0  0  0  0  0  0
    4.4889   -2.3243   -1.8075 C   0  0  0  0  0  0  0  0  0  0  0  0
    4.5341   -2.4459   -3.5216 Cl  0  0  0  0  0  0  0  0  0  0  0  0
    4.9344   -1.1526   -1.1812 C   0  0  0  0  0  0  0  0  0  0  0  0
    4.8766   -1.0611    0.2142 C   0  0  0  0  0  0  0  0  0  0  0  0
    4.3759   -2.1288    0.9826 C   0  0  0  0  0  0  0  0  0  0  0  0
    0.5880    2.2201    4.6850 C   0  0  2  0  0  0  0  0  0  0  0  0
    0.7046    2.9998    6.0610 C   0  0  1  0  0  0  0  0  0  0  0  0
    2.0987    3.6326    6.2692 C   0  0  0  0  0  0  0  0  0  0  0  0
   -0.2754    4.1712    8.4228 H   0  0  0  0  0  0  0  0  0  0  0  0
   -1.2771    5.4331    7.7174 H   0  0  0  0  0  0  0  0  0  0  0  0
    0.4517    5.5612    7.6090 H   0  0  0  0  0  0  0  0  0  0  0  0
   -0.3144    4.8112    5.4349 H   0  0  0  0  0  0  0  0  0  0  0  0
   -1.9256    2.6552    6.8772 H   0  0  0  0  0  0  0  0  0  0  0  0
   -2.5870    4.1327    6.2517 H   0  0  0  0  0  0  0  0  0  0  0  0
   -2.9394    2.4022    4.6068 H   0  0  0  0  0  0  0  0  0  0  0  0
   -1.8710    3.6209    3.9921 H   0  0  0  0  0  0  0  0  0  0  0  0
   -0.6350    0.6045    2.4470 H   0  0  0  0  0  0  0  0  0  0  0  0
   -0.7780    2.3384    2.2492 H   0  0  0  0  0  0  0  0  0  0  0  0
   -2.1758    1.3605    2.6354 H   0  0  0  0  0  0  0  0  0  0  0  0
   -1.1705    0.6503    6.2176 H   0  0  0  0  0  0  0  0  0  0  0  0
   -2.1259    0.0511    4.9149 H   0  0  0  0  0  0  0  0  0  0  0  0
   -0.4193   -1.5265    5.5189 H   0  0  0  0  0  0  0  0  0  0  0  0
   -0.2574   -1.0631    3.8901 H   0  0  0  0  0  0  0  0  0  0  0  0
    2.2350    0.7520    6.8859 H   0  0  0  0  0  0  0  0  0  0  0  0
    1.9730   -0.9110    7.2552 H   0  0  0  0  0  0  0  0  0  0  0  0
    0.6304    0.1461    7.1706 H   0  0  0  0  0  0  0  0  0  0  0  0
    1.2393    0.8167    3.3972 H   0  0  0  0  0  0  0  0  0  0  0  0
    2.9925    2.3145    3.3665 H   0  0  0  0  0  0  0  0  0  0  0  0
    4.0328    0.7940    5.4524 H   0  0  0  0  0  0  0  0  0  0  0  0
    3.3202    0.6333    1.9620 H   0  0  0  0  0  0  0  0  0  0  0  0
    4.6439    0.3524    3.0132 H   0  0  0  0  0  0  0  0  0  0  0  0
    0.9961   -0.8370    2.2929 H   0  0  0  0  0  0  0  0  0  0  0  0
    1.5356   -2.4386    2.0592 H   0  0  0  0  0  0  0  0  0  0  0  0
    2.1235   -1.1296    1.0682 H   0  0  0  0  0  0  0  0  0  0  0  0
    6.0500   -3.1856    2.3598 H   0  0  0  0  0  0  0  0  0  0  0  0
    5.0475   -3.5605    4.9990 H   0  0  0  0  0  0  0  0  0  0  0  0
    0.9015   -5.2531    2.7299 H   0  0  0  0  0  0  0  0  0  0  0  0
    2.4883   -5.1757    5.1758 H   0  0  0  0  0  0  0  0  0  0  0  0
    0.8895   -2.9523    4.3283 H   0  0  0  0  0  0  0  0  0  0  0  0
    2.2779   -3.4422    6.9879 H   0  0  0  0  0  0  0  0  0  0  0  0
    0.8269   -4.2206    6.3911 H   0  0  0  0  0  0  0  0  0  0  0  0
    0.7705   -2.5562    6.8157 H   0  0  0  0  0  0  0  0  0  0  0  0
    4.7313   -1.2918    4.9901 H   0  0  0  0  0  0  0  0  0  0  0  0
    3.9236   -2.2482    6.2186 H   0  0  0  0  0  0  0  0  0  0  0  0
    3.8640   -0.5378    6.1965 H   0  0  0  0  0  0  0  0  0  0  0  0
    3.9539   -5.9706   -0.3107 H   0  0  0  0  0  0  0  0  0  0  0  0
    2.2401   -5.5190   -0.3597 H   0  0  0  0  0  0  0  0  0  0  0  0
    2.8654   -6.5361    0.9278 H   0  0  0  0  0  0  0  0  0  0  0  0
    3.6676   -4.2522   -1.6139 H   0  0  0  0  0  0  0  0  0  0  0  0
    5.3046   -0.3280   -1.7607 H   0  0  0  0  0  0  0  0  0  0  0  0
    5.2244   -0.1628    0.7016 H   0  0  0  0  0  0  0  0  0  0  0  0
    0.7945    2.9806    3.9311 H   0  0  0  0  0  0  0  0  0  0  0  0
    0.5451    2.3084    6.8824 H   0  0  0  0  0  0  0  0  0  0  0  0
    2.4880    4.0863    5.3570 H   0  0  0  0  0  0  0  0  0  0  0  0
    2.8109    2.8919    6.6185 H   0  0  0  0  0  0  0  0  0  0  0  0
    2.1249    4.3921    7.0455 H   0  0  0  0  0  0  0  0  0  0  0  0
  1  2  1  0
  1 40  1  0
  1 41  1  0
  1 42  1  0
  2 38  1  0
  2  3  1  0
  2 43  1  6
  3  4  1  0
  3 44  1  0
  3 45  1  0
  4  5  1  0
  4 46  1  0
  4 47  1  0
  5 37  1  0
  5  6  1  6
  5  7  1  0
  6 48  1  0
  6 49  1  0
  6 50  1  0
  7  8  1  0
  7 51  1  0
  7 52  1  0
  8  9  1  0
  8 53  1  0
  8 54  1  0
  9 26  1  0
  9 10  1  1
  9 11  1  0
 10 55  1  0
 10 56  1  0
 10 57  1  0
 11 12  1  0
 11 37  1  0
 11 58  1  6
 12 13  1  0
 12 14  1  0
 12 59  1  6
 13 60  1  0
 14 15  1  0
 14 61  1  0
 14 62  1  0
 15 26  1  0
 15 16  1  6
 15 17  1  0
 16 63  1  0
 16 64  1  0
 16 65  1  0
 17 36  1  0
 17 18  2  3
 18 19  1  0
 18 66  1  0
 19 20  2  3
 19 67  1  0
 20 23  1  0
 20 21  1  0
 21 22  2  0
 21 28  1  0
 22 23  1  0
 22 68  1  0
 23 24  1  0
 23 69  1  1
 24 25  1  0
 24 26  1  0
 24 70  1  6
 25 71  1  0
 25 72  1  0
 25 73  1  0
 26 27  1  1
 27 74  1  0
 27 75  1  0
 27 76  1  0
 28 29  1  0
 28 30  1  0
 29 77  1  0
 29 78  1  0
 29 79  1  0
 30 36  2  0
 30 31  1  0
 31 32  2  0
 31 80  1  0
 32 33  1  0
 32 34  1  0
 34 35  2  0
 34 81  1  0
 35 36  1  0
 35 82  1  0
 37 38  1  0
 37 83  1  6
 38 39  1  0
 38 84  1  1
 39 85  1  0
 39 86  1  0
 39 87  1  0
M  END
>  <i_m_ct_stereo_status>  (369) 
1

>  <s_m_source_file>  (369) 
/var/tmp/pbs.5076255.sched01/tmpxe1g82q3/12669a6jj4p.sdf

>  <i_m_source_file_index>  (369) 
17

>  <i_lp_mmshare_version>  (369) 
48012

>  <i_f3d_flags>  (369) 
0

>  <s_epik_input>  (369) 
W0NIMl0xW0NIMl1bQ0BASF0oW0NIM10pW0NASF0oW0NIM10pW0NASF0oW0NAXTEyW0NIM10pW0NAQEhdM1tDQEBdKFtDSDNdKShbQ0gyXVtDSDJdMilbQ0BdNChbQ0gzXSlbQ0BAXShbQ0gzXSkoW0NIMl1bQ0BASF0zW09IXSkvQz01YzZjKFtjSF1jKENsKVtjSF1bY0hdNilOKFtDSDNdKUM9Ny9DKD1bQ0hdXFtDSF01KVtDQEhdKFtDSF03KVtDQEhdNFtDSDNd

>  <s_epik_cmdline>  (369) 
J2VwaWtfcHl0aG9uJywgJy1waHQnLCAnMi4wJywgJy1waCcsICc3LjAnLCAnLXRuJywgJzgnLCAnLW1hJywgJzIwMCcsICctaW1hZScsICc8aW5maWxlLm1hZT4nLCAnLW9tYWUnLCAnPG91dGZpbGUubWFlPic=

>  <r_lp_tautomer_probability>  (369) 
1

>  <r_epik_Ionization_Penalty>  (369) 
1.03483e-06

>  <r_epik_Ionization_Penalty_Charging>  (369) 
3.66525e-08

>  <r_epik_Ionization_Penalty_Neutral>  (369) 
9.98174e-07

>  <r_epik_State_Penalty>  (369) 
-0

>  <r_epik_Charging_Adjusted_Penalty>  (369) 
3.66525e-08

>  <i_epik_Tot_Q>  (369) 
0

>  <i_epik_Tot_abs_Q>  (369) 
0

>  <s_epik_Chemistry_Notes>  (369) 
This compound has an imine and may undergo hydrolysis.

>  <s_lp_Force_Field>  (369) 
OPLS3e

>  <r_lp_Energy>  (369) 
221.324

>  <b_lp_Chiralities_Consistent>  (369) 
1

>  <s_lp_Variant>  (369) 
106:0-2

>  <s_i_glide_gridfile>  (369) 
pfpi4k_grid

>  <i_i_glide_lignum>  (369) 
17

>  <i_i_glide_rotatable_bonds>  (369) 
1

>  <r_i_docking_score>  (369) 
-2.08217

>  <r_i_glide_ligand_efficiency>  (369) 
-0.053389

>  <r_i_glide_ligand_efficiency_sa>  (369) 
-0.181053

>  <r_i_glide_ligand_efficiency_ln>  (369) 
-0.446476

>  <r_i_glide_gscore>  (369) 
-2.08217

>  <r_i_glide_lipo>  (369) 
-0.286114

>  <r_i_glide_hbond>  (369) 
0

>  <r_i_glide_metal>  (369) 
-0

>  <r_i_glide_rewards>  (369) 
0

>  <r_i_glide_evdw>  (369) 
-30.2679

>  <r_i_glide_ecoul>  (369) 
-1.87618

>  <r_i_glide_erotb>  (369) 
0

>  <r_i_glide_esite>  (369) 
-0.0012348

>  <r_i_glide_emodel>  (369) 
-36.0831

>  <r_i_glide_energy>  (369) 
-32.1441

>  <r_i_glide_einternal>  (369) 
0.00173302

>  <r_i_glide_intrahb_reward>  (369) 
-0

>  <i_i_glide_confnum>  (369) 
2

>  <i_i_glide_posenum>  (369) 
1

>  <r_i_glide_eff_state_penalty>  (369) 
0

>  <ligand_id>  (369) 
106

>  <original_smiles>  (369) 
CC1CCC2(C)CCC3(C)C(C(O)CC4(C)C5=CC=C6C(=CC6C(C)C43C)N(C)c3cc(Cl)ccc35)C2C1C

>  <smiles>  (369) 
[H]OC1([H])C([H])([H])C2(C([H])([H])[H])C3=C([H])C([H])=C4C(=C([H])C4([H])C([H])(C([H])([H])[H])C2(C([H])([H])[H])C2(C([H])([H])[H])C([H])([H])C([H])([H])C4(C([H])([H])[H])C([H])([H])C([H])([H])C([H])(C([H])([H])[H])C([H])(C([H])([H])[H])C4([H])C12[H])N(C([H])([H])[H])c1c([H])c(Cl)c([H])c([H])c13

$$$$
106:1:1
     RDKit          3D

 87 93  0  0  1  0  0  0  0  0999 V2000
   -0.4158    4.8298    7.5357 C   0  0  0  0  0  0  0  0  0  0  0  0
   -0.4499    4.0618    6.1955 C   0  0  2  0  0  0  0  0  0  0  0  0
   -1.8252    3.4093    6.0438 C   0  0  0  0  0  0  0  0  0  0  0  0
   -1.9555    2.8115    4.6517 C   0  0  0  0  0  0  0  0  0  0  0  0
   -0.8983    1.7284    4.3131 C   0  0  2  0  0  0  0  0  0  0  0  0
   -1.1205    1.4895    2.7905 C   0  0  0  0  0  0  0  0  0  0  0  0
   -1.1774    0.4232    5.0943 C   0  0  0  0  0  0  0  0  0  0  0  0
   -0.1446   -0.7131    4.8482 C   0  0  0  0  0  0  0  0  0  0  0  0
    1.3816   -0.3766    5.1120 C   0  0  2  0  0  0  0  0  0  0  0  0
    1.4931   -0.1128    6.6566 C   0  0  0  0  0  0  0  0  0  0  0  0
    1.5656    1.0080    4.3652 C   0  0  2  0  0  0  0  0  0  0  0  0
    2.9947    1.3406    3.9244 C   0  0  1  0  0  0  0  0  0  0  0  0
    3.9176    1.5411    4.9708 O   0  0  0  0  0  0  0  0  0  0  0  0
    3.5361    0.2541    2.9769 C   0  0  0  0  0  0  0  0  0  0  0  0
    3.0375   -1.2411    3.0837 C   0  0  1  0  0  0  0  0  0  0  0  0
    1.8594   -1.4316    2.0711 C   0  0  0  0  0  0  0  0  0  0  0  0
    4.3270   -1.9701    2.4547 C   0  0  0  0  0  0  0  0  0  0  0  0
    5.2244   -2.8247    3.0129 C   0  0  0  0  0  0  0  0  0  0  0  0
    4.7219   -3.7322    3.9768 C   0  0  0  0  0  0  0  0  0  0  0  0
    3.5694   -4.2755    3.5960 C   0  0  0  0  0  0  0  0  0  0  0  0
    2.9556   -4.5471    2.4287 C   0  0  0  0  0  0  0  0  0  0  0  0
    1.8019   -4.9007    3.0281 C   0  0  0  0  0  0  0  0  0  0  0  0
    2.3453   -4.4268    4.3835 C   0  0  2  0  0  0  0  0  0  0  0  0
    1.7484   -3.0365    4.8519 C   0  0  1  0  0  0  0  0  0  0  0  0
    1.3080   -3.3261    6.3126 C   0  0  0  0  0  0  0  0  0  0  0  0
    2.4675   -1.5563    4.6164 C   0  0  2  0  0  0  0  0  0  0  0  0
    3.7343   -1.4474    5.5519 C   0  0  0  0  0  0  0  0  0  0  0  0
    3.3446   -4.5011    1.0803 N   0  0  0  0  0  0  0  0  0  0  0  0
    3.0664   -5.6938    0.2776 C   0  0  0  0  0  0  0  0  0  0  0  0
    3.9129   -3.3784    0.3681 C   0  0  0  0  0  0  0  0  0  0  0  0
    4.0056   -3.4152   -1.0501 C   0  0  0  0  0  0  0  0  0  0  0  0
    4.5210   -2.3464   -1.8025 C   0  0  0  0  0  0  0  0  0  0  0  0
    4.5913   -2.4657   -3.5174 Cl  0  0  0  0  0  0  0  0  0  0  0  0
    4.9678   -1.1853   -1.1608 C   0  0  0  0  0  0  0  0  0  0  0  0
    4.8887   -1.0988    0.2349 C   0  0  0  0  0  0  0  0  0  0  0  0
    4.3670   -2.1652    0.9944 C   0  0  0  0  0  0  0  0  0  0  0  0
    0.5623    2.2040    4.6532 C   0  0  2  0  0  0  0  0  0  0  0  0
    0.6648    2.9793    6.0326 C   0  0  1  0  0  0  0  0  0  0  0  0
    2.0632    3.5981    6.2667 C   0  0  0  0  0  0  0  0  0  0  0  0
   -0.3391    4.1517    8.3861 H   0  0  0  0  0  0  0  0  0  0  0  0
   -1.3189    5.4236    7.6734 H   0  0  0  0  0  0  0  0  0  0  0  0
    0.4113    5.5379    7.5877 H   0  0  0  0  0  0  0  0  0  0  0  0
   -0.3310    4.7998    5.3998 H   0  0  0  0  0  0  0  0  0  0  0  0
   -1.9771    2.6508    6.8101 H   0  0  0  0  0  0  0  0  0  0  0  0
   -2.6177    4.1462    6.1830 H   0  0  0  0  0  0  0  0  0  0  0  0
   -2.9637    2.4141    4.5235 H   0  0  0  0  0  0  0  0  0  0  0  0
   -1.8756    3.6268    3.9313 H   0  0  0  0  0  0  0  0  0  0  0  0
   -0.6349    0.6045    2.3930 H   0  0  0  0  0  0  0  0  0  0  0  0
   -0.7757    2.3384    2.1978 H   0  0  0  0  0  0  0  0  0  0  0  0
   -2.1783    1.3604    2.5622 H   0  0  0  0  0  0  0  0  0  0  0  0
   -1.2322    0.6453    6.1573 H   0  0  0  0  0  0  0  0  0  0  0  0
   -2.1749    0.0579    4.8413 H   0  0  0  0  0  0  0  0  0  0  0  0
   -0.4903   -1.5369    5.4605 H   0  0  0  0  0  0  0  0  0  0  0  0
   -0.3009   -1.0678    3.8373 H   0  0  0  0  0  0  0  0  0  0  0  0
    2.1659    0.7129    6.8746 H   0  0  0  0  0  0  0  0  0  0  0  0
    1.8833   -0.9460    7.2342 H   0  0  0  0  0  0  0  0  0  0  0  0
    0.5501    0.1232    7.1365 H   0  0  0  0  0  0  0  0  0  0  0  0
    1.2198    0.7991    3.3714 H   0  0  0  0  0  0  0  0  0  0  0  0
    2.9850    2.2821    3.3674 H   0  0  0  0  0  0  0  0  0  0  0  0
    3.6384    2.2986    5.4616 H   0  0  0  0  0  0  0  0  0  0  0  0
    3.3231    0.6027    1.9660 H   0  0  0  0  0  0  0  0  0  0  0  0
    4.6257    0.3078    3.0404 H   0  0  0  0  0  0  0  0  0  0  0  0
    0.9781   -0.8489    2.2606 H   0  0  0  0  0  0  0  0  0  0  0  0
    1.5076   -2.4543    2.0315 H   0  0  0  0  0  0  0  0  0  0  0  0
    2.1208   -1.1484    1.0532 H   0  0  0  0  0  0  0  0  0  0  0  0
    6.0127   -3.2383    2.3966 H   0  0  0  0  0  0  0  0  0  0  0  0
    4.9660   -3.6186    5.0158 H   0  0  0  0  0  0  0  0  0  0  0  0
    0.8431   -5.2701    2.6817 H   0  0  0  0  0  0  0  0  0  0  0  0
    2.3891   -5.2078    5.1498 H   0  0  0  0  0  0  0  0  0  0  0  0
    0.8232   -2.9685    4.2851 H   0  0  0  0  0  0  0  0  0  0  0  0
    2.1688   -3.4794    6.9637 H   0  0  0  0  0  0  0  0  0  0  0  0
    0.7201   -4.2432    6.3441 H   0  0  0  0  0  0  0  0  0  0  0  0
    0.6725   -2.5804    6.7730 H   0  0  0  0  0  0  0  0  0  0  0  0
    4.6687   -1.3423    5.0086 H   0  0  0  0  0  0  0  0  0  0  0  0
    3.8381   -2.2919    6.2285 H   0  0  0  0  0  0  0  0  0  0  0  0
    3.7941   -0.5733    6.1870 H   0  0  0  0  0  0  0  0  0  0  0  0
    3.9311   -5.9975   -0.3182 H   0  0  0  0  0  0  0  0  0  0  0  0
    2.2204   -5.5318   -0.3927 H   0  0  0  0  0  0  0  0  0  0  0  0
    2.8197   -6.5567    0.8999 H   0  0  0  0  0  0  0  0  0  0  0  0
    3.6641   -4.2562   -1.6303 H   0  0  0  0  0  0  0  0  0  0  0  0
    5.3556   -0.3575   -1.7318 H   0  0  0  0  0  0  0  0  0  0  0  0
    5.2368   -0.2036    0.7326 H   0  0  0  0  0  0  0  0  0  0  0  0
    0.7845    2.9665    3.9051 H   0  0  0  0  0  0  0  0  0  0  0  0
    0.4884    2.2866    6.8505 H   0  0  0  0  0  0  0  0  0  0  0  0
    2.4702    4.0541    5.3630 H   0  0  0  0  0  0  0  0  0  0  0  0
    2.7566    2.8529    6.6421 H   0  0  0  0  0  0  0  0  0  0  0  0
    2.0805    4.3587    7.0430 H   0  0  0  0  0  0  0  0  0  0  0  0
  1  2  1  0
  1 40  1  0
  1 41  1  0
  1 42  1  0
  2 38  1  0
  2  3  1  0
  2 43  1  6
  3  4  1  0
  3 44  1  0
  3 45  1  0
  4  5  1  0
  4 46  1  0
  4 47  1  0
  5 37  1  0
  5  6  1  6
  5  7  1  0
  6 48  1  0
  6 49  1  0
  6 50  1  0
  7  8  1  0
  7 51  1  0
  7 52  1  0
  8  9  1  0
  8 53  1  0
  8 54  1  0
  9 26  1  0
  9 10  1  1
  9 11  1  0
 10 55  1  0
 10 56  1  0
 10 57  1  0
 11 12  1  0
 11 37  1  0
 11 58  1  6
 12 13  1  0
 12 14  1  0
 12 59  1  6
 13 60  1  0
 14 15  1  0
 14 61  1  0
 14 62  1  0
 15 26  1  0
 15 16  1  6
 15 17  1  0
 16 63  1  0
 16 64  1  0
 16 65  1  0
 17 36  1  0
 17 18  2  3
 18 19  1  0
 18 66  1  0
 19 20  2  3
 19 67  1  0
 20 23  1  0
 20 21  1  0
 21 22  2  0
 21 28  1  0
 22 23  1  0
 22 68  1  0
 23 24  1  0
 23 69  1  1
 24 25  1  0
 24 26  1  0
 24 70  1  6
 25 71  1  0
 25 72  1  0
 25 73  1  0
 26 27  1  1
 27 74  1  0
 27 75  1  0
 27 76  1  0
 28 29  1  0
 28 30  1  0
 29 77  1  0
 29 78  1  0
 29 79  1  0
 30 36  2  0
 30 31  1  0
 31 32  2  0
 31 80  1  0
 32 33  1  0
 32 34  1  0
 34 35  2  0
 34 81  1  0
 35 36  1  0
 35 82  1  0
 37 38  1  0
 37 83  1  6
 38 39  1  0
 38 84  1  1
 39 85  1  0
 39 86  1  0
 39 87  1  0
M  END
>  <i_m_ct_stereo_status>  (370) 
1

>  <s_m_source_file>  (370) 
/var/tmp/pbs.5076255.sched01/tmpxe1g82q3/12669a6jj4p.sdf

>  <i_m_source_file_index>  (370) 
17

>  <i_lp_mmshare_version>  (370) 
48012

>  <i_f3d_flags>  (370) 
0

>  <s_epik_input>  (370) 
W0NIMl0xW0NIMl1bQ0BASF0oW0NIM10pW0NASF0oW0NIM10pW0NASF0oW0NAXTEyW0NIM10pW0NAQEhdM1tDQEBdKFtDSDNdKShbQ0gyXVtDSDJdMilbQ0BdNChbQ0gzXSlbQ0BAXShbQ0gzXSkoW0NIMl1bQ0BASF0zW09IXSkvQz01YzZjKFtjSF1jKENsKVtjSF1bY0hdNilOKFtDSDNdKUM9Ny9DKD1bQ0hdXFtDSF01KVtDQEhdKFtDSF03KVtDQEhdNFtDSDNd

>  <s_epik_cmdline>  (370) 
J2VwaWtfcHl0aG9uJywgJy1waHQnLCAnMi4wJywgJy1waCcsICc3LjAnLCAnLXRuJywgJzgnLCAnLW1hJywgJzIwMCcsICctaW1hZScsICc8aW5maWxlLm1hZT4nLCAnLW9tYWUnLCAnPG91dGZpbGUubWFlPic=

>  <r_lp_tautomer_probability>  (370) 
1

>  <r_epik_Ionization_Penalty>  (370) 
1.03483e-06

>  <r_epik_Ionization_Penalty_Charging>  (370) 
3.66525e-08

>  <r_epik_Ionization_Penalty_Neutral>  (370) 
9.98174e-07

>  <r_epik_State_Penalty>  (370) 
-0

>  <r_epik_Charging_Adjusted_Penalty>  (370) 
3.66525e-08

>  <i_epik_Tot_Q>  (370) 
0

>  <i_epik_Tot_abs_Q>  (370) 
0

>  <s_epik_Chemistry_Notes>  (370) 
This compound has an imine and may undergo hydrolysis.

>  <s_lp_Force_Field>  (370) 
OPLS3e

>  <r_lp_Energy>  (370) 
221.324

>  <b_lp_Chiralities_Consistent>  (370) 
1

>  <s_lp_Variant>  (370) 
106:0-2

>  <s_i_glide_gridfile>  (370) 
pfpi4k_grid

>  <i_i_glide_lignum>  (370) 
17

>  <i_i_glide_rotatable_bonds>  (370) 
1

>  <r_i_docking_score>  (370) 
-2.08139

>  <r_i_glide_ligand_efficiency>  (370) 
-0.0533691

>  <r_i_glide_ligand_efficiency_sa>  (370) 
-0.180986

>  <r_i_glide_ligand_efficiency_ln>  (370) 
-0.44631

>  <r_i_glide_gscore>  (370) 
-2.08139

>  <r_i_glide_lipo>  (370) 
-0.266314

>  <r_i_glide_hbond>  (370) 
0

>  <r_i_glide_metal>  (370) 
-0

>  <r_i_glide_rewards>  (370) 
0

>  <r_i_glide_evdw>  (370) 
-30.3806

>  <r_i_glide_ecoul>  (370) 
-1.96186

>  <r_i_glide_erotb>  (370) 
0

>  <r_i_glide_esite>  (370) 
-0.00177323

>  <r_i_glide_emodel>  (370) 
-36.1061

>  <r_i_glide_energy>  (370) 
-32.3424

>  <r_i_glide_einternal>  (370) 
0.334105

>  <r_i_glide_intrahb_reward>  (370) 
-0

>  <i_i_glide_confnum>  (370) 
2

>  <i_i_glide_posenum>  (370) 
18

>  <r_i_glide_eff_state_penalty>  (370) 
0

>  <ligand_id>  (370) 
106

>  <original_smiles>  (370) 
CC1CCC2(C)CCC3(C)C(C(O)CC4(C)C5=CC=C6C(=CC6C(C)C43C)N(C)c3cc(Cl)ccc35)C2C1C

>  <smiles>  (370) 
[H]OC1([H])C([H])([H])C2(C([H])([H])[H])C3=C([H])C([H])=C4C(=C([H])C4([H])C([H])(C([H])([H])[H])C2(C([H])([H])[H])C2(C([H])([H])[H])C([H])([H])C([H])([H])C4(C([H])([H])[H])C([H])([H])C([H])([H])C([H])(C([H])([H])[H])C([H])(C([H])([H])[H])C4([H])C12[H])N(C([H])([H])[H])c1c([H])c(Cl)c([H])c([H])c13

$$$$
106:1:2
     RDKit          3D

 87 93  0  0  1  0  0  0  0  0999 V2000
    1.3313    4.3861    3.6716 C   0  0  0  0  0  0  0  0  0  0  0  0
    0.5354    3.0694    3.8127 C   0  0  2  0  0  0  0  0  0  0  0  0
   -0.3652    3.1784    5.0443 C   0  0  0  0  0  0  0  0  0  0  0  0
   -1.2982    1.9778    5.1123 C   0  0  0  0  0  0  0  0  0  0  0  0
   -0.5796    0.6060    5.1873 C   0  0  2  0  0  0  0  0  0  0  0  0
   -1.7445   -0.4088    5.0002 C   0  0  0  0  0  0  0  0  0  0  0  0
    0.0681    0.3973    6.5752 C   0  0  0  0  0  0  0  0  0  0  0  0
    0.8426   -0.9418    6.7343 C   0  0  0  0  0  0  0  0  0  0  0  0
    1.9890   -1.2473    5.6827 C   0  0  2  0  0  0  0  0  0  0  0  0
    3.0895   -0.1543    5.9327 C   0  0  0  0  0  0  0  0  0  0  0  0
    1.2869   -0.9219    4.3005 C   0  0  2  0  0  0  0  0  0  0  0  0
    1.8754   -1.6276    3.0753 C   0  0  1  0  0  0  0  0  0  0  0  0
    3.1888   -1.2529    2.7237 O   0  0  0  0  0  0  0  0  0  0  0  0
    1.8183   -3.1581    3.2565 C   0  0  0  0  0  0  0  0  0  0  0  0
    1.8780   -3.8179    4.6899 C   0  0  1  0  0  0  0  0  0  0  0  0
    0.4078   -4.0482    5.1818 C   0  0  0  0  0  0  0  0  0  0  0  0
    2.4678   -5.2565    4.2704 C   0  0  0  0  0  0  0  0  0  0  0  0
    3.6596   -5.8439    4.5613 C   0  0  0  0  0  0  0  0  0  0  0  0
    4.1904   -5.5869    5.8499 C   0  0  0  0  0  0  0  0  0  0  0  0
    3.2597   -5.6570    6.7966 C   0  0  0  0  0  0  0  0  0  0  0  0
    2.0804   -6.2894    6.9712 C   0  0  0  0  0  0  0  0  0  0  0  0
    1.7958   -5.6156    8.1015 C   0  0  0  0  0  0  0  0  0  0  0  0
    3.0137   -4.7049    7.8844 C   0  0  2  0  0  0  0  0  0  0  0  0
    2.6379   -3.2596    7.3555 C   0  0  1  0  0  0  0  0  0  0  0  0
    3.4293   -2.3252    8.3111 C   0  0  0  0  0  0  0  0  0  0  0  0
    2.6363   -2.7934    5.7615 C   0  0  2  0  0  0  0  0  0  0  0  0
    4.1272   -2.7013    5.2500 C   0  0  0  0  0  0  0  0  0  0  0  0
    1.3878   -7.2873    6.2633 N   0  0  0  0  0  0  0  0  0  0  0  0
    0.9027   -8.4289    7.0442 C   0  0  0  0  0  0  0  0  0  0  0  0
    1.0257   -7.2827    4.8644 C   0  0  0  0  0  0  0  0  0  0  0  0
    0.1019   -8.2454    4.3690 C   0  0  0  0  0  0  0  0  0  0  0  0
   -0.3084   -8.2650    3.0232 C   0  0  0  0  0  0  0  0  0  0  0  0
   -1.4325   -9.4398    2.4813 Cl  0  0  0  0  0  0  0  0  0  0  0  0
    0.1897   -7.3240    2.1153 C   0  0  0  0  0  0  0  0  0  0  0  0
    1.0950   -6.3539    2.5633 C   0  0  0  0  0  0  0  0  0  0  0  0
    1.5082   -6.3178    3.9089 C   0  0  0  0  0  0  0  0  0  0  0  0
    0.5435    0.4679    4.0934 C   0  0  2  0  0  0  0  0  0  0  0  0
    1.4123    1.7819    3.9153 C   0  0  1  0  0  0  0  0  0  0  0  0
    2.3860    1.6953    2.7178 C   0  0  0  0  0  0  0  0  0  0  0  0
    2.1286    4.4603    4.4109 H   0  0  0  0  0  0  0  0  0  0  0  0
    0.6807    5.2526    3.7944 H   0  0  0  0  0  0  0  0  0  0  0  0
    1.7700    4.4962    2.6797 H   0  0  0  0  0  0  0  0  0  0  0  0
   -0.1034    2.9875    2.9314 H   0  0  0  0  0  0  0  0  0  0  0  0
    0.2322    3.2589    5.9524 H   0  0  0  0  0  0  0  0  0  0  0  0
   -0.9650    4.0891    4.9951 H   0  0  0  0  0  0  0  0  0  0  0  0
   -1.9743    2.1017    5.9600 H   0  0  0  0  0  0  0  0  0  0  0  0
   -1.9312    2.0080    4.2237 H   0  0  0  0  0  0  0  0  0  0  0  0
   -1.4962   -1.4381    5.2331 H   0  0  0  0  0  0  0  0  0  0  0  0
   -2.1177   -0.3923    3.9772 H   0  0  0  0  0  0  0  0  0  0  0  0
   -2.5834   -0.1624    5.6486 H   0  0  0  0  0  0  0  0  0  0  0  0
    0.7296    1.2325    6.7937 H   0  0  0  0  0  0  0  0  0  0  0  0
   -0.6986    0.4582    7.3484 H   0  0  0  0  0  0  0  0  0  0  0  0
    1.2204   -0.9197    7.7491 H   0  0  0  0  0  0  0  0  0  0  0  0
    0.1059   -1.7351    6.7571 H   0  0  0  0  0  0  0  0  0  0  0  0
    3.5154    0.2050    4.9989 H   0  0  0  0  0  0  0  0  0  0  0  0
    3.9421   -0.4923    6.5145 H   0  0  0  0  0  0  0  0  0  0  0  0
    2.7358    0.7198    6.4674 H   0  0  0  0  0  0  0  0  0  0  0  0
    0.4017   -1.5266    4.3266 H   0  0  0  0  0  0  0  0  0  0  0  0
    1.2680   -1.3718    2.2023 H   0  0  0  0  0  0  0  0  0  0  0  0
    3.3381   -1.5088    1.8256 H   0  0  0  0  0  0  0  0  0  0  0  0
    0.8825   -3.4823    2.8119 H   0  0  0  0  0  0  0  0  0  0  0  0
    2.5808   -3.5806    2.5969 H   0  0  0  0  0  0  0  0  0  0  0  0
   -0.1808   -3.1631    5.3264 H   0  0  0  0  0  0  0  0  0  0  0  0
    0.3621   -4.5660    6.1320 H   0  0  0  0  0  0  0  0  0  0  0  0
   -0.1902   -4.6276    4.4834 H   0  0  0  0  0  0  0  0  0  0  0  0
    3.8551   -6.8466    4.2031 H   0  0  0  0  0  0  0  0  0  0  0  0
    5.0606   -4.9692    5.9692 H   0  0  0  0  0  0  0  0  0  0  0  0
    0.9812   -5.6366    8.8199 H   0  0  0  0  0  0  0  0  0  0  0  0
    3.7524   -4.7349    8.6904 H   0  0  0  0  0  0  0  0  0  0  0  0
    1.5998   -3.1578    7.6577 H   0  0  0  0  0  0  0  0  0  0  0  0
    4.5028   -2.3962    8.1391 H   0  0  0  0  0  0  0  0  0  0  0  0
    3.2533   -2.6216    9.3448 H   0  0  0  0  0  0  0  0  0  0  0  0
    3.1576   -1.2769    8.2820 H   0  0  0  0  0  0  0  0  0  0  0  0
    4.3566   -3.3959    4.4477 H   0  0  0  0  0  0  0  0  0  0  0  0
    4.8573   -2.8555    6.0397 H   0  0  0  0  0  0  0  0  0  0  0  0
    4.4194   -1.7726    4.7767 H   0  0  0  0  0  0  0  0  0  0  0  0
    1.1329   -9.3854    6.5685 H   0  0  0  0  0  0  0  0  0  0  0  0
   -0.1772   -8.3760    7.1965 H   0  0  0  0  0  0  0  0  0  0  0  0
    1.3627   -8.4681    8.0335 H   0  0  0  0  0  0  0  0  0  0  0  0
   -0.3409   -9.0000    4.9996 H   0  0  0  0  0  0  0  0  0  0  0  0
   -0.1133   -7.3565    1.0839 H   0  0  0  0  0  0  0  0  0  0  0  0
    1.4996   -5.6375    1.8646 H   0  0  0  0  0  0  0  0  0  0  0  0
    0.0053    0.3810    3.1489 H   0  0  0  0  0  0  0  0  0  0  0  0
    2.0174    1.9376    4.8022 H   0  0  0  0  0  0  0  0  0  0  0  0
    1.9279    1.2346    1.8417 H   0  0  0  0  0  0  0  0  0  0  0  0
    3.2773    1.1350    2.9822 H   0  0  0  0  0  0  0  0  0  0  0  0
    2.7808    2.6580    2.4055 H   0  0  0  0  0  0  0  0  0  0  0  0
  1  2  1  0
  1 40  1  0
  1 41  1  0
  1 42  1  0
  2 38  1  0
  2  3  1  0
  2 43  1  6
  3  4  1  0
  3 44  1  0
  3 45  1  0
  4  5  1  0
  4 46  1  0
  4 47  1  0
  5 37  1  0
  5  6  1  6
  5  7  1  0
  6 48  1  0
  6 49  1  0
  6 50  1  0
  7  8  1  0
  7 51  1  0
  7 52  1  0
  8  9  1  0
  8 53  1  0
  8 54  1  0
  9 26  1  0
  9 10  1  1
  9 11  1  0
 10 55  1  0
 10 56  1  0
 10 57  1  0
 11 12  1  0
 11 37  1  0
 11 58  1  1
 12 13  1  0
 12 14  1  0
 12 59  1  6
 13 60  1  0
 14 15  1  0
 14 61  1  0
 14 62  1  0
 15 26  1  0
 15 16  1  1
 15 17  1  0
 16 63  1  0
 16 64  1  0
 16 65  1  0
 17 36  1  0
 17 18  2  3
 18 19  1  0
 18 66  1  0
 19 20  2  3
 19 67  1  0
 20 23  1  0
 20 21  1  0
 21 22  2  0
 21 28  1  0
 22 23  1  0
 22 68  1  0
 23 24  1  0
 23 69  1  1
 24 25  1  0
 24 26  1  0
 24 70  1  1
 25 71  1  0
 25 72  1  0
 25 73  1  0
 26 27  1  6
 27 74  1  0
 27 75  1  0
 27 76  1  0
 28 29  1  0
 28 30  1  0
 29 77  1  0
 29 78  1  0
 29 79  1  0
 30 36  2  0
 30 31  1  0
 31 32  2  0
 31 80  1  0
 32 33  1  0
 32 34  1  0
 34 35  2  0
 34 81  1  0
 35 36  1  0
 35 82  1  0
 37 38  1  0
 37 83  1  6
 38 39  1  0
 38 84  1  1
 39 85  1  0
 39 86  1  0
 39 87  1  0
M  END
>  <i_m_ct_stereo_status>  (371) 
1

>  <s_m_source_file>  (371) 
/var/tmp/pbs.5076255.sched01/tmpxe1g82q3/12669a6jj4p.sdf

>  <i_m_source_file_index>  (371) 
17

>  <i_lp_mmshare_version>  (371) 
48012

>  <i_f3d_flags>  (371) 
0

>  <s_epik_input>  (371) 
W0NIMl0xW0NIMl1bQ0BASF0oW0NIM10pW0NASF0oW0NIM10pW0NASF0oW0NAXTEyW0NIM10pW0NAQEhdM1tDQEBdKFtDSDNdKShbQ0gyXVtDSDJdMilbQ0BdNChbQ0gzXSlbQ0BAXShbQ0gzXSkoW0NIMl1bQ0BASF0zW09IXSkvQz01YzZjKFtjSF1jKENsKVtjSF1bY0hdNilOKFtDSDNdKUM9Ny9DKD1bQ0hdXFtDSF01KVtDQEhdKFtDSF03KVtDQEhdNFtDSDNd

>  <s_epik_cmdline>  (371) 
J2VwaWtfcHl0aG9uJywgJy1waHQnLCAnMi4wJywgJy1waCcsICc3LjAnLCAnLXRuJywgJzgnLCAnLW1hJywgJzIwMCcsICctaW1hZScsICc8aW5maWxlLm1hZT4nLCAnLW9tYWUnLCAnPG91dGZpbGUubWFlPic=

>  <r_lp_tautomer_probability>  (371) 
1

>  <r_epik_Ionization_Penalty>  (371) 
1.03483e-06

>  <r_epik_Ionization_Penalty_Charging>  (371) 
3.66525e-08

>  <r_epik_Ionization_Penalty_Neutral>  (371) 
9.98174e-07

>  <r_epik_State_Penalty>  (371) 
-0

>  <r_epik_Charging_Adjusted_Penalty>  (371) 
3.66525e-08

>  <i_epik_Tot_Q>  (371) 
0

>  <i_epik_Tot_abs_Q>  (371) 
0

>  <s_epik_Chemistry_Notes>  (371) 
This compound has an imine and may undergo hydrolysis.

>  <s_lp_Force_Field>  (371) 
OPLS3e

>  <r_lp_Energy>  (371) 
221.324

>  <b_lp_Chiralities_Consistent>  (371) 
1

>  <s_lp_Variant>  (371) 
106:0-2

>  <s_i_glide_gridfile>  (371) 
pfpi4k_grid

>  <i_i_glide_lignum>  (371) 
17

>  <i_i_glide_rotatable_bonds>  (371) 
1

>  <r_i_docking_score>  (371) 
-1.7772

>  <r_i_glide_ligand_efficiency>  (371) 
-0.0455692

>  <r_i_glide_ligand_efficiency_sa>  (371) 
-0.154535

>  <r_i_glide_ligand_efficiency_ln>  (371) 
-0.381082

>  <r_i_glide_gscore>  (371) 
-1.7772

>  <r_i_glide_lipo>  (371) 
-0.260166

>  <r_i_glide_hbond>  (371) 
0

>  <r_i_glide_metal>  (371) 
-0

>  <r_i_glide_rewards>  (371) 
0

>  <r_i_glide_evdw>  (371) 
-27.3078

>  <r_i_glide_ecoul>  (371) 
-0.983123

>  <r_i_glide_erotb>  (371) 
0

>  <r_i_glide_esite>  (371) 
-0.00417339

>  <r_i_glide_emodel>  (371) 
-31.2885

>  <r_i_glide_energy>  (371) 
-28.291

>  <r_i_glide_einternal>  (371) 
0.490653

>  <r_i_glide_intrahb_reward>  (371) 
-0

>  <i_i_glide_confnum>  (371) 
2

>  <i_i_glide_posenum>  (371) 
28

>  <r_i_glide_eff_state_penalty>  (371) 
0

>  <ligand_id>  (371) 
106

>  <original_smiles>  (371) 
CC1CCC2(C)CCC3(C)C(C(O)CC4(C)C5=CC=C6C(=CC6C(C)C43C)N(C)c3cc(Cl)ccc35)C2C1C

>  <smiles>  (371) 
[H]OC1([H])C([H])([H])C2(C([H])([H])[H])C3=C([H])C([H])=C4C(=C([H])C4([H])C([H])(C([H])([H])[H])C2(C([H])([H])[H])C2(C([H])([H])[H])C([H])([H])C([H])([H])C4(C([H])([H])[H])C([H])([H])C([H])([H])C([H])(C([H])([H])[H])C([H])(C([H])([H])[H])C4([H])C12[H])N(C([H])([H])[H])c1c([H])c(Cl)c([H])c([H])c13

$$$$
106:2:0
     RDKit          3D

 87 93  0  0  1  0  0  0  0  0999 V2000
   -0.3356    4.7959    7.8914 C   0  0  0  0  0  0  0  0  0  0  0  0
   -0.3983    4.0489    6.5427 C   0  0  2  0  0  0  0  0  0  0  0  0
   -1.7761    3.4093    6.3841 C   0  0  0  0  0  0  0  0  0  0  0  0
   -1.9399    2.9248    4.9563 C   0  0  0  0  0  0  0  0  0  0  0  0
   -0.8792    1.9069    4.4727 C   0  0  2  0  0  0  0  0  0  0  0  0
   -1.1095    1.9059    2.9370 C   0  0  0  0  0  0  0  0  0  0  0  0
   -1.1645    0.4887    5.0244 C   0  0  0  0  0  0  0  0  0  0  0  0
   -0.1188   -0.5977    4.6443 C   0  0  0  0  0  0  0  0  0  0  0  0
    1.3914   -0.2783    4.9921 C   0  0  2  0  0  0  0  0  0  0  0  0
    1.4653   -0.2166    6.5505 C   0  0  0  0  0  0  0  0  0  0  0  0
    1.5853    1.1974    4.4378 C   0  0  2  0  0  0  0  0  0  0  0  0
    3.0062    1.5832    3.9963 C   0  0  1  0  0  0  0  0  0  0  0  0
    3.9289    1.6987    5.0520 O   0  0  0  0  0  0  0  0  0  0  0  0
    3.5631    0.6002    2.9424 C   0  0  0  0  0  0  0  0  0  0  0  0
    2.9842   -0.8470    2.8864 C   0  0  1  0  0  0  0  0  0  0  0  0
    1.7950   -0.8789    1.8689 C   0  0  0  0  0  0  0  0  0  0  0  0
    4.0943   -1.6673    2.1679 C   0  0  0  0  0  0  0  0  0  0  0  0
    5.1250   -2.2310    2.8265 C   0  0  0  0  0  0  0  0  0  0  0  0
    5.1383   -3.6200    2.6414 C   0  0  0  0  0  0  0  0  0  0  0  0
    3.9398   -4.1897    2.9231 C   0  0  0  0  0  0  0  0  0  0  0  0
    3.0010   -4.5732    2.0704 C   0  0  0  0  0  0  0  0  0  0  0  0
    2.1452   -4.9790    3.0270 C   0  0  0  0  0  0  0  0  0  0  0  0
    2.9400   -4.1522    4.0482 C   0  0  2  0  0  0  0  0  0  0  0  0
    2.0142   -2.9109    4.4062 C   0  0  1  0  0  0  0  0  0  0  0  0
    1.4031   -3.3739    5.7579 C   0  0  0  0  0  0  0  0  0  0  0  0
    2.5094   -1.3678    4.3808 C   0  0  2  0  0  0  0  0  0  0  0  0
    3.7497   -1.4013    5.3422 C   0  0  0  0  0  0  0  0  0  0  0  0
    2.8936   -4.3736    0.7116 N   0  0  0  0  0  0  0  0  0  0  0  0
    1.8618   -5.0878   -0.0453 C   0  0  0  0  0  0  0  0  0  0  0  0
    3.4685   -3.2362    0.0408 C   0  0  0  0  0  0  0  0  0  0  0  0
    3.5353   -3.2782   -1.3789 C   0  0  0  0  0  0  0  0  0  0  0  0
    4.0916   -2.2435   -2.1470 C   0  0  0  0  0  0  0  0  0  0  0  0
    4.1734   -2.3846   -3.8640 Cl  0  0  0  0  0  0  0  0  0  0  0  0
    4.6175   -1.1152   -1.5128 C   0  0  0  0  0  0  0  0  0  0  0  0
    4.5519   -1.0317   -0.1170 C   0  0  0  0  0  0  0  0  0  0  0  0
    3.9801   -2.0435    0.6850 C   0  0  0  0  0  0  0  0  0  0  0  0
    0.5810    2.3348    4.8736 C   0  0  2  0  0  0  0  0  0  0  0  0
    0.6714    2.9424    6.3308 C   0  0  1  0  0  0  0  0  0  0  0  0
    2.0756    3.4501    6.6969 C   0  0  0  0  0  0  0  0  0  0  0  0
   -0.2787    4.1018    8.7316 H   0  0  0  0  0  0  0  0  0  0  0  0
   -1.2151    5.4265    8.0324 H   0  0  0  0  0  0  0  0  0  0  0  0
    0.5247    5.4659    7.9310 H   0  0  0  0  0  0  0  0  0  0  0  0
   -0.2797    4.8030    5.7659 H   0  0  0  0  0  0  0  0  0  0  0  0
   -1.9035    2.5860    7.0874 H   0  0  0  0  0  0  0  0  0  0  0  0
   -2.5791    4.1251    6.6160 H   0  0  0  0  0  0  0  0  0  0  0  0
   -2.9281    2.4867    4.8691 H   0  0  0  0  0  0  0  0  0  0  0  0
   -1.9394    3.7995    4.2953 H   0  0  0  0  0  0  0  0  0  0  0  0
   -0.6270    1.0915    2.4069 H   0  0  0  0  0  0  0  0  0  0  0  0
   -0.7587    2.8360    2.4892 H   0  0  0  0  0  0  0  0  0  0  0  0
   -2.1736    1.8140    2.6985 H   0  0  0  0  0  0  0  0  0  0  0  0
   -1.2740    0.5473    6.1024 H   0  0  0  0  0  0  0  0  0  0  0  0
   -2.1430    0.1588    4.6678 H   0  0  0  0  0  0  0  0  0  0  0  0
   -0.4737   -1.4926    5.1280 H   0  0  0  0  0  0  0  0  0  0  0  0
   -0.2478   -0.8339    3.5985 H   0  0  0  0  0  0  0  0  0  0  0  0
    2.2820    0.4219    6.8758 H   0  0  0  0  0  0  0  0  0  0  0  0
    1.6071   -1.1787    7.0329 H   0  0  0  0  0  0  0  0  0  0  0  0
    0.5642    0.1467    7.0096 H   0  0  0  0  0  0  0  0  0  0  0  0
    1.2282    1.1270    3.4318 H   0  0  0  0  0  0  0  0  0  0  0  0
    2.9710    2.5720    3.5223 H   0  0  0  0  0  0  0  0  0  0  0  0
    4.7281    2.0714    4.6883 H   0  0  0  0  0  0  0  0  0  0  0  0
    3.4029    1.0544    1.9693 H   0  0  0  0  0  0  0  0  0  0  0  0
    4.6501    0.5486    3.0497 H   0  0  0  0  0  0  0  0  0  0  0  0
    0.9316   -0.2814    2.0829 H   0  0  0  0  0  0  0  0  0  0  0  0
    1.4397   -1.8975    1.7109 H   0  0  0  0  0  0  0  0  0  0  0  0
    2.0918   -0.4785    0.8976 H   0  0  0  0  0  0  0  0  0  0  0  0
    5.4751   -1.9417    3.7857 H   0  0  0  0  0  0  0  0  0  0  0  0
    5.5546   -3.8991    1.6927 H   0  0  0  0  0  0  0  0  0  0  0  0
    1.1498   -5.4211    3.0590 H   0  0  0  0  0  0  0  0  0  0  0  0
    3.3117   -4.7123    4.9392 H   0  0  0  0  0  0  0  0  0  0  0  0
    1.1846   -2.9198    3.7105 H   0  0  0  0  0  0  0  0  0  0  0  0
    2.1768   -3.4036    6.5246 H   0  0  0  0  0  0  0  0  0  0  0  0
    1.0046   -4.3828    5.6483 H   0  0  0  0  0  0  0  0  0  0  0  0
    0.5737   -2.7896    6.1532 H   0  0  0  0  0  0  0  0  0  0  0  0
    4.2495   -2.3702    5.3211 H   0  0  0  0  0  0  0  0  0  0  0  0
    3.5765   -1.3071    6.4077 H   0  0  0  0  0  0  0  0  0  0  0  0
    4.4917   -0.6466    5.1093 H   0  0  0  0  0  0  0  0  0  0  0  0
    2.2926   -5.8965   -0.6303 H   0  0  0  0  0  0  0  0  0  0  0  0
    1.3301   -4.4344   -0.7413 H   0  0  0  0  0  0  0  0  0  0  0  0
    1.1275   -5.5514    0.6108 H   0  0  0  0  0  0  0  0  0  0  0  0
    3.1721   -4.1279   -1.9250 H   0  0  0  0  0  0  0  0  0  0  0  0
    5.0712   -0.3169   -2.0904 H   0  0  0  0  0  0  0  0  0  0  0  0
    4.9788   -0.1550    0.3632 H   0  0  0  0  0  0  0  0  0  0  0  0
    0.8072    3.1761    4.2215 H   0  0  0  0  0  0  0  0  0  0  0  0
    0.4279    2.1881    7.0747 H   0  0  0  0  0  0  0  0  0  0  0  0
    2.5154    4.0619    5.9061 H   0  0  0  0  0  0  0  0  0  0  0  0
    2.7339    2.6155    6.9049 H   0  0  0  0  0  0  0  0  0  0  0  0
    2.0967    4.0265    7.6205 H   0  0  0  0  0  0  0  0  0  0  0  0
  1  2  1  0
  1 40  1  0
  1 41  1  0
  1 42  1  0
  2 38  1  0
  2  3  1  0
  2 43  1  6
  3  4  1  0
  3 44  1  0
  3 45  1  0
  4  5  1  0
  4 46  1  0
  4 47  1  0
  5 37  1  0
  5  6  1  6
  5  7  1  0
  6 48  1  0
  6 49  1  0
  6 50  1  0
  7  8  1  0
  7 51  1  0
  7 52  1  0
  8  9  1  0
  8 53  1  0
  8 54  1  0
  9 26  1  0
  9 10  1  1
  9 11  1  0
 10 55  1  0
 10 56  1  0
 10 57  1  0
 11 12  1  0
 11 37  1  0
 11 58  1  6
 12 13  1  0
 12 14  1  0
 12 59  1  6
 13 60  1  0
 14 15  1  0
 14 61  1  0
 14 62  1  0
 15 26  1  0
 15 16  1  6
 15 17  1  0
 16 63  1  0
 16 64  1  0
 16 65  1  0
 17 36  1  0
 17 18  2  3
 18 19  1  0
 18 66  1  0
 19 20  2  3
 19 67  1  0
 20 23  1  0
 20 21  1  0
 21 22  2  0
 21 28  1  0
 22 23  1  0
 22 68  1  0
 23 24  1  0
 23 69  1  1
 24 25  1  0
 24 26  1  0
 24 70  1  6
 25 71  1  0
 25 72  1  0
 25 73  1  0
 26 27  1  1
 27 74  1  0
 27 75  1  0
 27 76  1  0
 28 29  1  0
 28 30  1  0
 29 77  1  0
 29 78  1  0
 29 79  1  0
 30 36  2  0
 30 31  1  0
 31 32  2  0
 31 80  1  0
 32 33  1  0
 32 34  1  0
 34 35  2  0
 34 81  1  0
 35 36  1  0
 35 82  1  0
 37 38  1  0
 37 83  1  6
 38 39  1  0
 38 84  1  1
 39 85  1  0
 39 86  1  0
 39 87  1  0
M  END
>  <i_m_ct_stereo_status>  (372) 
1

>  <s_m_source_file>  (372) 
/var/tmp/pbs.5076255.sched01/tmpxe1g82q3/12669a6jj4p.sdf

>  <i_m_source_file_index>  (372) 
18

>  <i_lp_mmshare_version>  (372) 
48012

>  <i_f3d_flags>  (372) 
0

>  <s_epik_input>  (372) 
W0NIMl0xW0NIMl1bQ0BASF0oW0NIM10pW0NASF0oW0NIM10pW0NASF0oW0NAXTEyW0NIM10pW0NAQEhdM1tDQEBdKFtDSDNdKShbQ0gyXVtDSDJdMilbQ0BdNChbQ0gzXSlbQ0BAXShbQ0gzXSkoW0NIMl1bQ0BASF0zW09IXSkvQz01YzZjKFtjSF1jKENsKVtjSF1bY0hdNilOKFtDSDNdKUM9Ny9DKD1bQ0hdXFtDSF01KVtDQEhdKFtDSF03KVtDQEhdNFtDSDNd

>  <s_epik_cmdline>  (372) 
J2VwaWtfcHl0aG9uJywgJy1waHQnLCAnMi4wJywgJy1waCcsICc3LjAnLCAnLXRuJywgJzgnLCAnLW1hJywgJzIwMCcsICctaW1hZScsICc8aW5maWxlLm1hZT4nLCAnLW9tYWUnLCAnPG91dGZpbGUubWFlPic=

>  <r_lp_tautomer_probability>  (372) 
1

>  <r_epik_Ionization_Penalty>  (372) 
1.03483e-06

>  <r_epik_Ionization_Penalty_Charging>  (372) 
3.66525e-08

>  <r_epik_Ionization_Penalty_Neutral>  (372) 
9.98174e-07

>  <r_epik_State_Penalty>  (372) 
-0

>  <r_epik_Charging_Adjusted_Penalty>  (372) 
3.66525e-08

>  <i_epik_Tot_Q>  (372) 
0

>  <i_epik_Tot_abs_Q>  (372) 
0

>  <s_epik_Chemistry_Notes>  (372) 
This compound has an imine and may undergo hydrolysis.

>  <s_lp_Force_Field>  (372) 
OPLS3e

>  <r_lp_Energy>  (372) 
241.567

>  <b_lp_Chiralities_Consistent>  (372) 
1

>  <s_lp_Variant>  (372) 
106:0-3

>  <s_i_glide_gridfile>  (372) 
pfpi4k_grid

>  <i_i_glide_lignum>  (372) 
18

>  <i_i_glide_rotatable_bonds>  (372) 
1

>  <r_i_docking_score>  (372) 
-2.02859

>  <r_i_glide_ligand_efficiency>  (372) 
-0.0520151

>  <r_i_glide_ligand_efficiency_sa>  (372) 
-0.176394

>  <r_i_glide_ligand_efficiency_ln>  (372) 
-0.434987

>  <r_i_glide_gscore>  (372) 
-2.02859

>  <r_i_glide_lipo>  (372) 
-0.264684

>  <r_i_glide_hbond>  (372) 
0

>  <r_i_glide_metal>  (372) 
-0

>  <r_i_glide_rewards>  (372) 
0

>  <r_i_glide_evdw>  (372) 
-30.4807

>  <r_i_glide_ecoul>  (372) 
-1.47979

>  <r_i_glide_erotb>  (372) 
0

>  <r_i_glide_esite>  (372) 
-0.017902

>  <r_i_glide_emodel>  (372) 
-35.218

>  <r_i_glide_energy>  (372) 
-31.9605

>  <r_i_glide_einternal>  (372) 
0.332939

>  <r_i_glide_intrahb_reward>  (372) 
-0

>  <i_i_glide_confnum>  (372) 
1

>  <i_i_glide_posenum>  (372) 
6

>  <r_i_glide_eff_state_penalty>  (372) 
0

>  <ligand_id>  (372) 
106

>  <original_smiles>  (372) 
CC1CCC2(C)CCC3(C)C(C(O)CC4(C)C5=CC=C6C(=CC6C(C)C43C)N(C)c3cc(Cl)ccc35)C2C1C

>  <smiles>  (372) 
[H]OC1([H])C([H])([H])C2(C([H])([H])[H])C3=C([H])C([H])=C4C(=C([H])C4([H])C([H])(C([H])([H])[H])C2(C([H])([H])[H])C2(C([H])([H])[H])C([H])([H])C([H])([H])C4(C([H])([H])[H])C([H])([H])C([H])([H])C([H])(C([H])([H])[H])C([H])(C([H])([H])[H])C4([H])C12[H])N(C([H])([H])[H])c1c([H])c(Cl)c([H])c([H])c13

$$$$
106:2:1
     RDKit          3D

 87 93  0  0  1  0  0  0  0  0999 V2000
   -1.1428    4.2548    7.9349 C   0  0  0  0  0  0  0  0  0  0  0  0
   -0.9012    3.5787    6.5714 C   0  0  2  0  0  0  0  0  0  0  0  0
   -2.2349    3.1054    5.9970 C   0  0  0  0  0  0  0  0  0  0  0  0
   -2.0410    2.6868    4.5492 C   0  0  0  0  0  0  0  0  0  0  0  0
   -0.9742    1.5851    4.3089 C   0  0  2  0  0  0  0  0  0  0  0  0
   -0.7723    1.6689    2.7696 C   0  0  0  0  0  0  0  0  0  0  0  0
   -1.5103    0.1858    4.6920 C   0  0  0  0  0  0  0  0  0  0  0  0
   -0.5129   -0.9886    4.5223 C   0  0  0  0  0  0  0  0  0  0  0  0
    0.8590   -0.8438    5.2815 C   0  0  2  0  0  0  0  0  0  0  0  0
    0.4967   -0.8599    6.7970 C   0  0  0  0  0  0  0  0  0  0  0  0
    1.3267    0.6219    4.8942 C   0  0  2  0  0  0  0  0  0  0  0  0
    2.8452    0.8780    4.8852 C   0  0  1  0  0  0  0  0  0  0  0  0
    3.4433    0.8455    6.1605 O   0  0  0  0  0  0  0  0  0  0  0  0
    3.5848   -0.1120    3.9551 C   0  0  0  0  0  0  0  0  0  0  0  0
    2.9110   -1.4911    3.6408 C   0  0  1  0  0  0  0  0  0  0  0  0
    2.0430   -1.3640    2.3352 C   0  0  0  0  0  0  0  0  0  0  0  0
    4.0972   -2.3983    3.2021 C   0  0  0  0  0  0  0  0  0  0  0  0
    4.8495   -3.0989    4.0819 C   0  0  0  0  0  0  0  0  0  0  0  0
    4.7733   -4.4754    3.8114 C   0  0  0  0  0  0  0  0  0  0  0  0
    3.5061   -4.9138    3.7129 C   0  0  0  0  0  0  0  0  0  0  0  0
    2.8043   -5.1597    2.6194 C   0  0  0  0  0  0  0  0  0  0  0  0
    1.6834   -5.5227    3.2738 C   0  0  0  0  0  0  0  0  0  0  0  0
    2.2413   -4.8259    4.5282 C   0  0  2  0  0  0  0  0  0  0  0  0
    1.3685   -3.5074    4.7015 C   0  0  1  0  0  0  0  0  0  0  0  0
    0.3609   -3.9540    5.8011 C   0  0  0  0  0  0  0  0  0  0  0  0
    1.9935   -2.0175    4.9156 C   0  0  2  0  0  0  0  0  0  0  0  0
    2.9078   -2.2295    6.1733 C   0  0  0  0  0  0  0  0  0  0  0  0
    3.0888   -4.9034    1.2945 N   0  0  0  0  0  0  0  0  0  0  0  0
    2.2505   -5.4607    0.2318 C   0  0  0  0  0  0  0  0  0  0  0  0
    3.9366   -3.8119    0.8848 C   0  0  0  0  0  0  0  0  0  0  0  0
    4.3925   -3.8154   -0.4601 C   0  0  0  0  0  0  0  0  0  0  0  0
    5.2393   -2.8230   -0.9720 C   0  0  0  0  0  0  0  0  0  0  0  0
    5.7919   -2.9524   -2.5953 Cl  0  0  0  0  0  0  0  0  0  0  0  0
    5.6625   -1.7732   -0.1499 C   0  0  0  0  0  0  0  0  0  0  0  0
    5.2160   -1.7298    1.1782 C   0  0  0  0  0  0  0  0  0  0  0  0
    4.3593   -2.7038    1.7238 C   0  0  0  0  0  0  0  0  0  0  0  0
    0.3511    1.8392    5.1173 C   0  0  2  0  0  0  0  0  0  0  0  0
    0.0827    2.3740    6.5816 C   0  0  1  0  0  0  0  0  0  0  0  0
    1.3704    2.7138    7.3511 C   0  0  0  0  0  0  0  0  0  0  0  0
   -1.3804    3.5273    8.7115 H   0  0  0  0  0  0  0  0  0  0  0  0
   -1.9646    4.9642    7.8794 H   0  0  0  0  0  0  0  0  0  0  0  0
   -0.2690    4.8305    8.2530 H   0  0  0  0  0  0  0  0  0  0  0  0
   -0.5007    4.3481    5.9063 H   0  0  0  0  0  0  0  0  0  0  0  0
   -2.6335    2.2777    6.5819 H   0  0  0  0  0  0  0  0  0  0  0  0
   -2.9826    3.9013    6.0426 H   0  0  0  0  0  0  0  0  0  0  0  0
   -2.9967    2.3441    4.1558 H   0  0  0  0  0  0  0  0  0  0  0  0
   -1.7892    3.5802    3.9742 H   0  0  0  0  0  0  0  0  0  0  0  0
   -0.2401    0.8285    2.3350 H   0  0  0  0  0  0  0  0  0  0  0  0
   -0.2264    2.5732    2.4947 H   0  0  0  0  0  0  0  0  0  0  0  0
   -1.7300    1.7028    2.2435 H   0  0  0  0  0  0  0  0  0  0  0  0
   -1.9234    0.2128    5.6929 H   0  0  0  0  0  0  0  0  0  0  0  0
   -2.3769   -0.0515    4.0816 H   0  0  0  0  0  0  0  0  0  0  0  0
   -1.0746   -1.8633    4.8093 H   0  0  0  0  0  0  0  0  0  0  0  0
   -0.3589   -1.1468    3.4679 H   0  0  0  0  0  0  0  0  0  0  0  0
    1.2429   -0.3208    7.3747 H   0  0  0  0  0  0  0  0  0  0  0  0
    0.4075   -1.8480    7.2327 H   0  0  0  0  0  0  0  0  0  0  0  0
   -0.4598   -0.4184    7.0153 H   0  0  0  0  0  0  0  0  0  0  0  0
    1.2568    0.6270    3.8296 H   0  0  0  0  0  0  0  0  0  0  0  0
    3.0308    1.8802    4.4912 H   0  0  0  0  0  0  0  0  0  0  0  0
    4.3484    1.1217    6.0622 H   0  0  0  0  0  0  0  0  0  0  0  0
    3.7476    0.3941    3.0070 H   0  0  0  0  0  0  0  0  0  0  0  0
    4.5936   -0.2662    4.3488 H   0  0  0  0  0  0  0  0  0  0  0  0
    1.2165   -0.6833    2.3556 H   0  0  0  0  0  0  0  0  0  0  0  0
    1.6461   -2.3316    2.0336 H   0  0  0  0  0  0  0  0  0  0  0  0
    2.6099   -0.9720    1.4872 H   0  0  0  0  0  0  0  0  0  0  0  0
    4.9457   -2.8838    5.1187 H   0  0  0  0  0  0  0  0  0  0  0  0
    5.4226   -4.7632    2.9995 H   0  0  0  0  0  0  0  0  0  0  0  0
    0.6903   -5.8648    3.0022 H   0  0  0  0  0  0  0  0  0  0  0  0
    2.2932   -5.4517    5.4398 H   0  0  0  0  0  0  0  0  0  0  0  0
    0.7620   -3.4004    3.8060 H   0  0  0  0  0  0  0  0  0  0  0  0
    0.8914   -4.0952    6.7431 H   0  0  0  0  0  0  0  0  0  0  0  0
   -0.0777   -4.9092    5.5206 H   0  0  0  0  0  0  0  0  0  0  0  0
   -0.4836   -3.3045    5.9900 H   0  0  0  0  0  0  0  0  0  0  0  0
    3.3015   -3.2438    6.2235 H   0  0  0  0  0  0  0  0  0  0  0  0
    2.4514   -2.1580    7.1513 H   0  0  0  0  0  0  0  0  0  0  0  0
    3.7520   -1.5471    6.2053 H   0  0  0  0  0  0  0  0  0  0  0  0
    2.7756   -6.2597   -0.2838 H   0  0  0  0  0  0  0  0  0  0  0  0
    1.9635   -4.7138   -0.5168 H   0  0  0  0  0  0  0  0  0  0  0  0
    1.3223   -5.8733    0.6261 H   0  0  0  0  0  0  0  0  0  0  0  0
    4.1234   -4.6022   -1.1488 H   0  0  0  0  0  0  0  0  0  0  0  0
    6.3317   -1.0104   -0.5089 H   0  0  0  0  0  0  0  0  0  0  0  0
    5.5792   -0.9262    1.8182 H   0  0  0  0  0  0  0  0  0  0  0  0
    0.8201    2.6825    4.6101 H   0  0  0  0  0  0  0  0  0  0  0  0
   -0.4281    1.6215    7.1758 H   0  0  0  0  0  0  0  0  0  0  0  0
    2.0684    3.3064    6.7576 H   0  0  0  0  0  0  0  0  0  0  0  0
    1.8673    1.8071    7.6747 H   0  0  0  0  0  0  0  0  0  0  0  0
    1.1856    3.2455    8.2849 H   0  0  0  0  0  0  0  0  0  0  0  0
  1  2  1  0
  1 40  1  0
  1 41  1  0
  1 42  1  0
  2 38  1  0
  2  3  1  0
  2 43  1  6
  3  4  1  0
  3 44  1  0
  3 45  1  0
  4  5  1  0
  4 46  1  0
  4 47  1  0
  5 37  1  0
  5  6  1  6
  5  7  1  0
  6 48  1  0
  6 49  1  0
  6 50  1  0
  7  8  1  0
  7 51  1  0
  7 52  1  0
  8  9  1  0
  8 53  1  0
  8 54  1  0
  9 26  1  0
  9 10  1  1
  9 11  1  0
 10 55  1  0
 10 56  1  0
 10 57  1  0
 11 12  1  0
 11 37  1  0
 11 58  1  6
 12 13  1  0
 12 14  1  0
 12 59  1  6
 13 60  1  0
 14 15  1  0
 14 61  1  0
 14 62  1  0
 15 26  1  0
 15 16  1  6
 15 17  1  0
 16 63  1  0
 16 64  1  0
 16 65  1  0
 17 36  1  0
 17 18  2  3
 18 19  1  0
 18 66  1  0
 19 20  2  3
 19 67  1  0
 20 23  1  0
 20 21  1  0
 21 22  2  0
 21 28  1  0
 22 23  1  0
 22 68  1  0
 23 24  1  0
 23 69  1  1
 24 25  1  0
 24 26  1  0
 24 70  1  6
 25 71  1  0
 25 72  1  0
 25 73  1  0
 26 27  1  1
 27 74  1  0
 27 75  1  0
 27 76  1  0
 28 29  1  0
 28 30  1  0
 29 77  1  0
 29 78  1  0
 29 79  1  0
 30 36  2  0
 30 31  1  0
 31 32  2  0
 31 80  1  0
 32 33  1  0
 32 34  1  0
 34 35  2  0
 34 81  1  0
 35 36  1  0
 35 82  1  0
 37 38  1  0
 37 83  1  6
 38 39  1  0
 38 84  1  1
 39 85  1  0
 39 86  1  0
 39 87  1  0
M  END
>  <i_m_ct_stereo_status>  (373) 
1

>  <s_m_source_file>  (373) 
/var/tmp/pbs.5076255.sched01/tmpxe1g82q3/12669a6jj4p.sdf

>  <i_m_source_file_index>  (373) 
18

>  <i_lp_mmshare_version>  (373) 
48012

>  <i_f3d_flags>  (373) 
0

>  <s_epik_input>  (373) 
W0NIMl0xW0NIMl1bQ0BASF0oW0NIM10pW0NASF0oW0NIM10pW0NASF0oW0NAXTEyW0NIM10pW0NAQEhdM1tDQEBdKFtDSDNdKShbQ0gyXVtDSDJdMilbQ0BdNChbQ0gzXSlbQ0BAXShbQ0gzXSkoW0NIMl1bQ0BASF0zW09IXSkvQz01YzZjKFtjSF1jKENsKVtjSF1bY0hdNilOKFtDSDNdKUM9Ny9DKD1bQ0hdXFtDSF01KVtDQEhdKFtDSF03KVtDQEhdNFtDSDNd

>  <s_epik_cmdline>  (373) 
J2VwaWtfcHl0aG9uJywgJy1waHQnLCAnMi4wJywgJy1waCcsICc3LjAnLCAnLXRuJywgJzgnLCAnLW1hJywgJzIwMCcsICctaW1hZScsICc8aW5maWxlLm1hZT4nLCAnLW9tYWUnLCAnPG91dGZpbGUubWFlPic=

>  <r_lp_tautomer_probability>  (373) 
1

>  <r_epik_Ionization_Penalty>  (373) 
1.03483e-06

>  <r_epik_Ionization_Penalty_Charging>  (373) 
3.66525e-08

>  <r_epik_Ionization_Penalty_Neutral>  (373) 
9.98174e-07

>  <r_epik_State_Penalty>  (373) 
-0

>  <r_epik_Charging_Adjusted_Penalty>  (373) 
3.66525e-08

>  <i_epik_Tot_Q>  (373) 
0

>  <i_epik_Tot_abs_Q>  (373) 
0

>  <s_epik_Chemistry_Notes>  (373) 
This compound has an imine and may undergo hydrolysis.

>  <s_lp_Force_Field>  (373) 
OPLS3e

>  <r_lp_Energy>  (373) 
241.567

>  <b_lp_Chiralities_Consistent>  (373) 
1

>  <s_lp_Variant>  (373) 
106:0-3

>  <s_i_glide_gridfile>  (373) 
pfpi4k_grid

>  <i_i_glide_lignum>  (373) 
18

>  <i_i_glide_rotatable_bonds>  (373) 
1

>  <r_i_docking_score>  (373) 
-1.92054

>  <r_i_glide_ligand_efficiency>  (373) 
-0.0492447

>  <r_i_glide_ligand_efficiency_sa>  (373) 
-0.166999

>  <r_i_glide_ligand_efficiency_ln>  (373) 
-0.411819

>  <r_i_glide_gscore>  (373) 
-1.92054

>  <r_i_glide_lipo>  (373) 
-0.399443

>  <r_i_glide_hbond>  (373) 
0

>  <r_i_glide_metal>  (373) 
-0

>  <r_i_glide_rewards>  (373) 
0

>  <r_i_glide_evdw>  (373) 
-29.1055

>  <r_i_glide_ecoul>  (373) 
-0.423518

>  <r_i_glide_erotb>  (373) 
0

>  <r_i_glide_esite>  (373) 
-0.00230016

>  <r_i_glide_emodel>  (373) 
-32.5821

>  <r_i_glide_energy>  (373) 
-29.529

>  <r_i_glide_einternal>  (373) 
0.328827

>  <r_i_glide_intrahb_reward>  (373) 
-0

>  <i_i_glide_confnum>  (373) 
2

>  <i_i_glide_posenum>  (373) 
8

>  <r_i_glide_eff_state_penalty>  (373) 
0

>  <ligand_id>  (373) 
106

>  <original_smiles>  (373) 
CC1CCC2(C)CCC3(C)C(C(O)CC4(C)C5=CC=C6C(=CC6C(C)C43C)N(C)c3cc(Cl)ccc35)C2C1C

>  <smiles>  (373) 
[H]OC1([H])C([H])([H])C2(C([H])([H])[H])C3=C([H])C([H])=C4C(=C([H])C4([H])C([H])(C([H])([H])[H])C2(C([H])([H])[H])C2(C([H])([H])[H])C([H])([H])C([H])([H])C4(C([H])([H])[H])C([H])([H])C([H])([H])C([H])(C([H])([H])[H])C([H])(C([H])([H])[H])C4([H])C12[H])N(C([H])([H])[H])c1c([H])c(Cl)c([H])c([H])c13

$$$$
106:2:2
     RDKit          3D

 87 93  0  0  1  0  0  0  0  0999 V2000
    0.9149  -11.4175    4.9014 C   0  0  0  0  0  0  0  0  0  0  0  0
    0.7215  -10.0527    4.2188 C   0  0  2  0  0  0  0  0  0  0  0  0
    1.5376  -10.0436    2.9364 C   0  0  0  0  0  0  0  0  0  0  0  0
    1.1598   -8.8361    2.0954 C   0  0  0  0  0  0  0  0  0  0  0  0
    1.3106   -7.4618    2.7972 C   0  0  2  0  0  0  0  0  0  0  0  0
    0.4951   -6.5236    1.8664 C   0  0  0  0  0  0  0  0  0  0  0  0
    2.7914   -7.0134    2.8042 C   0  0  0  0  0  0  0  0  0  0  0  0
    3.0782   -5.6690    3.5346 C   0  0  0  0  0  0  0  0  0  0  0  0
    2.5755   -5.5554    5.0319 C   0  0  2  0  0  0  0  0  0  0  0  0
    3.4019   -6.6110    5.8364 C   0  0  0  0  0  0  0  0  0  0  0  0
    1.0758   -6.0724    4.9495 C   0  0  2  0  0  0  0  0  0  0  0  0
    0.0924   -5.5152    5.9937 C   0  0  1  0  0  0  0  0  0  0  0  0
    0.3328   -5.9563    7.3085 O   0  0  0  0  0  0  0  0  0  0  0  0
    0.0606   -3.9680    5.9817 C   0  0  0  0  0  0  0  0  0  0  0  0
    1.3081   -3.2018    5.4230 C   0  0  1  0  0  0  0  0  0  0  0  0
    1.1175   -2.9353    3.8871 C   0  0  0  0  0  0  0  0  0  0  0  0
    1.1879   -1.7770    6.0502 C   0  0  0  0  0  0  0  0  0  0  0  0
    1.6764   -1.4727    7.2721 C   0  0  0  0  0  0  0  0  0  0  0  0
    2.6473   -0.4442    7.1937 C   0  0  0  0  0  0  0  0  0  0  0  0
    3.5858   -0.6927    6.2572 C   0  0  0  0  0  0  0  0  0  0  0  0
    3.6631   -0.2415    5.0069 C   0  0  0  0  0  0  0  0  0  0  0  0
    4.8107   -0.8969    4.7392 C   0  0  0  0  0  0  0  0  0  0  0  0
    4.5117   -1.8473    5.9131 C   0  0  2  0  0  0  0  0  0  0  0  0
    4.0464   -3.2351    5.2682 C   0  0  1  0  0  0  0  0  0  0  0  0
    5.3619   -4.0551    5.3802 C   0  0  0  0  0  0  0  0  0  0  0  0
    2.7038   -4.0372    5.7172 C   0  0  2  0  0  0  0  0  0  0  0  0
    2.9040   -4.1984    7.2687 C   0  0  0  0  0  0  0  0  0  0  0  0
    2.7650    0.4972    4.2694 N   0  0  0  0  0  0  0  0  0  0  0  0
    3.1818    1.0773    2.9881 C   0  0  0  0  0  0  0  0  0  0  0  0
    1.3452    0.4234    4.4650 C   0  0  0  0  0  0  0  0  0  0  0  0
    0.5453    1.4292    3.8504 C   0  0  0  0  0  0  0  0  0  0  0  0
   -0.8551    1.4737    4.0034 C   0  0  0  0  0  0  0  0  0  0  0  0
   -1.7780    2.7410    3.2894 Cl  0  0  0  0  0  0  0  0  0  0  0  0
   -1.5035    0.5007    4.7728 C   0  0  0  0  0  0  0  0  0  0  0  0
   -0.7513   -0.5144    5.3714 C   0  0  0  0  0  0  0  0  0  0  0  0
    0.6565   -0.5963    5.2445 C   0  0  0  0  0  0  0  0  0  0  0  0
    0.7666   -7.4739    4.2783 C   0  0  2  0  0  0  0  0  0  0  0  0
    1.1167   -8.8064    5.0567 C   0  0  1  0  0  0  0  0  0  0  0  0
    0.5200   -8.8779    6.4754 C   0  0  0  0  0  0  0  0  0  0  0  0
    1.9034  -11.5075    5.3545 H   0  0  0  0  0  0  0  0  0  0  0  0
    0.7808  -12.2476    4.2061 H   0  0  0  0  0  0  0  0  0  0  0  0
    0.1654  -11.5638    5.6771 H   0  0  0  0  0  0  0  0  0  0  0  0
   -0.3334   -9.9840    3.9530 H   0  0  0  0  0  0  0  0  0  0  0  0
    2.6077  -10.0559    3.1437 H   0  0  0  0  0  0  0  0  0  0  0  0
    1.3174  -10.9531    2.3829 H   0  0  0  0  0  0  0  0  0  0  0  0
    1.7593   -8.8548    1.1861 H   0  0  0  0  0  0  0  0  0  0  0  0
    0.1196   -8.9717    1.7880 H   0  0  0  0  0  0  0  0  0  0  0  0
    0.6762   -5.4740    2.0535 H   0  0  0  0  0  0  0  0  0  0  0  0
   -0.5749   -6.7064    1.9645 H   0  0  0  0  0  0  0  0  0  0  0  0
    0.7504   -6.6897    0.8176 H   0  0  0  0  0  0  0  0  0  0  0  0
    3.4008   -7.8104    3.2256 H   0  0  0  0  0  0  0  0  0  0  0  0
    3.1476   -6.9279    1.7766 H   0  0  0  0  0  0  0  0  0  0  0  0
    4.1446   -5.5362    3.4426 H   0  0  0  0  0  0  0  0  0  0  0  0
    2.6995   -4.8703    2.9118 H   0  0  0  0  0  0  0  0  0  0  0  0
    2.8625   -6.9549    6.7155 H   0  0  0  0  0  0  0  0  0  0  0  0
    4.3662   -6.2590    6.1848 H   0  0  0  0  0  0  0  0  0  0  0  0
    3.6704   -7.4858    5.2660 H   0  0  0  0  0  0  0  0  0  0  0  0
    0.6602   -5.4883    4.1555 H   0  0  0  0  0  0  0  0  0  0  0  0
   -0.9125   -5.8679    5.7474 H   0  0  0  0  0  0  0  0  0  0  0  0
    0.4791   -6.8912    7.2796 H   0  0  0  0  0  0  0  0  0  0  0  0
   -0.7945   -3.6473    5.3940 H   0  0  0  0  0  0  0  0  0  0  0  0
   -0.1835   -3.6282    6.9913 H   0  0  0  0  0  0  0  0  0  0  0  0
    1.0541   -3.7861    3.2431 H   0  0  0  0  0  0  0  0  0  0  0  0
    1.9193   -2.3118    3.4900 H   0  0  0  0  0  0  0  0  0  0  0  0
    0.1784   -2.4306    3.6566 H   0  0  0  0  0  0  0  0  0  0  0  0
    1.8974   -2.1753    8.0434 H   0  0  0  0  0  0  0  0  0  0  0  0
    2.1939    0.5324    7.1411 H   0  0  0  0  0  0  0  0  0  0  0  0
    5.4750   -0.9675    3.8833 H   0  0  0  0  0  0  0  0  0  0  0  0
    5.3115   -1.9498    6.6532 H   0  0  0  0  0  0  0  0  0  0  0  0
    3.9097   -3.0691    4.2065 H   0  0  0  0  0  0  0  0  0  0  0  0
    5.5924   -4.2627    6.4238 H   0  0  0  0  0  0  0  0  0  0  0  0
    6.1909   -3.4744    4.9773 H   0  0  0  0  0  0  0  0  0  0  0  0
    5.4059   -4.9962    4.8475 H   0  0  0  0  0  0  0  0  0  0  0  0
    3.4727   -3.3756    7.6926 H   0  0  0  0  0  0  0  0  0  0  0  0
    3.4929   -5.0339    7.6208 H   0  0  0  0  0  0  0  0  0  0  0  0
    1.9700   -4.2618    7.8168 H   0  0  0  0  0  0  0  0  0  0  0  0
    3.3174    2.1548    3.0952 H   0  0  0  0  0  0  0  0  0  0  0  0
    2.4627    0.9012    2.1833 H   0  0  0  0  0  0  0  0  0  0  0  0
    4.1277    0.6561    2.6466 H   0  0  0  0  0  0  0  0  0  0  0  0
    0.9823    2.2202    3.2601 H   0  0  0  0  0  0  0  0  0  0  0  0
   -2.5751    0.5397    4.9031 H   0  0  0  0  0  0  0  0  0  0  0  0
   -1.2680   -1.2449    5.9754 H   0  0  0  0  0  0  0  0  0  0  0  0
   -0.3167   -7.5147    4.1753 H   0  0  0  0  0  0  0  0  0  0  0  0
    2.1898   -8.9013    5.1836 H   0  0  0  0  0  0  0  0  0  0  0  0
   -0.5351   -8.6074    6.4918 H   0  0  0  0  0  0  0  0  0  0  0  0
    1.0861   -8.2523    7.1566 H   0  0  0  0  0  0  0  0  0  0  0  0
    0.6061   -9.8648    6.9235 H   0  0  0  0  0  0  0  0  0  0  0  0
  1  2  1  0
  1 40  1  0
  1 41  1  0
  1 42  1  0
  2 38  1  0
  2  3  1  0
  2 43  1  6
  3  4  1  0
  3 44  1  0
  3 45  1  0
  4  5  1  0
  4 46  1  0
  4 47  1  0
  5 37  1  0
  5  6  1  6
  5  7  1  0
  6 48  1  0
  6 49  1  0
  6 50  1  0
  7  8  1  0
  7 51  1  0
  7 52  1  0
  8  9  1  0
  8 53  1  0
  8 54  1  0
  9 26  1  0
  9 10  1  1
  9 11  1  0
 10 55  1  0
 10 56  1  0
 10 57  1  0
 11 12  1  0
 11 37  1  0
 11 58  1  6
 12 13  1  0
 12 14  1  0
 12 59  1  6
 13 60  1  0
 14 15  1  0
 14 61  1  0
 14 62  1  0
 15 26  1  0
 15 16  1  6
 15 17  1  0
 16 63  1  0
 16 64  1  0
 16 65  1  0
 17 36  1  0
 17 18  2  3
 18 19  1  0
 18 66  1  0
 19 20  2  3
 19 67  1  0
 20 23  1  0
 20 21  1  0
 21 22  2  0
 21 28  1  0
 22 23  1  0
 22 68  1  0
 23 24  1  0
 23 69  1  1
 24 25  1  0
 24 26  1  0
 24 70  1  6
 25 71  1  0
 25 72  1  0
 25 73  1  0
 26 27  1  1
 27 74  1  0
 27 75  1  0
 27 76  1  0
 28 29  1  0
 28 30  1  0
 29 77  1  0
 29 78  1  0
 29 79  1  0
 30 36  2  0
 30 31  1  0
 31 32  2  0
 31 80  1  0
 32 33  1  0
 32 34  1  0
 34 35  2  0
 34 81  1  0
 35 36  1  0
 35 82  1  0
 37 38  1  0
 37 83  1  6
 38 39  1  0
 38 84  1  1
 39 85  1  0
 39 86  1  0
 39 87  1  0
M  END
>  <i_m_ct_stereo_status>  (374) 
1

>  <s_m_source_file>  (374) 
/var/tmp/pbs.5076255.sched01/tmpxe1g82q3/12669a6jj4p.sdf

>  <i_m_source_file_index>  (374) 
18

>  <i_lp_mmshare_version>  (374) 
48012

>  <i_f3d_flags>  (374) 
0

>  <s_epik_input>  (374) 
W0NIMl0xW0NIMl1bQ0BASF0oW0NIM10pW0NASF0oW0NIM10pW0NASF0oW0NAXTEyW0NIM10pW0NAQEhdM1tDQEBdKFtDSDNdKShbQ0gyXVtDSDJdMilbQ0BdNChbQ0gzXSlbQ0BAXShbQ0gzXSkoW0NIMl1bQ0BASF0zW09IXSkvQz01YzZjKFtjSF1jKENsKVtjSF1bY0hdNilOKFtDSDNdKUM9Ny9DKD1bQ0hdXFtDSF01KVtDQEhdKFtDSF03KVtDQEhdNFtDSDNd

>  <s_epik_cmdline>  (374) 
J2VwaWtfcHl0aG9uJywgJy1waHQnLCAnMi4wJywgJy1waCcsICc3LjAnLCAnLXRuJywgJzgnLCAnLW1hJywgJzIwMCcsICctaW1hZScsICc8aW5maWxlLm1hZT4nLCAnLW9tYWUnLCAnPG91dGZpbGUubWFlPic=

>  <r_lp_tautomer_probability>  (374) 
1

>  <r_epik_Ionization_Penalty>  (374) 
1.03483e-06

>  <r_epik_Ionization_Penalty_Charging>  (374) 
3.66525e-08

>  <r_epik_Ionization_Penalty_Neutral>  (374) 
9.98174e-07

>  <r_epik_State_Penalty>  (374) 
-0

>  <r_epik_Charging_Adjusted_Penalty>  (374) 
3.66525e-08

>  <i_epik_Tot_Q>  (374) 
0

>  <i_epik_Tot_abs_Q>  (374) 
0

>  <s_epik_Chemistry_Notes>  (374) 
This compound has an imine and may undergo hydrolysis.

>  <s_lp_Force_Field>  (374) 
OPLS3e

>  <r_lp_Energy>  (374) 
241.567

>  <b_lp_Chiralities_Consistent>  (374) 
1

>  <s_lp_Variant>  (374) 
106:0-3

>  <s_i_glide_gridfile>  (374) 
pfpi4k_grid

>  <i_i_glide_lignum>  (374) 
18

>  <i_i_glide_rotatable_bonds>  (374) 
1

>  <r_i_docking_score>  (374) 
-1.65199

>  <r_i_glide_ligand_efficiency>  (374) 
-0.0423587

>  <r_i_glide_ligand_efficiency_sa>  (374) 
-0.143647

>  <r_i_glide_ligand_efficiency_ln>  (374) 
-0.354234

>  <r_i_glide_gscore>  (374) 
-1.65199

>  <r_i_glide_lipo>  (374) 
-0.178941

>  <r_i_glide_hbond>  (374) 
0

>  <r_i_glide_metal>  (374) 
-0

>  <r_i_glide_rewards>  (374) 
0

>  <r_i_glide_evdw>  (374) 
-27.2818

>  <r_i_glide_ecoul>  (374) 
-0.724452

>  <r_i_glide_erotb>  (374) 
0

>  <r_i_glide_esite>  (374) 
-0.0002938

>  <r_i_glide_emodel>  (374) 
-30.4861

>  <r_i_glide_energy>  (374) 
-28.0062

>  <r_i_glide_einternal>  (374) 
0.530935

>  <r_i_glide_intrahb_reward>  (374) 
-0

>  <i_i_glide_confnum>  (374) 
1

>  <i_i_glide_posenum>  (374) 
9

>  <r_i_glide_eff_state_penalty>  (374) 
0

>  <ligand_id>  (374) 
106

>  <original_smiles>  (374) 
CC1CCC2(C)CCC3(C)C(C(O)CC4(C)C5=CC=C6C(=CC6C(C)C43C)N(C)c3cc(Cl)ccc35)C2C1C

>  <smiles>  (374) 
[H]OC1([H])C([H])([H])C2(C([H])([H])[H])C3=C([H])C([H])=C4C(=C([H])C4([H])C([H])(C([H])([H])[H])C2(C([H])([H])[H])C2(C([H])([H])[H])C([H])([H])C([H])([H])C4(C([H])([H])[H])C([H])([H])C([H])([H])C([H])(C([H])([H])[H])C([H])(C([H])([H])[H])C4([H])C12[H])N(C([H])([H])[H])c1c([H])c(Cl)c([H])c([H])c13

$$$$
107:0:0
     RDKit          3D

 18 20  0  0  1  0  0  0  0  0999 V2000
   -1.4205   -4.2642    8.2109 C   0  0  0  0  0  0  0  0  0  0  0  0
   -1.1270   -4.8283    6.9545 C   0  0  0  0  0  0  0  0  0  0  0  0
    0.1139   -4.5412    6.3398 C   0  0  0  0  0  0  0  0  0  0  0  0
    0.5008   -5.0939    5.0224 C   0  0  0  0  0  0  0  0  0  0  0  0
   -0.1521   -6.1154    4.4524 N   0  0  0  0  0  0  0  0  0  0  0  0
    0.4707   -6.3351    3.2746 N   0  0  0  0  0  0  0  0  0  0  0  0
    0.0709   -7.2405    2.3785 N   0  0  0  0  0  0  0  0  0  0  0  0
    0.9237   -7.0771    1.4011 N   0  0  0  0  0  0  0  0  0  0  0  0
    1.8471   -6.0439    1.6613 N   0  0  0  0  0  0  0  0  0  0  0  0
    1.5232   -5.6034    2.8454 C   0  0  0  0  0  0  0  0  0  0  0  0
    1.8696   -4.4081    4.0796 S   0  0  0  0  0  0  0  0  0  0  0  0
    0.9817   -3.6766    7.0428 C   0  0  0  0  0  0  0  0  0  0  0  0
    0.5973   -3.1577    8.2905 C   0  0  0  0  0  0  0  0  0  0  0  0
   -0.5861   -3.4306    8.8643 N   0  0  0  0  0  0  0  0  0  0  0  0
   -2.3616   -4.4687    8.7005 H   0  0  0  0  0  0  0  0  0  0  0  0
   -1.8583   -5.4642    6.4782 H   0  0  0  0  0  0  0  0  0  0  0  0
    1.9442   -3.4000    6.6476 H   0  0  0  0  0  0  0  0  0  0  0  0
    1.2517   -2.5023    8.8397 H   0  0  0  0  0  0  0  0  0  0  0  0
  1 14  2  0
  1  2  1  0
  1 15  1  0
  2  3  2  0
  2 16  1  0
  3  4  1  0
  3 12  1  0
  4 11  1  0
  4  5  2  0
  5  6  1  0
  6 10  1  0
  6  7  1  0
  7  8  2  0
  8  9  1  0
  9 10  2  0
 10 11  1  0
 12 13  2  0
 12 17  1  0
 13 14  1  0
 13 18  1  0
M  END
>  <i_m_ct_stereo_status>  (375) 
1

>  <s_m_source_file>  (375) 
/var/tmp/pbs.5076255.sched01/tmpxe1g82q3/12669a6jj4p.sdf

>  <i_m_source_file_index>  (375) 
20

>  <i_lp_mmshare_version>  (375) 
48012

>  <i_f3d_flags>  (375) 
0

>  <s_epik_input>  (375) 
W2NIXTFbY0hdbltjSF1bY0hdYzEtYyhuMilzYyhuMjMpbm5uMw==

>  <s_epik_cmdline>  (375) 
J2VwaWtfcHl0aG9uJywgJy1waHQnLCAnMi4wJywgJy1waCcsICc3LjAnLCAnLXRuJywgJzgnLCAnLW1hJywgJzIwMCcsICctaW1hZScsICc8aW5maWxlLm1hZT4nLCAnLW9tYWUnLCAnPG91dGZpbGUubWFlPic=

>  <r_lp_tautomer_probability>  (375) 
1

>  <r_epik_Ionization_Penalty>  (375) 
0.000130086

>  <r_epik_Ionization_Penalty_Charging>  (375) 
0

>  <r_epik_Ionization_Penalty_Neutral>  (375) 
0.000130086

>  <r_epik_State_Penalty>  (375) 
-0

>  <r_epik_Charging_Adjusted_Penalty>  (375) 
0

>  <i_epik_Tot_Q>  (375) 
0

>  <i_epik_Tot_abs_Q>  (375) 
0

>  <s_lp_Force_Field>  (375) 
OPLS3e

>  <r_lp_Energy>  (375) 
15.3106

>  <b_lp_Chiralities_Consistent>  (375) 
1

>  <s_lp_Variant>  (375) 
107:0-1

>  <s_i_glide_gridfile>  (375) 
pfpi4k_grid

>  <i_i_glide_lignum>  (375) 
20

>  <i_i_glide_rotatable_bonds>  (375) 
1

>  <r_i_docking_score>  (375) 
-3.29316

>  <r_i_glide_ligand_efficiency>  (375) 
-0.235226

>  <r_i_glide_ligand_efficiency_sa>  (375) 
-0.566927

>  <r_i_glide_ligand_efficiency_ln>  (375) 
-0.904948

>  <r_i_glide_gscore>  (375) 
-3.29316

>  <r_i_glide_lipo>  (375) 
-0.0305417

>  <r_i_glide_hbond>  (375) 
-0.148539

>  <r_i_glide_metal>  (375) 
-0

>  <r_i_glide_rewards>  (375) 
-2.01673

>  <r_i_glide_evdw>  (375) 
-14.988

>  <r_i_glide_ecoul>  (375) 
-3.17686

>  <r_i_glide_erotb>  (375) 
0.394371

>  <r_i_glide_esite>  (375) 
-0.265791

>  <r_i_glide_emodel>  (375) 
-22.2951

>  <r_i_glide_energy>  (375) 
-18.1648

>  <r_i_glide_einternal>  (375) 
0.110193

>  <r_i_glide_intrahb_reward>  (375) 
-0

>  <i_i_glide_confnum>  (375) 
2

>  <i_i_glide_posenum>  (375) 
35

>  <r_i_glide_eff_state_penalty>  (375) 
0

>  <ligand_id>  (375) 
107

>  <original_smiles>  (375) 
c1cc(-c2nn3nnnc3s2)ccn1

>  <smiles>  (375) 
[H]c1nc([H])c([H])c(-c2nn3nnnc3s2)c1[H]

$$$$
107:0:1
     RDKit          3D

 18 20  0  0  1  0  0  0  0  0999 V2000
    0.1188   -7.3093    1.7997 C   0  0  0  0  0  0  0  0  0  0  0  0
   -0.1676   -7.0672    3.1564 C   0  0  0  0  0  0  0  0  0  0  0  0
    0.5847   -6.1083    3.8624 C   0  0  0  0  0  0  0  0  0  0  0  0
    0.3496   -5.8827    5.3034 C   0  0  0  0  0  0  0  0  0  0  0  0
   -0.0763   -4.7276    5.7986 N   0  0  0  0  0  0  0  0  0  0  0  0
   -0.1857   -4.9172    7.1228 N   0  0  0  0  0  0  0  0  0  0  0  0
   -0.6161   -3.9795    7.9491 N   0  0  0  0  0  0  0  0  0  0  0  0
   -0.5695   -4.5715    9.1051 N   0  0  0  0  0  0  0  0  0  0  0  0
   -0.1082   -5.9063    9.0058 N   0  0  0  0  0  0  0  0  0  0  0  0
    0.1235   -6.0946    7.7338 C   0  0  0  0  0  0  0  0  0  0  0  0
    0.6258   -7.2166    6.4783 S   0  0  0  0  0  0  0  0  0  0  0  0
    1.5945   -5.4211    3.1537 C   0  0  0  0  0  0  0  0  0  0  0  0
    1.8117   -5.7407    1.7946 C   0  0  0  0  0  0  0  0  0  0  0  0
    1.0541   -6.6214    1.1152 N   0  0  0  0  0  0  0  0  0  0  0  0
   -0.4395   -8.0394    1.2400 H   0  0  0  0  0  0  0  0  0  0  0  0
   -0.9284   -7.6542    3.6497 H   0  0  0  0  0  0  0  0  0  0  0  0
    2.2272   -4.6962    3.6426 H   0  0  0  0  0  0  0  0  0  0  0  0
    2.5763   -5.2400    1.2203 H   0  0  0  0  0  0  0  0  0  0  0  0
  1 14  2  0
  1  2  1  0
  1 15  1  0
  2  3  2  0
  2 16  1  0
  3  4  1  0
  3 12  1  0
  4 11  1  0
  4  5  2  0
  5  6  1  0
  6 10  1  0
  6  7  1  0
  7  8  2  0
  8  9  1  0
  9 10  2  0
 10 11  1  0
 12 13  2  0
 12 17  1  0
 13 14  1  0
 13 18  1  0
M  END
>  <i_m_ct_stereo_status>  (376) 
1

>  <s_m_source_file>  (376) 
/var/tmp/pbs.5076255.sched01/tmpxe1g82q3/12669a6jj4p.sdf

>  <i_m_source_file_index>  (376) 
20

>  <i_lp_mmshare_version>  (376) 
48012

>  <i_f3d_flags>  (376) 
0

>  <s_epik_input>  (376) 
W2NIXTFbY0hdbltjSF1bY0hdYzEtYyhuMilzYyhuMjMpbm5uMw==

>  <s_epik_cmdline>  (376) 
J2VwaWtfcHl0aG9uJywgJy1waHQnLCAnMi4wJywgJy1waCcsICc3LjAnLCAnLXRuJywgJzgnLCAnLW1hJywgJzIwMCcsICctaW1hZScsICc8aW5maWxlLm1hZT4nLCAnLW9tYWUnLCAnPG91dGZpbGUubWFlPic=

>  <r_lp_tautomer_probability>  (376) 
1

>  <r_epik_Ionization_Penalty>  (376) 
0.000130086

>  <r_epik_Ionization_Penalty_Charging>  (376) 
0

>  <r_epik_Ionization_Penalty_Neutral>  (376) 
0.000130086

>  <r_epik_State_Penalty>  (376) 
-0

>  <r_epik_Charging_Adjusted_Penalty>  (376) 
0

>  <i_epik_Tot_Q>  (376) 
0

>  <i_epik_Tot_abs_Q>  (376) 
0

>  <s_lp_Force_Field>  (376) 
OPLS3e

>  <r_lp_Energy>  (376) 
15.3106

>  <b_lp_Chiralities_Consistent>  (376) 
1

>  <s_lp_Variant>  (376) 
107:0-1

>  <s_i_glide_gridfile>  (376) 
pfpi4k_grid

>  <i_i_glide_lignum>  (376) 
20

>  <i_i_glide_rotatable_bonds>  (376) 
1

>  <r_i_docking_score>  (376) 
-3.13841

>  <r_i_glide_ligand_efficiency>  (376) 
-0.224172

>  <r_i_glide_ligand_efficiency_sa>  (376) 
-0.540288

>  <r_i_glide_ligand_efficiency_ln>  (376) 
-0.862425

>  <r_i_glide_gscore>  (376) 
-3.13841

>  <r_i_glide_lipo>  (376) 
0

>  <r_i_glide_hbond>  (376) 
-0.0505178

>  <r_i_glide_metal>  (376) 
-0

>  <r_i_glide_rewards>  (376) 
-2.02294

>  <r_i_glide_evdw>  (376) 
-15.4614

>  <r_i_glide_ecoul>  (376) 
-3.99765

>  <r_i_glide_erotb>  (376) 
0.394371

>  <r_i_glide_esite>  (376) 
-0.0866067

>  <r_i_glide_emodel>  (376) 
-22.0973

>  <r_i_glide_energy>  (376) 
-19.4591

>  <r_i_glide_einternal>  (376) 
2.43864

>  <r_i_glide_intrahb_reward>  (376) 
-0

>  <i_i_glide_confnum>  (376) 
4

>  <i_i_glide_posenum>  (376) 
1

>  <r_i_glide_eff_state_penalty>  (376) 
0

>  <ligand_id>  (376) 
107

>  <original_smiles>  (376) 
c1cc(-c2nn3nnnc3s2)ccn1

>  <smiles>  (376) 
[H]c1nc([H])c([H])c(-c2nn3nnnc3s2)c1[H]

$$$$
107:0:2
     RDKit          3D

 18 20  0  0  1  0  0  0  0  0999 V2000
   -1.6895    2.9325    9.7777 C   0  0  0  0  0  0  0  0  0  0  0  0
   -1.1776    2.4727    8.5451 C   0  0  0  0  0  0  0  0  0  0  0  0
   -2.0212    2.4682    7.4104 C   0  0  0  0  0  0  0  0  0  0  0  0
   -1.5500    2.0542    6.0721 C   0  0  0  0  0  0  0  0  0  0  0  0
   -0.6135    1.1144    5.9097 N   0  0  0  0  0  0  0  0  0  0  0  0
   -0.4403    0.9939    4.5752 N   0  0  0  0  0  0  0  0  0  0  0  0
    0.4222    0.1447    4.0087 N   0  0  0  0  0  0  0  0  0  0  0  0
    0.2464    0.3664    2.7328 N   0  0  0  0  0  0  0  0  0  0  0  0
   -0.7416    1.3409    2.4875 N   0  0  0  0  0  0  0  0  0  0  0  0
   -1.1328    1.7225    3.6687 C   0  0  0  0  0  0  0  0  0  0  0  0
   -2.1849    2.8026    4.5645 S   0  0  0  0  0  0  0  0  0  0  0  0
   -3.3446    2.9135    7.6009 C   0  0  0  0  0  0  0  0  0  0  0  0
   -3.7648    3.3446    8.8723 C   0  0  0  0  0  0  0  0  0  0  0  0
   -2.9569    3.3545    9.9417 N   0  0  0  0  0  0  0  0  0  0  0  0
   -1.0668    2.9664   10.6594 H   0  0  0  0  0  0  0  0  0  0  0  0
   -0.1412    2.1764    8.4734 H   0  0  0  0  0  0  0  0  0  0  0  0
   -4.0431    2.9341    6.7819 H   0  0  0  0  0  0  0  0  0  0  0  0
   -4.7770    3.6727    9.0387 H   0  0  0  0  0  0  0  0  0  0  0  0
  1 14  2  0
  1  2  1  0
  1 15  1  0
  2  3  2  0
  2 16  1  0
  3  4  1  0
  3 12  1  0
  4 11  1  0
  4  5  2  0
  5  6  1  0
  6 10  1  0
  6  7  1  0
  7  8  2  0
  8  9  1  0
  9 10  2  0
 10 11  1  0
 12 13  2  0
 12 17  1  0
 13 14  1  0
 13 18  1  0
M  END
>  <i_m_ct_stereo_status>  (377) 
1

>  <s_m_source_file>  (377) 
/var/tmp/pbs.5076255.sched01/tmpxe1g82q3/12669a6jj4p.sdf

>  <i_m_source_file_index>  (377) 
20

>  <i_lp_mmshare_version>  (377) 
48012

>  <i_f3d_flags>  (377) 
0

>  <s_epik_input>  (377) 
W2NIXTFbY0hdbltjSF1bY0hdYzEtYyhuMilzYyhuMjMpbm5uMw==

>  <s_epik_cmdline>  (377) 
J2VwaWtfcHl0aG9uJywgJy1waHQnLCAnMi4wJywgJy1waCcsICc3LjAnLCAnLXRuJywgJzgnLCAnLW1hJywgJzIwMCcsICctaW1hZScsICc8aW5maWxlLm1hZT4nLCAnLW9tYWUnLCAnPG91dGZpbGUubWFlPic=

>  <r_lp_tautomer_probability>  (377) 
1

>  <r_epik_Ionization_Penalty>  (377) 
0.000130086

>  <r_epik_Ionization_Penalty_Charging>  (377) 
0

>  <r_epik_Ionization_Penalty_Neutral>  (377) 
0.000130086

>  <r_epik_State_Penalty>  (377) 
-0

>  <r_epik_Charging_Adjusted_Penalty>  (377) 
0

>  <i_epik_Tot_Q>  (377) 
0

>  <i_epik_Tot_abs_Q>  (377) 
0

>  <s_lp_Force_Field>  (377) 
OPLS3e

>  <r_lp_Energy>  (377) 
15.3106

>  <b_lp_Chiralities_Consistent>  (377) 
1

>  <s_lp_Variant>  (377) 
107:0-1

>  <s_i_glide_gridfile>  (377) 
pfpi4k_grid

>  <i_i_glide_lignum>  (377) 
20

>  <i_i_glide_rotatable_bonds>  (377) 
1

>  <r_i_docking_score>  (377) 
-2.6439

>  <r_i_glide_ligand_efficiency>  (377) 
-0.18885

>  <r_i_glide_ligand_efficiency_sa>  (377) 
-0.455155

>  <r_i_glide_ligand_efficiency_ln>  (377) 
-0.726534

>  <r_i_glide_gscore>  (377) 
-2.6439

>  <r_i_glide_lipo>  (377) 
-0.172778

>  <r_i_glide_hbond>  (377) 
0

>  <r_i_glide_metal>  (377) 
-0

>  <r_i_glide_rewards>  (377) 
-2.01673

>  <r_i_glide_evdw>  (377) 
-20.2281

>  <r_i_glide_ecoul>  (377) 
2.11405

>  <r_i_glide_erotb>  (377) 
0.394371

>  <r_i_glide_esite>  (377) 
-0.154462

>  <r_i_glide_emodel>  (377) 
-21.1291

>  <r_i_glide_energy>  (377) 
-18.1141

>  <r_i_glide_einternal>  (377) 
0.616258

>  <r_i_glide_intrahb_reward>  (377) 
-0

>  <i_i_glide_confnum>  (377) 
1

>  <i_i_glide_posenum>  (377) 
3

>  <r_i_glide_eff_state_penalty>  (377) 
0

>  <ligand_id>  (377) 
107

>  <original_smiles>  (377) 
c1cc(-c2nn3nnnc3s2)ccn1

>  <smiles>  (377) 
[H]c1nc([H])c([H])c(-c2nn3nnnc3s2)c1[H]

$$$$
109:0:0
     RDKit          3D

 37 40  0  0  1  0  0  0  0  0999 V2000
   -1.7995   -8.4076    2.4276 C   0  0  0  0  0  0  0  0  0  0  0  0
   -0.7293   -7.8528    3.3440 C   0  0  0  0  0  0  0  0  0  0  0  0
   -0.3877   -8.5293    4.5287 C   0  0  0  0  0  0  0  0  0  0  0  0
    0.6265   -8.0024    5.3374 C   0  0  0  0  0  0  0  0  0  0  0  0
    1.2596   -6.8129    4.9266 C   0  0  0  0  0  0  0  0  0  0  0  0
    0.8412   -6.1857    3.7304 C   0  0  0  0  0  0  0  0  0  0  0  0
    1.4959   -4.9044    3.2845 C   0  0  0  0  0  0  0  0  0  0  0  0
    1.9806   -4.8344    2.1582 O   0  0  0  0  0  0  0  0  0  0  0  0
    1.5138   -3.8764    4.1684 N   0  0  0  0  0  0  0  0  0  0  0  0
    2.2527   -2.6338    3.9032 C   0  0  0  0  0  0  0  0  0  0  0  0
    1.2607   -1.5120    3.5755 C   0  0  0  0  0  0  0  0  0  0  0  0
    0.1414   -1.5452    4.5027 N   0  0  0  0  0  0  0  0  0  0  0  0
   -0.1614   -2.5562    5.3320 C   0  0  0  0  0  0  0  0  0  0  0  0
   -1.2521   -2.3438    6.0692 N   0  0  0  0  0  0  0  0  0  0  0  0
   -1.7134   -1.1110    5.6817 N   0  0  0  0  0  0  0  0  0  0  0  0
   -0.8514   -0.6629    4.7479 C   0  0  0  0  0  0  0  0  0  0  0  0
   -1.0054    0.6499    4.1179 C   0  0  0  0  0  0  0  0  0  0  0  0
   -1.7888    1.7004    4.5311 C   0  0  0  0  0  0  0  0  0  0  0  0
   -1.6818    3.0780    3.4733 S   0  0  0  0  0  0  0  0  0  0  0  0
   -0.5204    2.1760    2.5242 C   0  0  0  0  0  0  0  0  0  0  0  0
   -0.2693    0.9589    2.9777 N   0  0  0  0  0  0  0  0  0  0  0  0
    0.6830   -3.7917    5.3866 C   0  0  0  0  0  0  0  0  0  0  0  0
   -0.1455   -6.6928    2.9521 N   0  0  0  0  0  0  0  0  0  0  0  0
   -2.2482   -9.3106    2.8405 H   0  0  0  0  0  0  0  0  0  0  0  0
   -1.3851   -8.6548    1.4484 H   0  0  0  0  0  0  0  0  0  0  0  0
   -2.5873   -7.6695    2.2977 H   0  0  0  0  0  0  0  0  0  0  0  0
   -0.8857   -9.4455    4.8093 H   0  0  0  0  0  0  0  0  0  0  0  0
    0.9137   -8.4923    6.2569 H   0  0  0  0  0  0  0  0  0  0  0  0
    2.0411   -6.3840    5.5388 H   0  0  0  0  0  0  0  0  0  0  0  0
    2.8072   -2.3648    4.8026 H   0  0  0  0  0  0  0  0  0  0  0  0
    2.9949   -2.7295    3.1092 H   0  0  0  0  0  0  0  0  0  0  0  0
    1.7701   -0.5505    3.6501 H   0  0  0  0  0  0  0  0  0  0  0  0
    0.8752   -1.6149    2.5601 H   0  0  0  0  0  0  0  0  0  0  0  0
   -2.4515    1.7244    5.3899 H   0  0  0  0  0  0  0  0  0  0  0  0
    0.0165    2.5402    1.6736 H   0  0  0  0  0  0  0  0  0  0  0  0
   -0.0110   -4.6222    5.5298 H   0  0  0  0  0  0  0  0  0  0  0  0
    1.3310   -3.7404    6.2629 H   0  0  0  0  0  0  0  0  0  0  0  0
  1  2  1  0
  1 24  1  0
  1 25  1  0
  1 26  1  0
  2 23  2  0
  2  3  1  0
  3  4  2  0
  3 27  1  0
  4  5  1  0
  4 28  1  0
  5  6  2  0
  5 29  1  0
  6  7  1  0
  6 23  1  0
  7  8  2  0
  7  9  1  0
  9 22  1  0
  9 10  1  0
 10 11  1  0
 10 30  1  0
 10 31  1  0
 11 12  1  0
 11 32  1  0
 11 33  1  0
 12 16  1  0
 12 13  1  0
 13 14  2  0
 13 22  1  0
 14 15  1  0
 15 16  2  0
 16 17  1  0
 17 21  1  0
 17 18  2  0
 18 19  1  0
 18 34  1  0
 19 20  1  0
 20 21  2  0
 20 35  1  0
 22 36  1  0
 22 37  1  0
M  END
>  <i_m_ct_stereo_status>  (378) 
1

>  <s_m_source_file>  (378) 
/var/tmp/pbs.5076255.sched01/tmpxe1g82q3/12669a6jj4p.sdf

>  <i_m_source_file_index>  (378) 
22

>  <i_lp_mmshare_version>  (378) 
48012

>  <i_f3d_flags>  (378) 
0

>  <s_epik_input>  (378) 
W0NIM11jMVtjSF1bY0hdW2NIXWMobjEpQyg9TylOKFtDSDJdW0NIMl0yKVtDSDJdYyhuMjMpbm5jMy1jNFtjSF1zW2NIXW40

>  <s_epik_cmdline>  (378) 
J2VwaWtfcHl0aG9uJywgJy1waHQnLCAnMi4wJywgJy1waCcsICc3LjAnLCAnLXRuJywgJzgnLCAnLW1hJywgJzIwMCcsICctaW1hZScsICc8aW5maWxlLm1hZT4nLCAnLW9tYWUnLCAnPG91dGZpbGUubWFlPic=

>  <r_lp_tautomer_probability>  (378) 
1

>  <r_epik_Ionization_Penalty>  (378) 
2.02598e-05

>  <r_epik_Ionization_Penalty_Charging>  (378) 
0

>  <r_epik_Ionization_Penalty_Neutral>  (378) 
2.02598e-05

>  <r_epik_State_Penalty>  (378) 
-0

>  <r_epik_Charging_Adjusted_Penalty>  (378) 
0

>  <i_epik_Tot_Q>  (378) 
0

>  <i_epik_Tot_abs_Q>  (378) 
0

>  <s_lp_Force_Field>  (378) 
OPLS3e

>  <r_lp_Energy>  (378) 
42.6044

>  <b_lp_Chiralities_Consistent>  (378) 
1

>  <s_lp_Variant>  (378) 
109:0-1

>  <s_i_glide_gridfile>  (378) 
pfpi4k_grid

>  <i_i_glide_lignum>  (378) 
22

>  <i_i_glide_rotatable_bonds>  (378) 
3

>  <r_i_docking_score>  (378) 
-3.5996

>  <r_i_glide_ligand_efficiency>  (378) 
-0.156504

>  <r_i_glide_ligand_efficiency_sa>  (378) 
-0.445078

>  <r_i_glide_ligand_efficiency_ln>  (378) 
-0.870416

>  <r_i_glide_gscore>  (378) 
-3.5996

>  <r_i_glide_lipo>  (378) 
-0.182332

>  <r_i_glide_hbond>  (378) 
-0.142818

>  <r_i_glide_metal>  (378) 
-0

>  <r_i_glide_rewards>  (378) 
-1.19426

>  <r_i_glide_evdw>  (378) 
-25.5085

>  <r_i_glide_ecoul>  (378) 
-7.6714

>  <r_i_glide_erotb>  (378) 
0.52817

>  <r_i_glide_esite>  (378) 
-0.182227

>  <r_i_glide_emodel>  (378) 
-41.1455

>  <r_i_glide_energy>  (378) 
-33.1799

>  <r_i_glide_einternal>  (378) 
1.5231

>  <r_i_glide_intrahb_reward>  (378) 
-0

>  <i_i_glide_confnum>  (378) 
5

>  <i_i_glide_posenum>  (378) 
1

>  <r_i_glide_eff_state_penalty>  (378) 
0

>  <ligand_id>  (378) 
109

>  <original_smiles>  (378) 
Cc1cccc(C(=O)N2CCn3c(nnc3-c3cscn3)C2)n1

>  <smiles>  (378) 
[H]c1nc(-c2nnc3n2C([H])([H])C([H])([H])N(C(=O)c2nc(C([H])([H])[H])c([H])c([H])c2[H])C3([H])[H])c([H])s1

$$$$
109:0:1
     RDKit          3D

 37 40  0  0  1  0  0  0  0  0999 V2000
    0.1130   -7.8443    2.2169 C   0  0  0  0  0  0  0  0  0  0  0  0
    1.6176   -7.9817    2.1185 C   0  0  0  0  0  0  0  0  0  0  0  0
    2.2118   -9.2227    1.8294 C   0  0  0  0  0  0  0  0  0  0  0  0
    3.6132   -9.2991    1.7471 C   0  0  0  0  0  0  0  0  0  0  0  0
    4.3592   -8.1315    1.9708 C   0  0  0  0  0  0  0  0  0  0  0  0
    3.6804   -6.9247    2.2524 C   0  0  0  0  0  0  0  0  0  0  0  0
    4.4581   -5.6629    2.4965 C   0  0  0  0  0  0  0  0  0  0  0  0
    4.3628   -5.0963    3.5862 O   0  0  0  0  0  0  0  0  0  0  0  0
    5.2557   -5.2094    1.5019 N   0  0  0  0  0  0  0  0  0  0  0  0
    5.1782   -5.6355    0.0947 C   0  0  0  0  0  0  0  0  0  0  0  0
    4.5220   -4.5241   -0.7228 C   0  0  0  0  0  0  0  0  0  0  0  0
    5.0938   -3.2300   -0.3784 N   0  0  0  0  0  0  0  0  0  0  0  0
    5.8310   -2.9723    0.7142 C   0  0  0  0  0  0  0  0  0  0  0  0
    6.2361   -1.7070    0.8053 N   0  0  0  0  0  0  0  0  0  0  0  0
    5.7010   -1.0854   -0.3057 N   0  0  0  0  0  0  0  0  0  0  0  0
    5.0141   -2.0209   -0.9737 C   0  0  0  0  0  0  0  0  0  0  0  0
    4.2888   -1.7226   -2.2121 C   0  0  0  0  0  0  0  0  0  0  0  0
    4.2120   -0.5214   -2.8772 C   0  0  0  0  0  0  0  0  0  0  0  0
    3.2570   -0.6138   -4.3213 S   0  0  0  0  0  0  0  0  0  0  0  0
    2.9571   -2.3007   -3.9575 C   0  0  0  0  0  0  0  0  0  0  0  0
    3.5752   -2.7312   -2.8702 N   0  0  0  0  0  0  0  0  0  0  0  0
    6.1714   -4.0646    1.6919 C   0  0  0  0  0  0  0  0  0  0  0  0
    2.3301   -6.8529    2.3226 N   0  0  0  0  0  0  0  0  0  0  0  0
   -0.3822   -8.8054    2.0746 H   0  0  0  0  0  0  0  0  0  0  0  0
   -0.2509   -7.1582    1.4538 H   0  0  0  0  0  0  0  0  0  0  0  0
   -0.1708   -7.4596    3.1964 H   0  0  0  0  0  0  0  0  0  0  0  0
    1.6074  -10.1037    1.6635 H   0  0  0  0  0  0  0  0  0  0  0  0
    4.1022  -10.2349    1.5268 H   0  0  0  0  0  0  0  0  0  0  0  0
    5.4377   -8.1597    1.9241 H   0  0  0  0  0  0  0  0  0  0  0  0
    6.1899   -5.8151   -0.2692 H   0  0  0  0  0  0  0  0  0  0  0  0
    4.6263   -6.5576   -0.0867 H   0  0  0  0  0  0  0  0  0  0  0  0
    4.6970   -4.7329   -1.7782 H   0  0  0  0  0  0  0  0  0  0  0  0
    3.4439   -4.4823   -0.5481 H   0  0  0  0  0  0  0  0  0  0  0  0
    4.6425    0.4243   -2.5827 H   0  0  0  0  0  0  0  0  0  0  0  0
    2.3733   -2.9853   -4.5585 H   0  0  0  0  0  0  0  0  0  0  0  0
    6.1415   -3.6487    2.6998 H   0  0  0  0  0  0  0  0  0  0  0  0
    7.1960   -4.3883    1.5029 H   0  0  0  0  0  0  0  0  0  0  0  0
  1  2  1  0
  1 24  1  0
  1 25  1  0
  1 26  1  0
  2 23  2  0
  2  3  1  0
  3  4  2  0
  3 27  1  0
  4  5  1  0
  4 28  1  0
  5  6  2  0
  5 29  1  0
  6  7  1  0
  6 23  1  0
  7  8  2  0
  7  9  1  0
  9 22  1  0
  9 10  1  0
 10 11  1  0
 10 30  1  0
 10 31  1  0
 11 12  1  0
 11 32  1  0
 11 33  1  0
 12 16  1  0
 12 13  1  0
 13 14  2  0
 13 22  1  0
 14 15  1  0
 15 16  2  0
 16 17  1  0
 17 21  1  0
 17 18  2  0
 18 19  1  0
 18 34  1  0
 19 20  1  0
 20 21  2  0
 20 35  1  0
 22 36  1  0
 22 37  1  0
M  END
>  <i_m_ct_stereo_status>  (379) 
1

>  <s_m_source_file>  (379) 
/var/tmp/pbs.5076255.sched01/tmpxe1g82q3/12669a6jj4p.sdf

>  <i_m_source_file_index>  (379) 
22

>  <i_lp_mmshare_version>  (379) 
48012

>  <i_f3d_flags>  (379) 
0

>  <s_epik_input>  (379) 
W0NIM11jMVtjSF1bY0hdW2NIXWMobjEpQyg9TylOKFtDSDJdW0NIMl0yKVtDSDJdYyhuMjMpbm5jMy1jNFtjSF1zW2NIXW40

>  <s_epik_cmdline>  (379) 
J2VwaWtfcHl0aG9uJywgJy1waHQnLCAnMi4wJywgJy1waCcsICc3LjAnLCAnLXRuJywgJzgnLCAnLW1hJywgJzIwMCcsICctaW1hZScsICc8aW5maWxlLm1hZT4nLCAnLW9tYWUnLCAnPG91dGZpbGUubWFlPic=

>  <r_lp_tautomer_probability>  (379) 
1

>  <r_epik_Ionization_Penalty>  (379) 
2.02598e-05

>  <r_epik_Ionization_Penalty_Charging>  (379) 
0

>  <r_epik_Ionization_Penalty_Neutral>  (379) 
2.02598e-05

>  <r_epik_State_Penalty>  (379) 
-0

>  <r_epik_Charging_Adjusted_Penalty>  (379) 
0

>  <i_epik_Tot_Q>  (379) 
0

>  <i_epik_Tot_abs_Q>  (379) 
0

>  <s_lp_Force_Field>  (379) 
OPLS3e

>  <r_lp_Energy>  (379) 
42.6044

>  <b_lp_Chiralities_Consistent>  (379) 
1

>  <s_lp_Variant>  (379) 
109:0-1

>  <s_i_glide_gridfile>  (379) 
pfpi4k_grid

>  <i_i_glide_lignum>  (379) 
22

>  <i_i_glide_rotatable_bonds>  (379) 
3

>  <r_i_docking_score>  (379) 
-3.51071

>  <r_i_glide_ligand_efficiency>  (379) 
-0.15264

>  <r_i_glide_ligand_efficiency_sa>  (379) 
-0.434087

>  <r_i_glide_ligand_efficiency_ln>  (379) 
-0.848921

>  <r_i_glide_gscore>  (379) 
-3.51071

>  <r_i_glide_lipo>  (379) 
-0.700524

>  <r_i_glide_hbond>  (379) 
0

>  <r_i_glide_metal>  (379) 
-0

>  <r_i_glide_rewards>  (379) 
-1.38669

>  <r_i_glide_evdw>  (379) 
-32.9239

>  <r_i_glide_ecoul>  (379) 
-1.67282

>  <r_i_glide_erotb>  (379) 
0.52817

>  <r_i_glide_esite>  (379) 
-0.0545462

>  <r_i_glide_emodel>  (379) 
-42.6877

>  <r_i_glide_energy>  (379) 
-34.5968

>  <r_i_glide_einternal>  (379) 
1.00608

>  <r_i_glide_intrahb_reward>  (379) 
-0

>  <i_i_glide_confnum>  (379) 
1

>  <i_i_glide_posenum>  (379) 
14

>  <r_i_glide_eff_state_penalty>  (379) 
0

>  <ligand_id>  (379) 
109

>  <original_smiles>  (379) 
Cc1cccc(C(=O)N2CCn3c(nnc3-c3cscn3)C2)n1

>  <smiles>  (379) 
[H]c1nc(-c2nnc3n2C([H])([H])C([H])([H])N(C(=O)c2nc(C([H])([H])[H])c([H])c([H])c2[H])C3([H])[H])c([H])s1

$$$$
109:0:2
     RDKit          3D

 37 40  0  0  1  0  0  0  0  0999 V2000
    1.5937    4.3966    3.0645 C   0  0  0  0  0  0  0  0  0  0  0  0
    1.4467    2.8950    3.2408 C   0  0  0  0  0  0  0  0  0  0  0  0
    0.1688    2.2994    3.2861 C   0  0  0  0  0  0  0  0  0  0  0  0
    0.0989    0.9081    3.5149 C   0  0  0  0  0  0  0  0  0  0  0  0
    1.2888    0.1917    3.7295 C   0  0  0  0  0  0  0  0  0  0  0  0
    2.5316    0.8544    3.5830 C   0  0  0  0  0  0  0  0  0  0  0  0
    3.8359    0.0987    3.6497 C   0  0  0  0  0  0  0  0  0  0  0  0
    4.7533    0.5591    4.3422 O   0  0  0  0  0  0  0  0  0  0  0  0
    3.9982   -1.0343    2.9090 N   0  0  0  0  0  0  0  0  0  0  0  0
    2.9648   -1.7394    2.1139 C   0  0  0  0  0  0  0  0  0  0  0  0
    3.2602   -1.4780    0.6314 C   0  0  0  0  0  0  0  0  0  0  0  0
    4.6704   -1.6784    0.3601 N   0  0  0  0  0  0  0  0  0  0  0  0
    5.6644   -1.7430    1.2649 C   0  0  0  0  0  0  0  0  0  0  0  0
    6.8660   -1.9423    0.7153 N   0  0  0  0  0  0  0  0  0  0  0  0
    6.6344   -2.0085   -0.6495 N   0  0  0  0  0  0  0  0  0  0  0  0
    5.3181   -1.8284   -0.8073 C   0  0  0  0  0  0  0  0  0  0  0  0
    4.6384   -1.7712   -2.0975 C   0  0  0  0  0  0  0  0  0  0  0  0
    4.1702   -0.6510   -2.7231 C   0  0  0  0  0  0  0  0  0  0  0  0
    3.4114   -1.0118   -4.2478 S   0  0  0  0  0  0  0  0  0  0  0  0
    3.7328   -2.7040   -3.9378 C   0  0  0  0  0  0  0  0  0  0  0  0
    4.4347   -2.9322   -2.8343 N   0  0  0  0  0  0  0  0  0  0  0  0
    5.3585   -1.6302    2.7385 C   0  0  0  0  0  0  0  0  0  0  0  0
    2.5886    2.1931    3.3552 N   0  0  0  0  0  0  0  0  0  0  0  0
    0.6136    4.8694    3.0137 H   0  0  0  0  0  0  0  0  0  0  0  0
    2.1254    4.6170    2.1367 H   0  0  0  0  0  0  0  0  0  0  0  0
    2.1431    4.8331    3.9032 H   0  0  0  0  0  0  0  0  0  0  0  0
   -0.7288    2.8878    3.1317 H   0  0  0  0  0  0  0  0  0  0  0  0
   -0.8522    0.3988    3.5036 H   0  0  0  0  0  0  0  0  0  0  0  0
    1.2709   -0.8720    3.9291 H   0  0  0  0  0  0  0  0  0  0  0  0
    3.0925   -2.8162    2.3234 H   0  0  0  0  0  0  0  0  0  0  0  0
    1.9259   -1.4735    2.2639 H   0  0  0  0  0  0  0  0  0  0  0  0
    2.6682   -2.1473    0.0107 H   0  0  0  0  0  0  0  0  0  0  0  0
    3.0096   -0.4514    0.3701 H   0  0  0  0  0  0  0  0  0  0  0  0
    4.2371    0.3826   -2.3767 H   0  0  0  0  0  0  0  0  0  0  0  0
    3.4942   -3.5248   -4.6035 H   0  0  0  0  0  0  0  0  0  0  0  0
    6.1675   -1.0642    3.2128 H   0  0  0  0  0  0  0  0  0  0  0  0
    5.3653   -2.6269    3.1812 H   0  0  0  0  0  0  0  0  0  0  0  0
  1  2  1  0
  1 24  1  0
  1 25  1  0
  1 26  1  0
  2 23  2  0
  2  3  1  0
  3  4  2  0
  3 27  1  0
  4  5  1  0
  4 28  1  0
  5  6  2  0
  5 29  1  0
  6  7  1  0
  6 23  1  0
  7  8  2  0
  7  9  1  0
  9 22  1  0
  9 10  1  0
 10 11  1  0
 10 30  1  0
 10 31  1  0
 11 12  1  0
 11 32  1  0
 11 33  1  0
 12 16  1  0
 12 13  1  0
 13 14  2  0
 13 22  1  0
 14 15  1  0
 15 16  2  0
 16 17  1  0
 17 21  1  0
 17 18  2  0
 18 19  1  0
 18 34  1  0
 19 20  1  0
 20 21  2  0
 20 35  1  0
 22 36  1  0
 22 37  1  0
M  END
>  <i_m_ct_stereo_status>  (380) 
1

>  <s_m_source_file>  (380) 
/var/tmp/pbs.5076255.sched01/tmpxe1g82q3/12669a6jj4p.sdf

>  <i_m_source_file_index>  (380) 
22

>  <i_lp_mmshare_version>  (380) 
48012

>  <i_f3d_flags>  (380) 
0

>  <s_epik_input>  (380) 
W0NIM11jMVtjSF1bY0hdW2NIXWMobjEpQyg9TylOKFtDSDJdW0NIMl0yKVtDSDJdYyhuMjMpbm5jMy1jNFtjSF1zW2NIXW40

>  <s_epik_cmdline>  (380) 
J2VwaWtfcHl0aG9uJywgJy1waHQnLCAnMi4wJywgJy1waCcsICc3LjAnLCAnLXRuJywgJzgnLCAnLW1hJywgJzIwMCcsICctaW1hZScsICc8aW5maWxlLm1hZT4nLCAnLW9tYWUnLCAnPG91dGZpbGUubWFlPic=

>  <r_lp_tautomer_probability>  (380) 
1

>  <r_epik_Ionization_Penalty>  (380) 
2.02598e-05

>  <r_epik_Ionization_Penalty_Charging>  (380) 
0

>  <r_epik_Ionization_Penalty_Neutral>  (380) 
2.02598e-05

>  <r_epik_State_Penalty>  (380) 
-0

>  <r_epik_Charging_Adjusted_Penalty>  (380) 
0

>  <i_epik_Tot_Q>  (380) 
0

>  <i_epik_Tot_abs_Q>  (380) 
0

>  <s_lp_Force_Field>  (380) 
OPLS3e

>  <r_lp_Energy>  (380) 
42.6044

>  <b_lp_Chiralities_Consistent>  (380) 
1

>  <s_lp_Variant>  (380) 
109:0-1

>  <s_i_glide_gridfile>  (380) 
pfpi4k_grid

>  <i_i_glide_lignum>  (380) 
22

>  <i_i_glide_rotatable_bonds>  (380) 
3

>  <r_i_docking_score>  (380) 
-3.25162

>  <r_i_glide_ligand_efficiency>  (380) 
-0.141375

>  <r_i_glide_ligand_efficiency_sa>  (380) 
-0.402052

>  <r_i_glide_ligand_efficiency_ln>  (380) 
-0.786272

>  <r_i_glide_gscore>  (380) 
-3.25162

>  <r_i_glide_lipo>  (380) 
-0.340057

>  <r_i_glide_hbond>  (380) 
0

>  <r_i_glide_metal>  (380) 
-0

>  <r_i_glide_rewards>  (380) 
-1.37159

>  <r_i_glide_evdw>  (380) 
-33.1036

>  <r_i_glide_ecoul>  (380) 
-2.11497

>  <r_i_glide_erotb>  (380) 
0.52817

>  <r_i_glide_esite>  (380) 
-0.095726

>  <r_i_glide_emodel>  (380) 
-39.4257

>  <r_i_glide_energy>  (380) 
-35.2186

>  <r_i_glide_einternal>  (380) 
5.99366

>  <r_i_glide_intrahb_reward>  (380) 
-0

>  <i_i_glide_confnum>  (380) 
1

>  <i_i_glide_posenum>  (380) 
3

>  <r_i_glide_eff_state_penalty>  (380) 
0

>  <ligand_id>  (380) 
109

>  <original_smiles>  (380) 
Cc1cccc(C(=O)N2CCn3c(nnc3-c3cscn3)C2)n1

>  <smiles>  (380) 
[H]c1nc(-c2nnc3n2C([H])([H])C([H])([H])N(C(=O)c2nc(C([H])([H])[H])c([H])c([H])c2[H])C3([H])[H])c([H])s1

$$$$
110:0:0
     RDKit          3D

 22 24  0  0  1  0  0  0  0  0999 V2000
    4.2415   -8.2684    1.5657 C   0  0  0  0  0  0  0  0  0  0  0  0
    3.3289   -7.1752    1.2849 N   0  0  0  0  0  0  0  0  0  0  0  0
    2.0324   -7.2643    1.6663 N   0  0  0  0  0  0  0  0  0  0  0  0
    1.4562   -6.1610    1.2987 N   0  0  0  0  0  0  0  0  0  0  0  0
    2.3540   -5.3087    0.6877 N   0  0  0  0  0  0  0  0  0  0  0  0
    3.4991   -5.9779    0.7044 C   0  0  0  0  0  0  0  0  0  0  0  0
    5.0409   -5.3836    0.0814 S   0  0  0  0  0  0  0  0  0  0  0  0
    4.7647   -3.6432    0.0690 C   0  0  0  0  0  0  0  0  0  0  0  0
    4.7051   -2.9555    1.2956 C   0  0  0  0  0  0  0  0  0  0  0  0
    4.4660   -1.5701    1.3054 C   0  0  0  0  0  0  0  0  0  0  0  0
    4.2985   -0.8675    0.0923 C   0  0  0  0  0  0  0  0  0  0  0  0
    4.3560   -1.5325   -1.1566 C   0  0  0  0  0  0  0  0  0  0  0  0
    4.2161   -0.9873   -2.4393 N   0  0  0  0  0  0  0  0  0  0  0  0
    4.3115   -1.8630   -3.4000 N   0  0  0  0  0  0  0  0  0  0  0  0
    4.6175   -3.4131   -2.8223 S   0  0  0  0  0  0  0  0  0  0  0  0
    4.5964   -2.9324   -1.1397 C   0  0  0  0  0  0  0  0  0  0  0  0
    5.1711   -8.1546    1.0085 H   0  0  0  0  0  0  0  0  0  0  0  0
    3.7788   -9.2172    1.2884 H   0  0  0  0  0  0  0  0  0  0  0  0
    4.4643   -8.2888    2.6336 H   0  0  0  0  0  0  0  0  0  0  0  0
    4.8239   -3.4933    2.2292 H   0  0  0  0  0  0  0  0  0  0  0  0
    4.4004   -1.0409    2.2456 H   0  0  0  0  0  0  0  0  0  0  0  0
    4.1212    0.1963    0.1186 H   0  0  0  0  0  0  0  0  0  0  0  0
  1  2  1  0
  1 17  1  0
  1 18  1  0
  1 19  1  0
  2  6  1  0
  2  3  1  0
  3  4  2  0
  4  5  1  0
  5  6  2  0
  6  7  1  0
  7  8  1  0
  8 16  1  0
  8  9  2  0
  9 10  1  0
  9 20  1  0
 10 11  2  0
 10 21  1  0
 11 12  1  0
 11 22  1  0
 12 16  2  0
 12 13  1  0
 13 14  2  0
 14 15  1  0
 15 16  1  0
M  END
>  <i_m_ct_stereo_status>  (381) 
1

>  <s_m_source_file>  (381) 
/var/tmp/pbs.5076255.sched01/tmpxe1g82q3/12669a6jj4p.sdf

>  <i_m_source_file_index>  (381) 
23

>  <i_lp_mmshare_version>  (381) 
48012

>  <i_f3d_flags>  (381) 
0

>  <s_epik_input>  (381) 
W0NIM11uMW5ubmMxU2MoW2NIXVtjSF1bY0hdMiljKGMyMylzbm4z

>  <s_epik_cmdline>  (381) 
J2VwaWtfcHl0aG9uJywgJy1waHQnLCAnMi4wJywgJy1waCcsICc3LjAnLCAnLXRuJywgJzgnLCAnLW1hJywgJzIwMCcsICctaW1hZScsICc8aW5maWxlLm1hZT4nLCAnLW9tYWUnLCAnPG91dGZpbGUubWFlPic=

>  <r_lp_tautomer_probability>  (381) 
1

>  <r_epik_Ionization_Penalty>  (381) 
3.89644e-08

>  <r_epik_Ionization_Penalty_Charging>  (381) 
0

>  <r_epik_Ionization_Penalty_Neutral>  (381) 
3.89644e-08

>  <r_epik_State_Penalty>  (381) 
-0

>  <r_epik_Charging_Adjusted_Penalty>  (381) 
0

>  <i_epik_Tot_Q>  (381) 
0

>  <i_epik_Tot_abs_Q>  (381) 
0

>  <s_lp_Force_Field>  (381) 
OPLS3e

>  <r_lp_Energy>  (381) 
16.0603

>  <b_lp_Chiralities_Consistent>  (381) 
1

>  <s_lp_Variant>  (381) 
110:0-1

>  <s_i_glide_gridfile>  (381) 
pfpi4k_grid

>  <i_i_glide_lignum>  (381) 
23

>  <i_i_glide_rotatable_bonds>  (381) 
2

>  <r_i_docking_score>  (381) 
-3.11394

>  <r_i_glide_ligand_efficiency>  (381) 
-0.194621

>  <r_i_glide_ligand_efficiency_sa>  (381) 
-0.490414

>  <r_i_glide_ligand_efficiency_ln>  (381) 
-0.825411

>  <r_i_glide_gscore>  (381) 
-3.11394

>  <r_i_glide_lipo>  (381) 
-0.177529

>  <r_i_glide_hbond>  (381) 
0

>  <r_i_glide_metal>  (381) 
-0

>  <r_i_glide_rewards>  (381) 
-1.81321

>  <r_i_glide_evdw>  (381) 
-26.3142

>  <r_i_glide_ecoul>  (381) 
-1.41316

>  <r_i_glide_erotb>  (381) 
0.558829

>  <r_i_glide_esite>  (381) 
-0.154337

>  <r_i_glide_emodel>  (381) 
-32.8417

>  <r_i_glide_energy>  (381) 
-27.7274

>  <r_i_glide_einternal>  (381) 
0.930661

>  <r_i_glide_intrahb_reward>  (381) 
-0

>  <i_i_glide_confnum>  (381) 
3

>  <i_i_glide_posenum>  (381) 
19

>  <r_i_glide_eff_state_penalty>  (381) 
0

>  <ligand_id>  (381) 
110

>  <original_smiles>  (381) 
Cn1nnnc1Sc1cccc2nnsc12

>  <smiles>  (381) 
[H]c1c([H])c(Sc2nnnn2C([H])([H])[H])c2snnc2c1[H]

$$$$
110:0:1
     RDKit          3D

 22 24  0  0  1  0  0  0  0  0999 V2000
   -1.1782    1.7257    2.9754 C   0  0  0  0  0  0  0  0  0  0  0  0
   -1.3792    1.0757    4.2600 N   0  0  0  0  0  0  0  0  0  0  0  0
   -1.1418   -0.2521    4.4010 N   0  0  0  0  0  0  0  0  0  0  0  0
   -1.3867   -0.5503    5.6420 N   0  0  0  0  0  0  0  0  0  0  0  0
   -1.7850    0.5637    6.3536 N   0  0  0  0  0  0  0  0  0  0  0  0
   -1.7561    1.5455    5.4583 C   0  0  0  0  0  0  0  0  0  0  0  0
   -2.1444    3.2383    5.7885 S   0  0  0  0  0  0  0  0  0  0  0  0
   -2.1541    3.2597    7.5557 C   0  0  0  0  0  0  0  0  0  0  0  0
   -3.3609    3.0735    8.2566 C   0  0  0  0  0  0  0  0  0  0  0  0
   -3.3584    3.0828    9.6646 C   0  0  0  0  0  0  0  0  0  0  0  0
   -2.1548    3.2706   10.3771 C   0  0  0  0  0  0  0  0  0  0  0  0
   -0.9284    3.4628    9.6986 C   0  0  0  0  0  0  0  0  0  0  0  0
    0.3450    3.6645   10.2448 N   0  0  0  0  0  0  0  0  0  0  0  0
    1.2827    3.8173    9.3518 N   0  0  0  0  0  0  0  0  0  0  0  0
    0.6937    3.7205    7.7796 S   0  0  0  0  0  0  0  0  0  0  0  0
   -0.9599    3.4560    8.2782 C   0  0  0  0  0  0  0  0  0  0  0  0
   -1.6378    2.7139    2.9640 H   0  0  0  0  0  0  0  0  0  0  0  0
   -1.6201    1.1281    2.1770 H   0  0  0  0  0  0  0  0  0  0  0  0
   -0.1102    1.8326    2.7820 H   0  0  0  0  0  0  0  0  0  0  0  0
   -4.2885    2.9288    7.7199 H   0  0  0  0  0  0  0  0  0  0  0  0
   -4.2813    2.9437   10.2097 H   0  0  0  0  0  0  0  0  0  0  0  0
   -2.1706    3.2676   11.4581 H   0  0  0  0  0  0  0  0  0  0  0  0
  1  2  1  0
  1 17  1  0
  1 18  1  0
  1 19  1  0
  2  6  1  0
  2  3  1  0
  3  4  2  0
  4  5  1  0
  5  6  2  0
  6  7  1  0
  7  8  1  0
  8 16  1  0
  8  9  2  0
  9 10  1  0
  9 20  1  0
 10 11  2  0
 10 21  1  0
 11 12  1  0
 11 22  1  0
 12 16  2  0
 12 13  1  0
 13 14  2  0
 14 15  1  0
 15 16  1  0
M  END
>  <i_m_ct_stereo_status>  (382) 
1

>  <s_m_source_file>  (382) 
/var/tmp/pbs.5076255.sched01/tmpxe1g82q3/12669a6jj4p.sdf

>  <i_m_source_file_index>  (382) 
23

>  <i_lp_mmshare_version>  (382) 
48012

>  <i_f3d_flags>  (382) 
0

>  <s_epik_input>  (382) 
W0NIM11uMW5ubmMxU2MoW2NIXVtjSF1bY0hdMiljKGMyMylzbm4z

>  <s_epik_cmdline>  (382) 
J2VwaWtfcHl0aG9uJywgJy1waHQnLCAnMi4wJywgJy1waCcsICc3LjAnLCAnLXRuJywgJzgnLCAnLW1hJywgJzIwMCcsICctaW1hZScsICc8aW5maWxlLm1hZT4nLCAnLW9tYWUnLCAnPG91dGZpbGUubWFlPic=

>  <r_lp_tautomer_probability>  (382) 
1

>  <r_epik_Ionization_Penalty>  (382) 
3.89644e-08

>  <r_epik_Ionization_Penalty_Charging>  (382) 
0

>  <r_epik_Ionization_Penalty_Neutral>  (382) 
3.89644e-08

>  <r_epik_State_Penalty>  (382) 
-0

>  <r_epik_Charging_Adjusted_Penalty>  (382) 
0

>  <i_epik_Tot_Q>  (382) 
0

>  <i_epik_Tot_abs_Q>  (382) 
0

>  <s_lp_Force_Field>  (382) 
OPLS3e

>  <r_lp_Energy>  (382) 
16.0603

>  <b_lp_Chiralities_Consistent>  (382) 
1

>  <s_lp_Variant>  (382) 
110:0-1

>  <s_i_glide_gridfile>  (382) 
pfpi4k_grid

>  <i_i_glide_lignum>  (382) 
23

>  <i_i_glide_rotatable_bonds>  (382) 
2

>  <r_i_docking_score>  (382) 
-3.05926

>  <r_i_glide_ligand_efficiency>  (382) 
-0.191204

>  <r_i_glide_ligand_efficiency_sa>  (382) 
-0.481803

>  <r_i_glide_ligand_efficiency_ln>  (382) 
-0.810918

>  <r_i_glide_gscore>  (382) 
-3.05926

>  <r_i_glide_lipo>  (382) 
-0.130597

>  <r_i_glide_hbond>  (382) 
0

>  <r_i_glide_metal>  (382) 
-0

>  <r_i_glide_rewards>  (382) 
-1.70246

>  <r_i_glide_evdw>  (382) 
-19.7468

>  <r_i_glide_ecoul>  (382) 
-3.7474

>  <r_i_glide_erotb>  (382) 
0.558829

>  <r_i_glide_esite>  (382) 
-0.235576

>  <r_i_glide_emodel>  (382) 
-28.7685

>  <r_i_glide_energy>  (382) 
-23.4942

>  <r_i_glide_einternal>  (382) 
0.518626

>  <r_i_glide_intrahb_reward>  (382) 
-0

>  <i_i_glide_confnum>  (382) 
6

>  <i_i_glide_posenum>  (382) 
27

>  <r_i_glide_eff_state_penalty>  (382) 
0

>  <ligand_id>  (382) 
110

>  <original_smiles>  (382) 
Cn1nnnc1Sc1cccc2nnsc12

>  <smiles>  (382) 
[H]c1c([H])c(Sc2nnnn2C([H])([H])[H])c2snnc2c1[H]

$$$$
110:0:2
     RDKit          3D

 22 24  0  0  1  0  0  0  0  0999 V2000
    1.2925   -1.0979    2.9932 C   0  0  0  0  0  0  0  0  0  0  0  0
    0.2170   -0.9483    3.9566 N   0  0  0  0  0  0  0  0  0  0  0  0
    0.0645   -1.8508    4.9573 N   0  0  0  0  0  0  0  0  0  0  0  0
   -0.9634   -1.4684    5.6560 N   0  0  0  0  0  0  0  0  0  0  0  0
   -1.5178   -0.3135    5.1403 N   0  0  0  0  0  0  0  0  0  0  0  0
   -0.7508   -0.0299    4.0934 C   0  0  0  0  0  0  0  0  0  0  0  0
   -0.9826    1.3481    3.0210 S   0  0  0  0  0  0  0  0  0  0  0  0
    0.1828    2.4832    3.6934 C   0  0  0  0  0  0  0  0  0  0  0  0
    1.4485    2.6160    3.0929 C   0  0  0  0  0  0  0  0  0  0  0  0
    2.3784    3.5276    3.6289 C   0  0  0  0  0  0  0  0  0  0  0  0
    2.0466    4.3062    4.7606 C   0  0  0  0  0  0  0  0  0  0  0  0
    0.7811    4.1882    5.3827 C   0  0  0  0  0  0  0  0  0  0  0  0
    0.2960    4.8734    6.5044 N   0  0  0  0  0  0  0  0  0  0  0  0
   -0.9118    4.5245    6.8524 N   0  0  0  0  0  0  0  0  0  0  0  0
   -1.5614    3.3525    5.8331 S   0  0  0  0  0  0  0  0  0  0  0  0
   -0.1361    3.2592    4.8257 C   0  0  0  0  0  0  0  0  0  0  0  0
    1.1242   -0.4673    2.1193 H   0  0  0  0  0  0  0  0  0  0  0  0
    1.3606   -2.1356    2.6611 H   0  0  0  0  0  0  0  0  0  0  0  0
    2.2385   -0.8172    3.4581 H   0  0  0  0  0  0  0  0  0  0  0  0
    1.7011    2.0349    2.2161 H   0  0  0  0  0  0  0  0  0  0  0  0
    3.3508    3.6351    3.1677 H   0  0  0  0  0  0  0  0  0  0  0  0
    2.7715    5.0007    5.1610 H   0  0  0  0  0  0  0  0  0  0  0  0
  1  2  1  0
  1 17  1  0
  1 18  1  0
  1 19  1  0
  2  6  1  0
  2  3  1  0
  3  4  2  0
  4  5  1  0
  5  6  2  0
  6  7  1  0
  7  8  1  0
  8 16  1  0
  8  9  2  0
  9 10  1  0
  9 20  1  0
 10 11  2  0
 10 21  1  0
 11 12  1  0
 11 22  1  0
 12 16  2  0
 12 13  1  0
 13 14  2  0
 14 15  1  0
 15 16  1  0
M  END
>  <i_m_ct_stereo_status>  (383) 
1

>  <s_m_source_file>  (383) 
/var/tmp/pbs.5076255.sched01/tmpxe1g82q3/12669a6jj4p.sdf

>  <i_m_source_file_index>  (383) 
23

>  <i_lp_mmshare_version>  (383) 
48012

>  <i_f3d_flags>  (383) 
0

>  <s_epik_input>  (383) 
W0NIM11uMW5ubmMxU2MoW2NIXVtjSF1bY0hdMiljKGMyMylzbm4z

>  <s_epik_cmdline>  (383) 
J2VwaWtfcHl0aG9uJywgJy1waHQnLCAnMi4wJywgJy1waCcsICc3LjAnLCAnLXRuJywgJzgnLCAnLW1hJywgJzIwMCcsICctaW1hZScsICc8aW5maWxlLm1hZT4nLCAnLW9tYWUnLCAnPG91dGZpbGUubWFlPic=

>  <r_lp_tautomer_probability>  (383) 
1

>  <r_epik_Ionization_Penalty>  (383) 
3.89644e-08

>  <r_epik_Ionization_Penalty_Charging>  (383) 
0

>  <r_epik_Ionization_Penalty_Neutral>  (383) 
3.89644e-08

>  <r_epik_State_Penalty>  (383) 
-0

>  <r_epik_Charging_Adjusted_Penalty>  (383) 
0

>  <i_epik_Tot_Q>  (383) 
0

>  <i_epik_Tot_abs_Q>  (383) 
0

>  <s_lp_Force_Field>  (383) 
OPLS3e

>  <r_lp_Energy>  (383) 
16.0603

>  <b_lp_Chiralities_Consistent>  (383) 
1

>  <s_lp_Variant>  (383) 
110:0-1

>  <s_i_glide_gridfile>  (383) 
pfpi4k_grid

>  <i_i_glide_lignum>  (383) 
23

>  <i_i_glide_rotatable_bonds>  (383) 
2

>  <r_i_docking_score>  (383) 
-2.76772

>  <r_i_glide_ligand_efficiency>  (383) 
-0.172983

>  <r_i_glide_ligand_efficiency_sa>  (383) 
-0.435889

>  <r_i_glide_ligand_efficiency_ln>  (383) 
-0.73364

>  <r_i_glide_gscore>  (383) 
-2.76772

>  <r_i_glide_lipo>  (383) 
-0.00272261

>  <r_i_glide_hbond>  (383) 
0

>  <r_i_glide_metal>  (383) 
-0

>  <r_i_glide_rewards>  (383) 
-1.70246

>  <r_i_glide_evdw>  (383) 
-19.8227

>  <r_i_glide_ecoul>  (383) 
-3.24281

>  <r_i_glide_erotb>  (383) 
0.558829

>  <r_i_glide_esite>  (383) 
-0.143811

>  <r_i_glide_emodel>  (383) 
-27.9085

>  <r_i_glide_energy>  (383) 
-23.0655

>  <r_i_glide_einternal>  (383) 
0.318026

>  <r_i_glide_intrahb_reward>  (383) 
-0

>  <i_i_glide_confnum>  (383) 
1

>  <i_i_glide_posenum>  (383) 
6

>  <r_i_glide_eff_state_penalty>  (383) 
0

>  <ligand_id>  (383) 
110

>  <original_smiles>  (383) 
Cn1nnnc1Sc1cccc2nnsc12

>  <smiles>  (383) 
[H]c1c([H])c(Sc2nnnn2C([H])([H])[H])c2snnc2c1[H]

$$$$
112:0:0
     RDKit          3D

 38 40  0  0  1  0  0  0  0  0999 V2000
    5.5722   -0.3013    1.8726 C   0  0  0  0  0  0  0  0  0  0  0  0
    6.3991   -1.0617    0.8135 C   0  0  0  0  0  0  0  0  0  0  0  0
    5.5630   -1.6550   -0.1742 O   0  0  0  0  0  0  0  0  0  0  0  0
    4.6945   -2.6486    0.2173 C   0  0  0  0  0  0  0  0  0  0  0  0
    3.6574   -2.9858   -0.6772 C   0  0  0  0  0  0  0  0  0  0  0  0
    2.7143   -3.9719   -0.3328 C   0  0  0  0  0  0  0  0  0  0  0  0
    2.7946   -4.6438    0.8998 C   0  0  0  0  0  0  0  0  0  0  0  0
    1.8264   -5.6040    1.2081 N   0  0  0  0  0  0  0  0  0  0  0  0
    2.0982   -6.7682    1.6789 C   0  0  0  0  0  0  0  0  0  0  0  0
    3.5262   -7.3001    1.8784 C   0  0  0  0  0  0  0  0  0  0  0  0
    3.6561   -8.8054    1.6499 C   0  0  0  0  0  0  0  0  0  0  0  0
    2.6621   -9.6270    2.4781 C   0  0  0  0  0  0  0  0  0  0  0  0
    1.2590   -9.0381    2.4771 C   0  0  0  0  0  0  0  0  0  0  0  0
    0.1723   -9.8404    2.8794 C   0  0  0  0  0  0  0  0  0  0  0  0
   -1.1166   -9.2840    2.8787 C   0  0  0  0  0  0  0  0  0  0  0  0
   -1.2779   -7.9524    2.4818 C   0  0  0  0  0  0  0  0  0  0  0  0
   -0.2525   -7.1762    2.0908 N   0  0  0  0  0  0  0  0  0  0  0  0
    1.0018   -7.6975    2.0835 C   0  0  0  0  0  0  0  0  0  0  0  0
    3.8045   -4.2759    1.8131 C   0  0  0  0  0  0  0  0  0  0  0  0
    4.7690   -3.3221    1.4616 C   0  0  0  0  0  0  0  0  0  0  0  0
    6.2110    0.1654    2.6156 H   0  0  0  0  0  0  0  0  0  0  0  0
    4.8990   -0.9416    2.4401 H   0  0  0  0  0  0  0  0  0  0  0  0
    4.9507    0.4572    1.3925 H   0  0  0  0  0  0  0  0  0  0  0  0
    7.0439   -0.3509    0.2987 H   0  0  0  0  0  0  0  0  0  0  0  0
    7.0732   -1.8014    1.2484 H   0  0  0  0  0  0  0  0  0  0  0  0
    3.5701   -2.4676   -1.6227 H   0  0  0  0  0  0  0  0  0  0  0  0
    1.9299   -4.2144   -1.0349 H   0  0  0  0  0  0  0  0  0  0  0  0
    4.2374   -6.8208    1.2093 H   0  0  0  0  0  0  0  0  0  0  0  0
    3.8324   -7.0673    2.8956 H   0  0  0  0  0  0  0  0  0  0  0  0
    3.4957   -9.0167    0.5897 H   0  0  0  0  0  0  0  0  0  0  0  0
    4.6760   -9.1305    1.8656 H   0  0  0  0  0  0  0  0  0  0  0  0
    2.6431  -10.6514    2.1001 H   0  0  0  0  0  0  0  0  0  0  0  0
    3.0082   -9.6906    3.5095 H   0  0  0  0  0  0  0  0  0  0  0  0
    0.3232  -10.8650    3.1867 H   0  0  0  0  0  0  0  0  0  0  0  0
   -1.9698   -9.8551    3.1998 H   0  0  0  0  0  0  0  0  0  0  0  0
   -2.2564   -7.4968    2.4837 H   0  0  0  0  0  0  0  0  0  0  0  0
    3.8624   -4.7274    2.7900 H   0  0  0  0  0  0  0  0  0  0  0  0
    5.5413   -3.1059    2.1817 H   0  0  0  0  0  0  0  0  0  0  0  0
  1  2  1  0
  1 21  1  0
  1 22  1  0
  1 23  1  0
  2  3  1  0
  2 24  1  0
  2 25  1  0
  3  4  1  0
  4 20  2  0
  4  5  1  0
  5  6  2  0
  5 26  1  0
  6  7  1  0
  6 27  1  0
  7  8  1  0
  7 19  2  0
  8  9  2  3
  9 18  1  0
  9 10  1  0
 10 11  1  0
 10 28  1  0
 10 29  1  0
 11 12  1  0
 11 30  1  0
 11 31  1  0
 12 13  1  0
 12 32  1  0
 12 33  1  0
 13 18  2  0
 13 14  1  0
 14 15  2  0
 14 34  1  0
 15 16  1  0
 15 35  1  0
 16 17  2  0
 16 36  1  0
 17 18  1  0
 19 20  1  0
 19 37  1  0
 20 38  1  0
M  END
>  <i_m_ct_stereo_status>  (384) 
1

>  <s_m_source_file>  (384) 
/var/tmp/pbs.5076255.sched01/tmpxe1g82q3/12669a6jj4p.sdf

>  <i_m_source_file_index>  (384) 
25

>  <i_lp_mmshare_version>  (384) 
48012

>  <i_f3d_flags>  (384) 
0

>  <s_epik_input>  (384) 
W0NIM11bQ0gyXU9jMVtjSF1bY0hdYyhbY0hdW2NIXTEpL049QyhcW0NIMl1bQ0gyXVtDSDJdMiljKGMyMyluW2NIXVtjSF1bY0hdMw==

>  <s_epik_cmdline>  (384) 
J2VwaWtfcHl0aG9uJywgJy1waHQnLCAnMi4wJywgJy1waCcsICc3LjAnLCAnLXRuJywgJzgnLCAnLW1hJywgJzIwMCcsICctaW1hZScsICc8aW5maWxlLm1hZT4nLCAnLW9tYWUnLCAnPG91dGZpbGUubWFlPic=

>  <r_lp_tautomer_probability>  (384) 
0.4999

>  <r_epik_Ionization_Penalty>  (384) 
0.000358408

>  <r_epik_Ionization_Penalty_Charging>  (384) 
0

>  <r_epik_Ionization_Penalty_Neutral>  (384) 
0.000358408

>  <r_epik_State_Penalty>  (384) 
0.41068

>  <r_epik_Charging_Adjusted_Penalty>  (384) 
0.41068

>  <i_epik_Tot_Q>  (384) 
0

>  <i_epik_Tot_abs_Q>  (384) 
0

>  <s_epik_Chemistry_Notes>  (384) 
This compound has an imine and may undergo hydrolysis.

>  <s_lp_Force_Field>  (384) 
OPLS3e

>  <r_lp_Energy>  (384) 
46.5468

>  <b_lp_Chiralities_Consistent>  (384) 
1

>  <s_lp_Variant>  (384) 
112:0-1

>  <s_i_glide_gridfile>  (384) 
pfpi4k_grid

>  <i_i_glide_lignum>  (384) 
25

>  <i_i_glide_rotatable_bonds>  (384) 
3

>  <r_i_docking_score>  (384) 
-3.07583

>  <r_i_glide_ligand_efficiency>  (384) 
-0.153792

>  <r_i_glide_ligand_efficiency_sa>  (384) 
-0.417455

>  <r_i_glide_ligand_efficiency_ln>  (384) 
-0.76978

>  <r_i_glide_gscore>  (384) 
-3.07583

>  <r_i_glide_lipo>  (384) 
-0.227227

>  <r_i_glide_hbond>  (384) 
-0.104628

>  <r_i_glide_metal>  (384) 
-0

>  <r_i_glide_rewards>  (384) 
-1.59315

>  <r_i_glide_evdw>  (384) 
-25.0324

>  <r_i_glide_ecoul>  (384) 
-2.54501

>  <r_i_glide_erotb>  (384) 
0.502206

>  <r_i_glide_esite>  (384) 
-0.0196608

>  <r_i_glide_emodel>  (384) 
-33.3448

>  <r_i_glide_energy>  (384) 
-27.5774

>  <r_i_glide_einternal>  (384) 
0.611072

>  <r_i_glide_intrahb_reward>  (384) 
-0

>  <i_i_glide_confnum>  (384) 
1

>  <i_i_glide_posenum>  (384) 
15

>  <r_i_glide_eff_state_penalty>  (384) 
0

>  <ligand_id>  (384) 
112

>  <original_smiles>  (384) 
CCOc1ccc(N=C2CCCc3cccnc32)cc1

>  <smiles>  (384) 
[H]c1nc2c(c([H])c1[H])C([H])([H])C([H])([H])C([H])([H])C2=Nc1c([H])c([H])c(OC([H])([H])C([H])([H])[H])c([H])c1[H]

$$$$
112:0:1
     RDKit          3D

 38 40  0  0  1  0  0  0  0  0999 V2000
    8.3204   -2.5807   -0.0879 C   0  0  0  0  0  0  0  0  0  0  0  0
    7.2093   -1.6847    0.4816 C   0  0  0  0  0  0  0  0  0  0  0  0
    6.0180   -1.8625   -0.2781 O   0  0  0  0  0  0  0  0  0  0  0  0
    5.0848   -2.7962    0.1254 C   0  0  0  0  0  0  0  0  0  0  0  0
    3.9445   -2.9683   -0.6980 C   0  0  0  0  0  0  0  0  0  0  0  0
    2.9304   -3.8913   -0.3425 C   0  0  0  0  0  0  0  0  0  0  0  0
    3.0354   -4.6538    0.8342 C   0  0  0  0  0  0  0  0  0  0  0  0
    2.0066   -5.5462    1.1570 N   0  0  0  0  0  0  0  0  0  0  0  0
    2.1966   -6.7225    1.6322 C   0  0  0  0  0  0  0  0  0  0  0  0
    3.5677   -7.3815    1.8132 C   0  0  0  0  0  0  0  0  0  0  0  0
    3.5686   -8.8926    1.6011 C   0  0  0  0  0  0  0  0  0  0  0  0
    2.5250   -9.6154    2.4575 C   0  0  0  0  0  0  0  0  0  0  0  0
    1.1730   -8.9116    2.4745 C   0  0  0  0  0  0  0  0  0  0  0  0
    0.0380   -9.6266    2.8912 C   0  0  0  0  0  0  0  0  0  0  0  0
   -1.2071   -8.9795    2.8991 C   0  0  0  0  0  0  0  0  0  0  0  0
   -1.2646   -7.6422    2.4841 C   0  0  0  0  0  0  0  0  0  0  0  0
   -0.1869   -6.9429    2.0815 N   0  0  0  0  0  0  0  0  0  0  0  0
    1.0285   -7.5487    2.0624 C   0  0  0  0  0  0  0  0  0  0  0  0
    4.1417   -4.4390    1.6812 C   0  0  0  0  0  0  0  0  0  0  0  0
    5.1765   -3.5634    1.3153 C   0  0  0  0  0  0  0  0  0  0  0  0
    9.2468   -2.4560    0.4737 H   0  0  0  0  0  0  0  0  0  0  0  0
    8.5395   -2.3334   -1.1291 H   0  0  0  0  0  0  0  0  0  0  0  0
    8.0492   -3.6375   -0.0568 H   0  0  0  0  0  0  0  0  0  0  0  0
    7.0722   -1.8077    1.5519 H   0  0  0  0  0  0  0  0  0  0  0  0
    7.5029   -0.6447    0.3967 H   0  0  0  0  0  0  0  0  0  0  0  0
    3.8397   -2.3910   -1.6088 H   0  0  0  0  0  0  0  0  0  0  0  0
    2.0749   -4.0087   -0.9969 H   0  0  0  0  0  0  0  0  0  0  0  0
    4.3103   -6.9962    1.1221 H   0  0  0  0  0  0  0  0  0  0  0  0
    3.9114   -7.1788    2.8248 H   0  0  0  0  0  0  0  0  0  0  0  0
    3.3830   -9.0972    0.5437 H   0  0  0  0  0  0  0  0  0  0  0  0
    4.5651   -9.2932    1.8072 H   0  0  0  0  0  0  0  0  0  0  0  0
    2.4235  -10.6399    2.0913 H   0  0  0  0  0  0  0  0  0  0  0  0
    2.8886   -9.6927    3.4823 H   0  0  0  0  0  0  0  0  0  0  0  0
    0.1177  -10.6565    3.2104 H   0  0  0  0  0  0  0  0  0  0  0  0
   -2.0935   -9.4872    3.2379 H   0  0  0  0  0  0  0  0  0  0  0  0
   -2.1993   -7.1012    2.4902 H   0  0  0  0  0  0  0  0  0  0  0  0
    4.2475   -4.9519    2.6205 H   0  0  0  0  0  0  0  0  0  0  0  0
    6.0077   -3.5252    1.9982 H   0  0  0  0  0  0  0  0  0  0  0  0
  1  2  1  0
  1 21  1  0
  1 22  1  0
  1 23  1  0
  2  3  1  0
  2 24  1  0
  2 25  1  0
  3  4  1  0
  4 20  2  0
  4  5  1  0
  5  6  2  0
  5 26  1  0
  6  7  1  0
  6 27  1  0
  7  8  1  0
  7 19  2  0
  8  9  2  3
  9 18  1  0
  9 10  1  0
 10 11  1  0
 10 28  1  0
 10 29  1  0
 11 12  1  0
 11 30  1  0
 11 31  1  0
 12 13  1  0
 12 32  1  0
 12 33  1  0
 13 18  2  0
 13 14  1  0
 14 15  2  0
 14 34  1  0
 15 16  1  0
 15 35  1  0
 16 17  2  0
 16 36  1  0
 17 18  1  0
 19 20  1  0
 19 37  1  0
 20 38  1  0
M  END
>  <i_m_ct_stereo_status>  (385) 
1

>  <s_m_source_file>  (385) 
/var/tmp/pbs.5076255.sched01/tmpxe1g82q3/12669a6jj4p.sdf

>  <i_m_source_file_index>  (385) 
25

>  <i_lp_mmshare_version>  (385) 
48012

>  <i_f3d_flags>  (385) 
0

>  <s_epik_input>  (385) 
W0NIM11bQ0gyXU9jMVtjSF1bY0hdYyhbY0hdW2NIXTEpL049QyhcW0NIMl1bQ0gyXVtDSDJdMiljKGMyMyluW2NIXVtjSF1bY0hdMw==

>  <s_epik_cmdline>  (385) 
J2VwaWtfcHl0aG9uJywgJy1waHQnLCAnMi4wJywgJy1waCcsICc3LjAnLCAnLXRuJywgJzgnLCAnLW1hJywgJzIwMCcsICctaW1hZScsICc8aW5maWxlLm1hZT4nLCAnLW9tYWUnLCAnPG91dGZpbGUubWFlPic=

>  <r_lp_tautomer_probability>  (385) 
0.4999

>  <r_epik_Ionization_Penalty>  (385) 
0.000358408

>  <r_epik_Ionization_Penalty_Charging>  (385) 
0

>  <r_epik_Ionization_Penalty_Neutral>  (385) 
0.000358408

>  <r_epik_State_Penalty>  (385) 
0.41068

>  <r_epik_Charging_Adjusted_Penalty>  (385) 
0.41068

>  <i_epik_Tot_Q>  (385) 
0

>  <i_epik_Tot_abs_Q>  (385) 
0

>  <s_epik_Chemistry_Notes>  (385) 
This compound has an imine and may undergo hydrolysis.

>  <s_lp_Force_Field>  (385) 
OPLS3e

>  <r_lp_Energy>  (385) 
46.5468

>  <b_lp_Chiralities_Consistent>  (385) 
1

>  <s_lp_Variant>  (385) 
112:0-1

>  <s_i_glide_gridfile>  (385) 
pfpi4k_grid

>  <i_i_glide_lignum>  (385) 
25

>  <i_i_glide_rotatable_bonds>  (385) 
3

>  <r_i_docking_score>  (385) 
-3.05304

>  <r_i_glide_ligand_efficiency>  (385) 
-0.152652

>  <r_i_glide_ligand_efficiency_sa>  (385) 
-0.414361

>  <r_i_glide_ligand_efficiency_ln>  (385) 
-0.764074

>  <r_i_glide_gscore>  (385) 
-3.05304

>  <r_i_glide_lipo>  (385) 
-0.127739

>  <r_i_glide_hbond>  (385) 
-0.129443

>  <r_i_glide_metal>  (385) 
-0

>  <r_i_glide_rewards>  (385) 
-1.59315

>  <r_i_glide_evdw>  (385) 
-26.3434

>  <r_i_glide_ecoul>  (385) 
-2.472

>  <r_i_glide_erotb>  (385) 
0.502206

>  <r_i_glide_esite>  (385) 
-0.0169389

>  <r_i_glide_emodel>  (385) 
-34.4212

>  <r_i_glide_energy>  (385) 
-28.8154

>  <r_i_glide_einternal>  (385) 
0.530171

>  <r_i_glide_intrahb_reward>  (385) 
-0

>  <i_i_glide_confnum>  (385) 
1

>  <i_i_glide_posenum>  (385) 
8

>  <r_i_glide_eff_state_penalty>  (385) 
0

>  <ligand_id>  (385) 
112

>  <original_smiles>  (385) 
CCOc1ccc(N=C2CCCc3cccnc32)cc1

>  <smiles>  (385) 
[H]c1nc2c(c([H])c1[H])C([H])([H])C([H])([H])C([H])([H])C2=Nc1c([H])c([H])c(OC([H])([H])C([H])([H])[H])c([H])c1[H]

$$$$
112:0:2
     RDKit          3D

 38 40  0  0  1  0  0  0  0  0999 V2000
    7.9172   -2.0710    0.4692 C   0  0  0  0  0  0  0  0  0  0  0  0
    7.5737   -2.7404   -0.8785 C   0  0  0  0  0  0  0  0  0  0  0  0
    6.1991   -2.5808   -1.2248 O   0  0  0  0  0  0  0  0  0  0  0  0
    5.2594   -3.3483   -0.5797 C   0  0  0  0  0  0  0  0  0  0  0  0
    3.9224   -3.2596   -1.0286 C   0  0  0  0  0  0  0  0  0  0  0  0
    2.9181   -4.0408   -0.4252 C   0  0  0  0  0  0  0  0  0  0  0  0
    3.2189   -4.9116    0.6430 C   0  0  0  0  0  0  0  0  0  0  0  0
    2.1807   -5.6784    1.2097 N   0  0  0  0  0  0  0  0  0  0  0  0
    2.3119   -6.8779    1.6736 C   0  0  0  0  0  0  0  0  0  0  0  0
    3.6163   -7.6994    1.5922 C   0  0  0  0  0  0  0  0  0  0  0  0
    3.4016   -9.2017    1.4532 C   0  0  0  0  0  0  0  0  0  0  0  0
    2.4931   -9.7668    2.5473 C   0  0  0  0  0  0  0  0  0  0  0  0
    1.2602   -8.9112    2.7896 C   0  0  0  0  0  0  0  0  0  0  0  0
    0.1600   -9.4563    3.4775 C   0  0  0  0  0  0  0  0  0  0  0  0
   -0.9673   -8.6603    3.7209 C   0  0  0  0  0  0  0  0  0  0  0  0
   -0.9612   -7.3405    3.2632 C   0  0  0  0  0  0  0  0  0  0  0  0
    0.0753   -6.8068    2.5897 N   0  0  0  0  0  0  0  0  0  0  0  0
    1.1750   -7.5634    2.3587 C   0  0  0  0  0  0  0  0  0  0  0  0
    4.5397   -4.9295    1.1402 C   0  0  0  0  0  0  0  0  0  0  0  0
    5.5556   -4.2135    0.5047 C   0  0  0  0  0  0  0  0  0  0  0  0
    8.9788   -2.1949    0.6973 H   0  0  0  0  0  0  0  0  0  0  0  0
    7.3512   -2.4957    1.2977 H   0  0  0  0  0  0  0  0  0  0  0  0
    7.6993   -1.0017    0.4561 H   0  0  0  0  0  0  0  0  0  0  0  0
    8.1672   -2.2754   -1.6646 H   0  0  0  0  0  0  0  0  0  0  0  0
    7.8455   -3.7974   -0.8960 H   0  0  0  0  0  0  0  0  0  0  0  0
    3.6685   -2.6098   -1.8575 H   0  0  0  0  0  0  0  0  0  0  0  0
    1.9126   -3.9967   -0.8176 H   0  0  0  0  0  0  0  0  0  0  0  0
    4.2286   -7.4055    0.7392 H   0  0  0  0  0  0  0  0  0  0  0  0
    4.1877   -7.5197    2.5027 H   0  0  0  0  0  0  0  0  0  0  0  0
    2.9592   -9.4143    0.4780 H   0  0  0  0  0  0  0  0  0  0  0  0
    4.3643   -9.7165    1.4752 H   0  0  0  0  0  0  0  0  0  0  0  0
    2.1915  -10.7761    2.2651 H   0  0  0  0  0  0  0  0  0  0  0  0
    3.0451   -9.8576    3.4836 H   0  0  0  0  0  0  0  0  0  0  0  0
    0.1907  -10.4767    3.8189 H   0  0  0  0  0  0  0  0  0  0  0  0
   -1.8107   -9.0606    4.2563 H   0  0  0  0  0  0  0  0  0  0  0  0
   -1.8077   -6.6927    3.4470 H   0  0  0  0  0  0  0  0  0  0  0  0
    4.8175   -5.4954    2.0129 H   0  0  0  0  0  0  0  0  0  0  0  0
    6.5550   -4.3478    0.8773 H   0  0  0  0  0  0  0  0  0  0  0  0
  1  2  1  0
  1 21  1  0
  1 22  1  0
  1 23  1  0
  2  3  1  0
  2 24  1  0
  2 25  1  0
  3  4  1  0
  4 20  2  0
  4  5  1  0
  5  6  2  0
  5 26  1  0
  6  7  1  0
  6 27  1  0
  7  8  1  0
  7 19  2  0
  8  9  2  3
  9 18  1  0
  9 10  1  0
 10 11  1  0
 10 28  1  0
 10 29  1  0
 11 12  1  0
 11 30  1  0
 11 31  1  0
 12 13  1  0
 12 32  1  0
 12 33  1  0
 13 18  2  0
 13 14  1  0
 14 15  2  0
 14 34  1  0
 15 16  1  0
 15 35  1  0
 16 17  2  0
 16 36  1  0
 17 18  1  0
 19 20  1  0
 19 37  1  0
 20 38  1  0
M  END
>  <i_m_ct_stereo_status>  (386) 
1

>  <s_m_source_file>  (386) 
/var/tmp/pbs.5076255.sched01/tmpxe1g82q3/12669a6jj4p.sdf

>  <i_m_source_file_index>  (386) 
25

>  <i_lp_mmshare_version>  (386) 
48012

>  <i_f3d_flags>  (386) 
0

>  <s_epik_input>  (386) 
W0NIM11bQ0gyXU9jMVtjSF1bY0hdYyhbY0hdW2NIXTEpL049QyhcW0NIMl1bQ0gyXVtDSDJdMiljKGMyMyluW2NIXVtjSF1bY0hdMw==

>  <s_epik_cmdline>  (386) 
J2VwaWtfcHl0aG9uJywgJy1waHQnLCAnMi4wJywgJy1waCcsICc3LjAnLCAnLXRuJywgJzgnLCAnLW1hJywgJzIwMCcsICctaW1hZScsICc8aW5maWxlLm1hZT4nLCAnLW9tYWUnLCAnPG91dGZpbGUubWFlPic=

>  <r_lp_tautomer_probability>  (386) 
0.4999

>  <r_epik_Ionization_Penalty>  (386) 
0.000358408

>  <r_epik_Ionization_Penalty_Charging>  (386) 
0

>  <r_epik_Ionization_Penalty_Neutral>  (386) 
0.000358408

>  <r_epik_State_Penalty>  (386) 
0.41068

>  <r_epik_Charging_Adjusted_Penalty>  (386) 
0.41068

>  <i_epik_Tot_Q>  (386) 
0

>  <i_epik_Tot_abs_Q>  (386) 
0

>  <s_epik_Chemistry_Notes>  (386) 
This compound has an imine and may undergo hydrolysis.

>  <s_lp_Force_Field>  (386) 
OPLS3e

>  <r_lp_Energy>  (386) 
46.5468

>  <b_lp_Chiralities_Consistent>  (386) 
1

>  <s_lp_Variant>  (386) 
112:0-1

>  <s_i_glide_gridfile>  (386) 
pfpi4k_grid

>  <i_i_glide_lignum>  (386) 
25

>  <i_i_glide_rotatable_bonds>  (386) 
3

>  <r_i_docking_score>  (386) 
-3.02545

>  <r_i_glide_ligand_efficiency>  (386) 
-0.151272

>  <r_i_glide_ligand_efficiency_sa>  (386) 
-0.410617

>  <r_i_glide_ligand_efficiency_ln>  (386) 
-0.75717

>  <r_i_glide_gscore>  (386) 
-3.02545

>  <r_i_glide_lipo>  (386) 
-0.290534

>  <r_i_glide_hbond>  (386) 
-0.07575

>  <r_i_glide_metal>  (386) 
-0

>  <r_i_glide_rewards>  (386) 
-1.59315

>  <r_i_glide_evdw>  (386) 
-26.0796

>  <r_i_glide_ecoul>  (386) 
-1.68021

>  <r_i_glide_erotb>  (386) 
0.502206

>  <r_i_glide_esite>  (386) 
-0.0122089

>  <r_i_glide_emodel>  (386) 
-32.735

>  <r_i_glide_energy>  (386) 
-27.7598

>  <r_i_glide_einternal>  (386) 
0.78992

>  <r_i_glide_intrahb_reward>  (386) 
-0

>  <i_i_glide_confnum>  (386) 
1

>  <i_i_glide_posenum>  (386) 
33

>  <r_i_glide_eff_state_penalty>  (386) 
0

>  <ligand_id>  (386) 
112

>  <original_smiles>  (386) 
CCOc1ccc(N=C2CCCc3cccnc32)cc1

>  <smiles>  (386) 
[H]c1nc2c(c([H])c1[H])C([H])([H])C([H])([H])C([H])([H])C2=Nc1c([H])c([H])c(OC([H])([H])C([H])([H])[H])c([H])c1[H]

$$$$
112:1:0
     RDKit          3D

 38 40  0  0  1  0  0  0  0  0999 V2000
    3.3950    0.4538   -5.8554 C   0  0  0  0  0  0  0  0  0  0  0  0
    3.0545   -0.3263   -4.5860 C   0  0  0  0  0  0  0  0  0  0  0  0
    4.0894   -1.2720   -4.3560 O   0  0  0  0  0  0  0  0  0  0  0  0
    3.9820   -2.0911   -3.2716 C   0  0  0  0  0  0  0  0  0  0  0  0
    3.0156   -1.9945   -2.2553 C   0  0  0  0  0  0  0  0  0  0  0  0
    3.0008   -2.8542   -1.1455 C   0  0  0  0  0  0  0  0  0  0  0  0
    3.9838   -3.8742   -1.0160 C   0  0  0  0  0  0  0  0  0  0  0  0
    4.0151   -4.7536    0.0869 N   0  0  0  0  0  0  0  0  0  0  0  0
    5.0449   -5.0240    0.8258 C   0  0  0  0  0  0  0  0  0  0  0  0
    4.9088   -6.1638    1.8636 C   0  0  0  0  0  0  0  0  0  0  0  0
    5.8836   -6.0488    3.0483 C   0  0  0  0  0  0  0  0  0  0  0  0
    7.3555   -5.9115    2.6125 C   0  0  0  0  0  0  0  0  0  0  0  0
    7.5548   -4.9004    1.4871 C   0  0  0  0  0  0  0  0  0  0  0  0
    8.8394   -4.4073    1.1613 C   0  0  0  0  0  0  0  0  0  0  0  0
    8.9806   -3.4708    0.1243 C   0  0  0  0  0  0  0  0  0  0  0  0
    7.8092   -3.0157   -0.4838 C   0  0  0  0  0  0  0  0  0  0  0  0
    6.5970   -3.3919   -0.0839 N   0  0  0  0  0  0  0  0  0  0  0  0
    6.4202   -4.4168    0.7577 C   0  0  0  0  0  0  0  0  0  0  0  0
    4.8838   -3.9998   -2.0950 C   0  0  0  0  0  0  0  0  0  0  0  0
    4.9519   -3.0916   -3.1472 C   0  0  0  0  0  0  0  0  0  0  0  0
    2.6366    1.2144   -6.0599 H   0  0  0  0  0  0  0  0  0  0  0  0
    3.4584   -0.2141   -6.7176 H   0  0  0  0  0  0  0  0  0  0  0  0
    4.3551    0.9487   -5.7292 H   0  0  0  0  0  0  0  0  0  0  0  0
    2.9819    0.3604   -3.7441 H   0  0  0  0  0  0  0  0  0  0  0  0
    2.0974   -0.8310   -4.7072 H   0  0  0  0  0  0  0  0  0  0  0  0
    2.2611   -1.2421   -2.3284 H   0  0  0  0  0  0  0  0  0  0  0  0
    2.2653   -2.7218   -0.3704 H   0  0  0  0  0  0  0  0  0  0  0  0
    3.8779   -6.2205    2.2229 H   0  0  0  0  0  0  0  0  0  0  0  0
    5.0879   -7.1163    1.3609 H   0  0  0  0  0  0  0  0  0  0  0  0
    5.5878   -5.1759    3.6358 H   0  0  0  0  0  0  0  0  0  0  0  0
    5.7602   -6.9023    3.7265 H   0  0  0  0  0  0  0  0  0  0  0  0
    7.9382   -5.5810    3.4786 H   0  0  0  0  0  0  0  0  0  0  0  0
    7.7624   -6.8989    2.3532 H   0  0  0  0  0  0  0  0  0  0  0  0
    9.7194   -4.7174    1.7579 H   0  0  0  0  0  0  0  0  0  0  0  0
    9.9215   -3.0554   -0.1910 H   0  0  0  0  0  0  0  0  0  0  0  0
    7.8290   -2.3525   -1.3253 H   0  0  0  0  0  0  0  0  0  0  0  0
    5.6519   -4.7250   -2.0453 H   0  0  0  0  0  0  0  0  0  0  0  0
    5.7461   -3.1802   -3.8535 H   0  0  0  0  0  0  0  0  0  0  0  0
  1  2  1  0
  1 21  1  0
  1 22  1  0
  1 23  1  0
  2  3  1  0
  2 24  1  0
  2 25  1  0
  3  4  1  0
  4 20  2  0
  4  5  1  0
  5  6  2  0
  5 26  1  0
  6  7  1  0
  6 27  1  0
  7  8  1  0
  7 19  2  0
  8  9  2  3
  9 18  1  0
  9 10  1  0
 10 11  1  0
 10 28  1  0
 10 29  1  0
 11 12  1  0
 11 30  1  0
 11 31  1  0
 12 13  1  0
 12 32  1  0
 12 33  1  0
 13 18  2  0
 13 14  1  0
 14 15  2  0
 14 34  1  0
 15 16  1  0
 15 35  1  0
 16 17  2  0
 16 36  1  0
 17 18  1  0
 19 20  1  0
 19 37  1  0
 20 38  1  0
M  END
>  <i_m_ct_stereo_status>  (387) 
1

>  <s_m_source_file>  (387) 
/var/tmp/pbs.5076255.sched01/tmpxe1g82q3/12669a6jj4p.sdf

>  <i_m_source_file_index>  (387) 
26

>  <i_lp_mmshare_version>  (387) 
48012

>  <i_f3d_flags>  (387) 
0

>  <s_epik_input>  (387) 
W0NIM11bQ0gyXU9jMVtjSF1bY0hdYyhbY0hdW2NIXTEpL049QyhcW0NIMl1bQ0gyXVtDSDJdMiljKGMyMyluW2NIXVtjSF1bY0hdMw==

>  <s_epik_cmdline>  (387) 
J2VwaWtfcHl0aG9uJywgJy1waHQnLCAnMi4wJywgJy1waCcsICc3LjAnLCAnLXRuJywgJzgnLCAnLW1hJywgJzIwMCcsICctaW1hZScsICc8aW5maWxlLm1hZT4nLCAnLW9tYWUnLCAnPG91dGZpbGUubWFlPic=

>  <r_lp_tautomer_probability>  (387) 
0.4999

>  <r_epik_Ionization_Penalty>  (387) 
0.000358408

>  <r_epik_Ionization_Penalty_Charging>  (387) 
0

>  <r_epik_Ionization_Penalty_Neutral>  (387) 
0.000358408

>  <r_epik_State_Penalty>  (387) 
0.41068

>  <r_epik_Charging_Adjusted_Penalty>  (387) 
0.41068

>  <i_epik_Tot_Q>  (387) 
0

>  <i_epik_Tot_abs_Q>  (387) 
0

>  <s_epik_Chemistry_Notes>  (387) 
This compound has an imine and may undergo hydrolysis.

>  <s_lp_Force_Field>  (387) 
OPLS3e

>  <r_lp_Energy>  (387) 
50.4221

>  <b_lp_Chiralities_Consistent>  (387) 
1

>  <s_lp_Variant>  (387) 
112:0-2

>  <s_i_glide_gridfile>  (387) 
pfpi4k_grid

>  <i_i_glide_lignum>  (387) 
26

>  <i_i_glide_rotatable_bonds>  (387) 
3

>  <r_i_docking_score>  (387) 
-4.04903

>  <r_i_glide_ligand_efficiency>  (387) 
-0.202452

>  <r_i_glide_ligand_efficiency_sa>  (387) 
-0.549539

>  <r_i_glide_ligand_efficiency_ln>  (387) 
-1.01334

>  <r_i_glide_gscore>  (387) 
-4.04903

>  <r_i_glide_lipo>  (387) 
-1.28337

>  <r_i_glide_hbond>  (387) 
-0.249491

>  <r_i_glide_metal>  (387) 
-0

>  <r_i_glide_rewards>  (387) 
-1.67886

>  <r_i_glide_evdw>  (387) 
-24.472

>  <r_i_glide_ecoul>  (387) 
-0.772819

>  <r_i_glide_erotb>  (387) 
0.502206

>  <r_i_glide_esite>  (387) 
0

>  <r_i_glide_emodel>  (387) 
-29.6756

>  <r_i_glide_energy>  (387) 
-25.2448

>  <r_i_glide_einternal>  (387) 
0.5491

>  <r_i_glide_intrahb_reward>  (387) 
-0

>  <i_i_glide_confnum>  (387) 
1

>  <i_i_glide_posenum>  (387) 
24

>  <r_i_glide_eff_state_penalty>  (387) 
0

>  <ligand_id>  (387) 
112

>  <original_smiles>  (387) 
CCOc1ccc(N=C2CCCc3cccnc32)cc1

>  <smiles>  (387) 
[H]c1nc2c(c([H])c1[H])C([H])([H])C([H])([H])C([H])([H])C2=Nc1c([H])c([H])c(OC([H])([H])C([H])([H])[H])c([H])c1[H]

$$$$
112:1:1
     RDKit          3D

 38 40  0  0  1  0  0  0  0  0999 V2000
    2.7152    1.6182   -5.2853 C   0  0  0  0  0  0  0  0  0  0  0  0
    3.7993    0.7841   -4.6209 C   0  0  0  0  0  0  0  0  0  0  0  0
    3.4700   -0.5980   -4.7022 O   0  0  0  0  0  0  0  0  0  0  0  0
    3.4095   -1.3311   -3.5169 C   0  0  0  0  0  0  0  0  0  0  0  0
    4.1120   -0.9974   -2.3561 C   0  0  0  0  0  0  0  0  0  0  0  0
    3.9427   -1.7381   -1.1762 C   0  0  0  0  0  0  0  0  0  0  0  0
    3.2184   -2.9569   -1.1754 C   0  0  0  0  0  0  0  0  0  0  0  0
    3.2472   -3.8703   -0.0877 N   0  0  0  0  0  0  0  0  0  0  0  0
    4.3036   -4.4064    0.4456 C   0  0  0  0  0  0  0  0  0  0  0  0
    4.0932   -5.4042    1.6000 C   0  0  0  0  0  0  0  0  0  0  0  0
    5.1923   -5.3813    2.6867 C   0  0  0  0  0  0  0  0  0  0  0  0
    6.6283   -5.4988    2.1303 C   0  0  0  0  0  0  0  0  0  0  0  0
    6.8523   -4.6235    0.8793 C   0  0  0  0  0  0  0  0  0  0  0  0
    8.2009   -4.3233    0.4741 C   0  0  0  0  0  0  0  0  0  0  0  0
    8.3587   -3.4785   -0.6538 C   0  0  0  0  0  0  0  0  0  0  0  0
    7.1992   -3.0815   -1.3447 C   0  0  0  0  0  0  0  0  0  0  0  0
    5.9831   -3.4904   -1.0491 N   0  0  0  0  0  0  0  0  0  0  0  0
    5.7450   -4.1776    0.0744 C   0  0  0  0  0  0  0  0  0  0  0  0
    2.4862   -3.2655   -2.3502 C   0  0  0  0  0  0  0  0  0  0  0  0
    2.5930   -2.4704   -3.5110 C   0  0  0  0  0  0  0  0  0  0  0  0
    2.9837    2.6743   -5.2370 H   0  0  0  0  0  0  0  0  0  0  0  0
    1.7566    1.4751   -4.7848 H   0  0  0  0  0  0  0  0  0  0  0  0
    2.6190    1.3371   -6.3282 H   0  0  0  0  0  0  0  0  0  0  0  0
    4.7334    0.9468   -5.1481 H   0  0  0  0  0  0  0  0  0  0  0  0
    3.9248    1.1868   -3.6219 H   0  0  0  0  0  0  0  0  0  0  0  0
    4.8436   -0.2059   -2.3590 H   0  0  0  0  0  0  0  0  0  0  0  0
    4.5261   -1.4244   -0.3095 H   0  0  0  0  0  0  0  0  0  0  0  0
    3.1102   -5.2685    2.0667 H   0  0  0  0  0  0  0  0  0  0  0  0
    4.0702   -6.3998    1.1568 H   0  0  0  0  0  0  0  0  0  0  0  0
    5.1006   -4.4528    3.2487 H   0  0  0  0  0  0  0  0  0  0  0  0
    5.0121   -6.1769    3.4221 H   0  0  0  0  0  0  0  0  0  0  0  0
    7.3442   -5.2466    2.9140 H   0  0  0  0  0  0  0  0  0  0  0  0
    6.8308   -6.5429    1.8745 H   0  0  0  0  0  0  0  0  0  0  0  0
    9.0600   -4.7458    0.9930 H   0  0  0  0  0  0  0  0  0  0  0  0
    9.3487   -3.1807   -1.0281 H   0  0  0  0  0  0  0  0  0  0  0  0
    7.2524   -2.3764   -2.1436 H   0  0  0  0  0  0  0  0  0  0  0  0
    1.9072   -4.1762   -2.3845 H   0  0  0  0  0  0  0  0  0  0  0  0
    2.0106   -2.7427   -4.3663 H   0  0  0  0  0  0  0  0  0  0  0  0
  1  2  1  0
  1 21  1  0
  1 22  1  0
  1 23  1  0
  2  3  1  0
  2 24  1  0
  2 25  1  0
  3  4  1  0
  4 20  2  0
  4  5  1  0
  5  6  2  0
  5 26  1  0
  6  7  1  0
  6 27  1  0
  7  8  1  0
  7 19  2  0
  8  9  2  3
  9 18  1  0
  9 10  1  0
 10 11  1  0
 10 28  1  0
 10 29  1  0
 11 12  1  0
 11 30  1  0
 11 31  1  0
 12 13  1  0
 12 32  1  0
 12 33  1  0
 13 18  2  0
 13 14  1  0
 14 15  2  0
 14 34  1  0
 15 16  1  0
 15 35  1  0
 16 17  2  0
 16 36  1  0
 17 18  1  0
 19 20  1  0
 19 37  1  0
 20 38  1  0
M  END
>  <i_m_ct_stereo_status>  (388) 
1

>  <s_m_source_file>  (388) 
/var/tmp/pbs.5076255.sched01/tmpxe1g82q3/12669a6jj4p.sdf

>  <i_m_source_file_index>  (388) 
26

>  <i_lp_mmshare_version>  (388) 
48012

>  <i_f3d_flags>  (388) 
0

>  <s_epik_input>  (388) 
W0NIM11bQ0gyXU9jMVtjSF1bY0hdYyhbY0hdW2NIXTEpL049QyhcW0NIMl1bQ0gyXVtDSDJdMiljKGMyMyluW2NIXVtjSF1bY0hdMw==

>  <s_epik_cmdline>  (388) 
J2VwaWtfcHl0aG9uJywgJy1waHQnLCAnMi4wJywgJy1waCcsICc3LjAnLCAnLXRuJywgJzgnLCAnLW1hJywgJzIwMCcsICctaW1hZScsICc8aW5maWxlLm1hZT4nLCAnLW9tYWUnLCAnPG91dGZpbGUubWFlPic=

>  <r_lp_tautomer_probability>  (388) 
0.4999

>  <r_epik_Ionization_Penalty>  (388) 
0.000358408

>  <r_epik_Ionization_Penalty_Charging>  (388) 
0

>  <r_epik_Ionization_Penalty_Neutral>  (388) 
0.000358408

>  <r_epik_State_Penalty>  (388) 
0.41068

>  <r_epik_Charging_Adjusted_Penalty>  (388) 
0.41068

>  <i_epik_Tot_Q>  (388) 
0

>  <i_epik_Tot_abs_Q>  (388) 
0

>  <s_epik_Chemistry_Notes>  (388) 
This compound has an imine and may undergo hydrolysis.

>  <s_lp_Force_Field>  (388) 
OPLS3e

>  <r_lp_Energy>  (388) 
50.4221

>  <b_lp_Chiralities_Consistent>  (388) 
1

>  <s_lp_Variant>  (388) 
112:0-2

>  <s_i_glide_gridfile>  (388) 
pfpi4k_grid

>  <i_i_glide_lignum>  (388) 
26

>  <i_i_glide_rotatable_bonds>  (388) 
3

>  <r_i_docking_score>  (388) 
-3.75414

>  <r_i_glide_ligand_efficiency>  (388) 
-0.187707

>  <r_i_glide_ligand_efficiency_sa>  (388) 
-0.509515

>  <r_i_glide_ligand_efficiency_ln>  (388) 
-0.939537

>  <r_i_glide_gscore>  (388) 
-3.75414

>  <r_i_glide_lipo>  (388) 
-1.10563

>  <r_i_glide_hbond>  (388) 
-0.0100124

>  <r_i_glide_metal>  (388) 
-0

>  <r_i_glide_rewards>  (388) 
-1.6389

>  <r_i_glide_evdw>  (388) 
-29.0817

>  <r_i_glide_ecoul>  (388) 
-0.318154

>  <r_i_glide_erotb>  (388) 
0.502206

>  <r_i_glide_esite>  (388) 
0

>  <r_i_glide_emodel>  (388) 
-31.7598

>  <r_i_glide_energy>  (388) 
-29.3998

>  <r_i_glide_einternal>  (388) 
3.55975

>  <r_i_glide_intrahb_reward>  (388) 
-0

>  <i_i_glide_confnum>  (388) 
4

>  <i_i_glide_posenum>  (388) 
22

>  <r_i_glide_eff_state_penalty>  (388) 
0

>  <ligand_id>  (388) 
112

>  <original_smiles>  (388) 
CCOc1ccc(N=C2CCCc3cccnc32)cc1

>  <smiles>  (388) 
[H]c1nc2c(c([H])c1[H])C([H])([H])C([H])([H])C([H])([H])C2=Nc1c([H])c([H])c(OC([H])([H])C([H])([H])[H])c([H])c1[H]

$$$$
112:1:2
     RDKit          3D

 38 40  0  0  1  0  0  0  0  0999 V2000
    2.6454    0.3502   -5.3372 C   0  0  0  0  0  0  0  0  0  0  0  0
    3.7455    0.1723   -4.2912 C   0  0  0  0  0  0  0  0  0  0  0  0
    4.1690   -1.1825   -4.3093 O   0  0  0  0  0  0  0  0  0  0  0  0
    3.8234   -1.9604   -3.2230 C   0  0  0  0  0  0  0  0  0  0  0  0
    2.6249   -2.6621   -3.2069 C   0  0  0  0  0  0  0  0  0  0  0  0
    2.2912   -3.4423   -2.0694 C   0  0  0  0  0  0  0  0  0  0  0  0
    3.2222   -3.6196   -0.9985 C   0  0  0  0  0  0  0  0  0  0  0  0
    2.9158   -4.3977    0.1387 N   0  0  0  0  0  0  0  0  0  0  0  0
    2.8258   -3.9649    1.3705 C   0  0  0  0  0  0  0  0  0  0  0  0
    2.6442   -5.0238    2.4678 C   0  0  0  0  0  0  0  0  0  0  0  0
    1.9962   -4.4862    3.7618 C   0  0  0  0  0  0  0  0  0  0  0  0
    2.6973   -3.2417    4.3471 C   0  0  0  0  0  0  0  0  0  0  0  0
    3.0020   -2.1923    3.2745 C   0  0  0  0  0  0  0  0  0  0  0  0
    3.3511   -0.8568    3.6872 C   0  0  0  0  0  0  0  0  0  0  0  0
    3.6259    0.0865    2.6775 C   0  0  0  0  0  0  0  0  0  0  0  0
    3.4766   -0.3437    1.3406 C   0  0  0  0  0  0  0  0  0  0  0  0
    3.1067   -1.5702    0.9543 N   0  0  0  0  0  0  0  0  0  0  0  0
    2.9415   -2.5432    1.8755 C   0  0  0  0  0  0  0  0  0  0  0  0
    4.4501   -2.9356   -1.0807 C   0  0  0  0  0  0  0  0  0  0  0  0
    4.7159   -2.0638   -2.1553 C   0  0  0  0  0  0  0  0  0  0  0  0
    2.3120    1.3875   -5.3899 H   0  0  0  0  0  0  0  0  0  0  0  0
    1.7915   -0.2771   -5.0957 H   0  0  0  0  0  0  0  0  0  0  0  0
    3.0160    0.0502   -6.3185 H   0  0  0  0  0  0  0  0  0  0  0  0
    4.5842    0.8168   -4.5726 H   0  0  0  0  0  0  0  0  0  0  0  0
    3.4269    0.4969   -3.3036 H   0  0  0  0  0  0  0  0  0  0  0  0
    1.9628   -2.5937   -4.0417 H   0  0  0  0  0  0  0  0  0  0  0  0
    1.3517   -3.9792   -2.0721 H   0  0  0  0  0  0  0  0  0  0  0  0
    2.0875   -5.8932    2.1064 H   0  0  0  0  0  0  0  0  0  0  0  0
    3.6309   -5.4115    2.7286 H   0  0  0  0  0  0  0  0  0  0  0  0
    0.9542   -4.2472    3.5411 H   0  0  0  0  0  0  0  0  0  0  0  0
    1.9543   -5.2802    4.5207 H   0  0  0  0  0  0  0  0  0  0  0  0
    2.0384   -2.8018    5.0933 H   0  0  0  0  0  0  0  0  0  0  0  0
    3.5943   -3.5451    4.8971 H   0  0  0  0  0  0  0  0  0  0  0  0
    3.3667   -0.5890    4.7435 H   0  0  0  0  0  0  0  0  0  0  0  0
    3.9182    1.1113    2.9157 H   0  0  0  0  0  0  0  0  0  0  0  0
    3.7490    0.3113    0.5301 H   0  0  0  0  0  0  0  0  0  0  0  0
    5.1610   -3.0384   -0.2905 H   0  0  0  0  0  0  0  0  0  0  0  0
    5.5963   -1.4503   -2.1092 H   0  0  0  0  0  0  0  0  0  0  0  0
  1  2  1  0
  1 21  1  0
  1 22  1  0
  1 23  1  0
  2  3  1  0
  2 24  1  0
  2 25  1  0
  3  4  1  0
  4 20  2  0
  4  5  1  0
  5  6  2  0
  5 26  1  0
  6  7  1  0
  6 27  1  0
  7  8  1  0
  7 19  2  0
  8  9  2  3
  9 18  1  0
  9 10  1  0
 10 11  1  0
 10 28  1  0
 10 29  1  0
 11 12  1  0
 11 30  1  0
 11 31  1  0
 12 13  1  0
 12 32  1  0
 12 33  1  0
 13 18  2  0
 13 14  1  0
 14 15  2  0
 14 34  1  0
 15 16  1  0
 15 35  1  0
 16 17  2  0
 16 36  1  0
 17 18  1  0
 19 20  1  0
 19 37  1  0
 20 38  1  0
M  END
>  <i_m_ct_stereo_status>  (389) 
1

>  <s_m_source_file>  (389) 
/var/tmp/pbs.5076255.sched01/tmpxe1g82q3/12669a6jj4p.sdf

>  <i_m_source_file_index>  (389) 
26

>  <i_lp_mmshare_version>  (389) 
48012

>  <i_f3d_flags>  (389) 
0

>  <s_epik_input>  (389) 
W0NIM11bQ0gyXU9jMVtjSF1bY0hdYyhbY0hdW2NIXTEpL049QyhcW0NIMl1bQ0gyXVtDSDJdMiljKGMyMyluW2NIXVtjSF1bY0hdMw==

>  <s_epik_cmdline>  (389) 
J2VwaWtfcHl0aG9uJywgJy1waHQnLCAnMi4wJywgJy1waCcsICc3LjAnLCAnLXRuJywgJzgnLCAnLW1hJywgJzIwMCcsICctaW1hZScsICc8aW5maWxlLm1hZT4nLCAnLW9tYWUnLCAnPG91dGZpbGUubWFlPic=

>  <r_lp_tautomer_probability>  (389) 
0.4999

>  <r_epik_Ionization_Penalty>  (389) 
0.000358408

>  <r_epik_Ionization_Penalty_Charging>  (389) 
0

>  <r_epik_Ionization_Penalty_Neutral>  (389) 
0.000358408

>  <r_epik_State_Penalty>  (389) 
0.41068

>  <r_epik_Charging_Adjusted_Penalty>  (389) 
0.41068

>  <i_epik_Tot_Q>  (389) 
0

>  <i_epik_Tot_abs_Q>  (389) 
0

>  <s_epik_Chemistry_Notes>  (389) 
This compound has an imine and may undergo hydrolysis.

>  <s_lp_Force_Field>  (389) 
OPLS3e

>  <r_lp_Energy>  (389) 
50.4221

>  <b_lp_Chiralities_Consistent>  (389) 
1

>  <s_lp_Variant>  (389) 
112:0-2

>  <s_i_glide_gridfile>  (389) 
pfpi4k_grid

>  <i_i_glide_lignum>  (389) 
26

>  <i_i_glide_rotatable_bonds>  (389) 
3

>  <r_i_docking_score>  (389) 
-3.23363

>  <r_i_glide_ligand_efficiency>  (389) 
-0.161681

>  <r_i_glide_ligand_efficiency_sa>  (389) 
-0.438871

>  <r_i_glide_ligand_efficiency_ln>  (389) 
-0.809271

>  <r_i_glide_gscore>  (389) 
-3.23363

>  <r_i_glide_lipo>  (389) 
-0.666746

>  <r_i_glide_hbond>  (389) 
-0.181584

>  <r_i_glide_metal>  (389) 
-0

>  <r_i_glide_rewards>  (389) 
-1.59315

>  <r_i_glide_evdw>  (389) 
-25.3737

>  <r_i_glide_ecoul>  (389) 
-0.11684

>  <r_i_glide_erotb>  (389) 
0.502206

>  <r_i_glide_esite>  (389) 
-0.00814035

>  <r_i_glide_emodel>  (389) 
-25.7527

>  <r_i_glide_energy>  (389) 
-25.4906

>  <r_i_glide_einternal>  (389) 
7.46226

>  <r_i_glide_intrahb_reward>  (389) 
-0

>  <i_i_glide_confnum>  (389) 
2

>  <i_i_glide_posenum>  (389) 
16

>  <r_i_glide_eff_state_penalty>  (389) 
0

>  <ligand_id>  (389) 
112

>  <original_smiles>  (389) 
CCOc1ccc(N=C2CCCc3cccnc32)cc1

>  <smiles>  (389) 
[H]c1nc2c(c([H])c1[H])C([H])([H])C([H])([H])C([H])([H])C2=Nc1c([H])c([H])c(OC([H])([H])C([H])([H])[H])c([H])c1[H]

$$$$
113:0:0
     RDKit          3D

 29 30  0  0  1  0  0  0  0  0999 V2000
   -1.1960   -8.6826    2.4790 C   0  0  0  0  0  0  0  0  0  0  0  0
   -0.0396   -7.8114    2.0822 C   0  0  0  0  0  0  0  0  0  0  0  0
   -0.1833   -6.7568    1.2796 N   0  0  0  0  0  0  0  0  0  0  0  0
    1.0862   -6.2541    1.1104 N   0  0  0  0  0  0  0  0  0  0  0  0
    1.8943   -7.0186    1.8602 C   0  0  0  0  0  0  0  0  0  0  0  0
    3.3791   -6.7551    1.9922 C   0  0  0  0  0  0  0  0  0  0  0  0
    3.6700   -5.3605    2.5711 C   0  0  0  0  0  0  0  0  0  0  0  0
    4.1460   -6.9890    0.6811 C   0  0  0  0  0  0  0  0  0  0  0  0
    1.2337   -8.0241    2.4917 N   0  0  0  0  0  0  0  0  0  0  0  0
    1.7191   -9.0880    3.3637 C   0  0  0  0  0  0  0  0  0  0  0  0
    1.1243   -9.0388    4.7281 C   0  0  0  0  0  0  0  0  0  0  0  0
    0.9202   -8.0341    5.6404 C   0  0  0  0  0  0  0  0  0  0  0  0
    0.3164   -8.5787    6.7634 N   0  0  0  0  0  0  0  0  0  0  0  0
    0.2180   -9.8761    6.4838 C   0  0  0  0  0  0  0  0  0  0  0  0
    0.6835  -10.2200    5.2528 O   0  0  0  0  0  0  0  0  0  0  0  0
   -2.1090   -8.3355    1.9889 H   0  0  0  0  0  0  0  0  0  0  0  0
   -1.3606   -8.6425    3.5587 H   0  0  0  0  0  0  0  0  0  0  0  0
   -1.0196   -9.7216    2.1828 H   0  0  0  0  0  0  0  0  0  0  0  0
    3.8151   -7.4393    2.7171 H   0  0  0  0  0  0  0  0  0  0  0  0
    3.2057   -5.2399    3.5523 H   0  0  0  0  0  0  0  0  0  0  0  0
    3.3123   -4.5678    1.9121 H   0  0  0  0  0  0  0  0  0  0  0  0
    4.7453   -5.2243    2.7013 H   0  0  0  0  0  0  0  0  0  0  0  0
    4.0102   -8.0095    0.3207 H   0  0  0  0  0  0  0  0  0  0  0  0
    5.2137   -6.8542    0.8496 H   0  0  0  0  0  0  0  0  0  0  0  0
    3.8432   -6.2906   -0.1006 H   0  0  0  0  0  0  0  0  0  0  0  0
    1.4844  -10.0489    2.8984 H   0  0  0  0  0  0  0  0  0  0  0  0
    2.8036   -9.0640    3.4740 H   0  0  0  0  0  0  0  0  0  0  0  0
    1.1428   -6.9760    5.5823 H   0  0  0  0  0  0  0  0  0  0  0  0
   -0.2113  -10.6225    7.1373 H   0  0  0  0  0  0  0  0  0  0  0  0
  1  2  1  0
  1 16  1  0
  1 17  1  0
  1 18  1  0
  2  9  1  0
  2  3  2  0
  3  4  1  0
  4  5  2  0
  5  6  1  0
  5  9  1  0
  6  7  1  0
  6  8  1  0
  6 19  1  0
  7 20  1  0
  7 21  1  0
  7 22  1  0
  8 23  1  0
  8 24  1  0
  8 25  1  0
  9 10  1  0
 10 11  1  0
 10 26  1  0
 10 27  1  0
 11 15  1  0
 11 12  2  0
 12 13  1  0
 12 28  1  0
 13 14  2  0
 14 15  1  0
 14 29  1  0
M  END
>  <i_m_ct_stereo_status>  (390) 
1

>  <s_m_source_file>  (390) 
/var/tmp/pbs.5076255.sched01/tmpxe1g82q3/12669a6jj4p.sdf

>  <i_m_source_file_index>  (390) 
27

>  <i_lp_mmshare_version>  (390) 
48012

>  <i_f3d_flags>  (390) 
0

>  <s_epik_input>  (390) 
W0NIM11jMW5uYyhbQ0hdKFtDSDNdKVtDSDNdKW4xW0NIMl1jMltjSF1uW2NIXW8y

>  <s_epik_cmdline>  (390) 
J2VwaWtfcHl0aG9uJywgJy1waHQnLCAnMi4wJywgJy1waCcsICc3LjAnLCAnLXRuJywgJzgnLCAnLW1hJywgJzIwMCcsICctaW1hZScsICc8aW5maWxlLm1hZT4nLCAnLW9tYWUnLCAnPG91dGZpbGUubWFlPic=

>  <r_lp_tautomer_probability>  (390) 
1

>  <r_epik_Ionization_Penalty>  (390) 
0.000913021

>  <r_epik_Ionization_Penalty_Charging>  (390) 
0

>  <r_epik_Ionization_Penalty_Neutral>  (390) 
0.000913021

>  <r_epik_State_Penalty>  (390) 
0.000555418

>  <r_epik_Charging_Adjusted_Penalty>  (390) 
0.000555418

>  <i_epik_Tot_Q>  (390) 
0

>  <i_epik_Tot_abs_Q>  (390) 
0

>  <s_lp_Force_Field>  (390) 
OPLS3e

>  <r_lp_Energy>  (390) 
2.92033

>  <b_lp_Chiralities_Consistent>  (390) 
1

>  <s_lp_Variant>  (390) 
113:0-1

>  <s_i_glide_gridfile>  (390) 
pfpi4k_grid

>  <i_i_glide_lignum>  (390) 
27

>  <i_i_glide_rotatable_bonds>  (390) 
3

>  <r_i_docking_score>  (390) 
-3.52215

>  <r_i_glide_ligand_efficiency>  (390) 
-0.23481

>  <r_i_glide_ligand_efficiency_sa>  (390) 
-0.579092

>  <r_i_glide_ligand_efficiency_ln>  (390) 
-0.949867

>  <r_i_glide_gscore>  (390) 
-3.52215

>  <r_i_glide_lipo>  (390) 
-0.209987

>  <r_i_glide_hbond>  (390) 
0

>  <r_i_glide_metal>  (390) 
-0

>  <r_i_glide_rewards>  (390) 
-2.00288

>  <r_i_glide_evdw>  (390) 
-17.7147

>  <r_i_glide_ecoul>  (390) 
-5.93963

>  <r_i_glide_erotb>  (390) 
0.775793

>  <r_i_glide_esite>  (390) 
-0.308404

>  <r_i_glide_emodel>  (390) 
-29.7169

>  <r_i_glide_energy>  (390) 
-23.6543

>  <r_i_glide_einternal>  (390) 
0.457679

>  <r_i_glide_intrahb_reward>  (390) 
-0

>  <i_i_glide_confnum>  (390) 
5

>  <i_i_glide_posenum>  (390) 
1

>  <r_i_glide_eff_state_penalty>  (390) 
0

>  <ligand_id>  (390) 
113

>  <original_smiles>  (390) 
Cc1nnc(C(C)C)n1Cc1cnco1

>  <smiles>  (390) 
[H]c1nc([H])c(C([H])([H])n2c(C([H])([H])[H])nnc2C([H])(C([H])([H])[H])C([H])([H])[H])o1

$$$$
113:0:1
     RDKit          3D

 29 30  0  0  1  0  0  0  0  0999 V2000
   -1.2347   -9.3697    2.1594 C   0  0  0  0  0  0  0  0  0  0  0  0
   -0.4986   -8.3752    2.9969 C   0  0  0  0  0  0  0  0  0  0  0  0
   -0.5814   -7.0556    2.7710 N   0  0  0  0  0  0  0  0  0  0  0  0
    0.1899   -6.4892    3.7578 N   0  0  0  0  0  0  0  0  0  0  0  0
    0.6745   -7.5141    4.4880 C   0  0  0  0  0  0  0  0  0  0  0  0
    1.5562   -7.2341    5.6954 C   0  0  0  0  0  0  0  0  0  0  0  0
    3.0131   -7.7252    5.5360 C   0  0  0  0  0  0  0  0  0  0  0  0
    0.9526   -7.6781    7.0441 C   0  0  0  0  0  0  0  0  0  0  0  0
    0.2623   -8.7279    4.0573 N   0  0  0  0  0  0  0  0  0  0  0  0
    0.5416  -10.0770    4.5196 C   0  0  0  0  0  0  0  0  0  0  0  0
    1.8846  -10.5774    4.1750 C   0  0  0  0  0  0  0  0  0  0  0  0
    2.8765  -11.1709    4.9109 C   0  0  0  0  0  0  0  0  0  0  0  0
    4.0232  -11.2406    4.1027 N   0  0  0  0  0  0  0  0  0  0  0  0
    3.6459  -10.7344    2.9220 C   0  0  0  0  0  0  0  0  0  0  0  0
    2.3373  -10.3320    2.8914 O   0  0  0  0  0  0  0  0  0  0  0  0
   -1.7343   -8.8592    1.3355 H   0  0  0  0  0  0  0  0  0  0  0  0
   -1.9797   -9.8529    2.7740 H   0  0  0  0  0  0  0  0  0  0  0  0
   -0.5336  -10.0983    1.7687 H   0  0  0  0  0  0  0  0  0  0  0  0
    1.6284   -6.1399    5.7455 H   0  0  0  0  0  0  0  0  0  0  0  0
    3.4850   -7.3308    4.6066 H   0  0  0  0  0  0  0  0  0  0  0  0
    3.0445   -8.7772    5.5281 H   0  0  0  0  0  0  0  0  0  0  0  0
    3.6543   -7.4222    6.3803 H   0  0  0  0  0  0  0  0  0  0  0  0
   -0.0093   -7.1989    7.2218 H   0  0  0  0  0  0  0  0  0  0  0  0
    1.6191   -7.3955    7.8706 H   0  0  0  0  0  0  0  0  0  0  0  0
    0.8162   -8.7539    7.1447 H   0  0  0  0  0  0  0  0  0  0  0  0
    0.3719  -10.1554    5.6103 H   0  0  0  0  0  0  0  0  0  0  0  0
   -0.1975  -10.7978    4.0894 H   0  0  0  0  0  0  0  0  0  0  0  0
    2.9130  -11.4419    5.9414 H   0  0  0  0  0  0  0  0  0  0  0  0
    4.3042  -10.6106    2.0938 H   0  0  0  0  0  0  0  0  0  0  0  0
  1  2  1  0
  1 16  1  0
  1 17  1  0
  1 18  1  0
  2  9  1  0
  2  3  2  0
  3  4  1  0
  4  5  2  0
  5  6  1  0
  5  9  1  0
  6  7  1  0
  6  8  1  0
  6 19  1  0
  7 20  1  0
  7 21  1  0
  7 22  1  0
  8 23  1  0
  8 24  1  0
  8 25  1  0
  9 10  1  0
 10 11  1  0
 10 26  1  0
 10 27  1  0
 11 15  1  0
 11 12  2  0
 12 13  1  0
 12 28  1  0
 13 14  2  0
 14 15  1  0
 14 29  1  0
M  END
>  <i_m_ct_stereo_status>  (391) 
1

>  <s_m_source_file>  (391) 
/var/tmp/pbs.5076255.sched01/tmpxe1g82q3/12669a6jj4p.sdf

>  <i_m_source_file_index>  (391) 
27

>  <i_lp_mmshare_version>  (391) 
48012

>  <i_f3d_flags>  (391) 
0

>  <s_epik_input>  (391) 
W0NIM11jMW5uYyhbQ0hdKFtDSDNdKVtDSDNdKW4xW0NIMl1jMltjSF1uW2NIXW8y

>  <s_epik_cmdline>  (391) 
J2VwaWtfcHl0aG9uJywgJy1waHQnLCAnMi4wJywgJy1waCcsICc3LjAnLCAnLXRuJywgJzgnLCAnLW1hJywgJzIwMCcsICctaW1hZScsICc8aW5maWxlLm1hZT4nLCAnLW9tYWUnLCAnPG91dGZpbGUubWFlPic=

>  <r_lp_tautomer_probability>  (391) 
1

>  <r_epik_Ionization_Penalty>  (391) 
0.000913021

>  <r_epik_Ionization_Penalty_Charging>  (391) 
0

>  <r_epik_Ionization_Penalty_Neutral>  (391) 
0.000913021

>  <r_epik_State_Penalty>  (391) 
0.000555418

>  <r_epik_Charging_Adjusted_Penalty>  (391) 
0.000555418

>  <i_epik_Tot_Q>  (391) 
0

>  <i_epik_Tot_abs_Q>  (391) 
0

>  <s_lp_Force_Field>  (391) 
OPLS3e

>  <r_lp_Energy>  (391) 
2.92033

>  <b_lp_Chiralities_Consistent>  (391) 
1

>  <s_lp_Variant>  (391) 
113:0-1

>  <s_i_glide_gridfile>  (391) 
pfpi4k_grid

>  <i_i_glide_lignum>  (391) 
27

>  <i_i_glide_rotatable_bonds>  (391) 
3

>  <r_i_docking_score>  (391) 
-3.18152

>  <r_i_glide_ligand_efficiency>  (391) 
-0.212101

>  <r_i_glide_ligand_efficiency_sa>  (391) 
-0.523087

>  <r_i_glide_ligand_efficiency_ln>  (391) 
-0.858003

>  <r_i_glide_gscore>  (391) 
-3.18152

>  <r_i_glide_lipo>  (391) 
-0.225256

>  <r_i_glide_hbond>  (391) 
0

>  <r_i_glide_metal>  (391) 
-0

>  <r_i_glide_rewards>  (391) 
-2.00288

>  <r_i_glide_evdw>  (391) 
-16.1151

>  <r_i_glide_ecoul>  (391) 
-4.49812

>  <r_i_glide_erotb>  (391) 
0.775793

>  <r_i_glide_esite>  (391) 
-0.248706

>  <r_i_glide_emodel>  (391) 
-24.983

>  <r_i_glide_energy>  (391) 
-20.6132

>  <r_i_glide_einternal>  (391) 
1.85175

>  <r_i_glide_intrahb_reward>  (391) 
-0

>  <i_i_glide_confnum>  (391) 
2

>  <i_i_glide_posenum>  (391) 
6

>  <r_i_glide_eff_state_penalty>  (391) 
0

>  <ligand_id>  (391) 
113

>  <original_smiles>  (391) 
Cc1nnc(C(C)C)n1Cc1cnco1

>  <smiles>  (391) 
[H]c1nc([H])c(C([H])([H])n2c(C([H])([H])[H])nnc2C([H])(C([H])([H])[H])C([H])([H])[H])o1

$$$$
113:0:2
     RDKit          3D

 29 30  0  0  1  0  0  0  0  0999 V2000
   -1.6247   -7.7500    3.8515 C   0  0  0  0  0  0  0  0  0  0  0  0
   -0.5059   -7.2258    3.0031 C   0  0  0  0  0  0  0  0  0  0  0  0
   -0.5786   -7.1748    1.6735 N   0  0  0  0  0  0  0  0  0  0  0  0
    0.6088   -6.6166    1.2546 N   0  0  0  0  0  0  0  0  0  0  0  0
    1.3082   -6.3731    2.3677 C   0  0  0  0  0  0  0  0  0  0  0  0
    2.6669   -5.7134    2.3364 C   0  0  0  0  0  0  0  0  0  0  0  0
    2.5943   -4.2589    1.8444 C   0  0  0  0  0  0  0  0  0  0  0  0
    3.6975   -6.5226    1.5319 C   0  0  0  0  0  0  0  0  0  0  0  0
    0.6413   -6.7206    3.5021 N   0  0  0  0  0  0  0  0  0  0  0  0
    1.0119   -6.5784    4.9039 C   0  0  0  0  0  0  0  0  0  0  0  0
    0.4595   -5.3310    5.5087 C   0  0  0  0  0  0  0  0  0  0  0  0
   -0.4440   -5.1048    6.5154 C   0  0  0  0  0  0  0  0  0  0  0  0
   -0.5897   -3.7311    6.6762 N   0  0  0  0  0  0  0  0  0  0  0  0
    0.2380   -3.1998    5.7781 C   0  0  0  0  0  0  0  0  0  0  0  0
    0.8993   -4.1239    5.0262 O   0  0  0  0  0  0  0  0  0  0  0  0
   -2.4197   -8.1348    3.2097 H   0  0  0  0  0  0  0  0  0  0  0  0
   -2.0417   -6.9530    4.4711 H   0  0  0  0  0  0  0  0  0  0  0  0
   -1.2772   -8.5664    4.4883 H   0  0  0  0  0  0  0  0  0  0  0  0
    3.0507   -5.6560    3.3504 H   0  0  0  0  0  0  0  0  0  0  0  0
    1.9353   -3.6594    2.4751 H   0  0  0  0  0  0  0  0  0  0  0  0
    2.2440   -4.1984    0.8132 H   0  0  0  0  0  0  0  0  0  0  0  0
    3.5829   -3.8019    1.8804 H   0  0  0  0  0  0  0  0  0  0  0  0
    3.8005   -7.5382    1.9178 H   0  0  0  0  0  0  0  0  0  0  0  0
    4.6746   -6.0471    1.6020 H   0  0  0  0  0  0  0  0  0  0  0  0
    3.4366   -6.5776    0.4740 H   0  0  0  0  0  0  0  0  0  0  0  0
    0.6616   -7.4559    5.4583 H   0  0  0  0  0  0  0  0  0  0  0  0
    2.0939   -6.5768    5.0085 H   0  0  0  0  0  0  0  0  0  0  0  0
   -0.9831   -5.8083    7.1317 H   0  0  0  0  0  0  0  0  0  0  0  0
    0.3773   -2.1378    5.6381 H   0  0  0  0  0  0  0  0  0  0  0  0
  1  2  1  0
  1 16  1  0
  1 17  1  0
  1 18  1  0
  2  9  1  0
  2  3  2  0
  3  4  1  0
  4  5  2  0
  5  6  1  0
  5  9  1  0
  6  7  1  0
  6  8  1  0
  6 19  1  0
  7 20  1  0
  7 21  1  0
  7 22  1  0
  8 23  1  0
  8 24  1  0
  8 25  1  0
  9 10  1  0
 10 11  1  0
 10 26  1  0
 10 27  1  0
 11 15  1  0
 11 12  2  0
 12 13  1  0
 12 28  1  0
 13 14  2  0
 14 15  1  0
 14 29  1  0
M  END
>  <i_m_ct_stereo_status>  (392) 
1

>  <s_m_source_file>  (392) 
/var/tmp/pbs.5076255.sched01/tmpxe1g82q3/12669a6jj4p.sdf

>  <i_m_source_file_index>  (392) 
27

>  <i_lp_mmshare_version>  (392) 
48012

>  <i_f3d_flags>  (392) 
0

>  <s_epik_input>  (392) 
W0NIM11jMW5uYyhbQ0hdKFtDSDNdKVtDSDNdKW4xW0NIMl1jMltjSF1uW2NIXW8y

>  <s_epik_cmdline>  (392) 
J2VwaWtfcHl0aG9uJywgJy1waHQnLCAnMi4wJywgJy1waCcsICc3LjAnLCAnLXRuJywgJzgnLCAnLW1hJywgJzIwMCcsICctaW1hZScsICc8aW5maWxlLm1hZT4nLCAnLW9tYWUnLCAnPG91dGZpbGUubWFlPic=

>  <r_lp_tautomer_probability>  (392) 
1

>  <r_epik_Ionization_Penalty>  (392) 
0.000913021

>  <r_epik_Ionization_Penalty_Charging>  (392) 
0

>  <r_epik_Ionization_Penalty_Neutral>  (392) 
0.000913021

>  <r_epik_State_Penalty>  (392) 
0.000555418

>  <r_epik_Charging_Adjusted_Penalty>  (392) 
0.000555418

>  <i_epik_Tot_Q>  (392) 
0

>  <i_epik_Tot_abs_Q>  (392) 
0

>  <s_lp_Force_Field>  (392) 
OPLS3e

>  <r_lp_Energy>  (392) 
2.92033

>  <b_lp_Chiralities_Consistent>  (392) 
1

>  <s_lp_Variant>  (392) 
113:0-1

>  <s_i_glide_gridfile>  (392) 
pfpi4k_grid

>  <i_i_glide_lignum>  (392) 
27

>  <i_i_glide_rotatable_bonds>  (392) 
3

>  <r_i_docking_score>  (392) 
-2.96991

>  <r_i_glide_ligand_efficiency>  (392) 
-0.197994

>  <r_i_glide_ligand_efficiency_sa>  (392) 
-0.488295

>  <r_i_glide_ligand_efficiency_ln>  (392) 
-0.800936

>  <r_i_glide_gscore>  (392) 
-2.96991

>  <r_i_glide_lipo>  (392) 
-0.0906038

>  <r_i_glide_hbond>  (392) 
0

>  <r_i_glide_metal>  (392) 
-0

>  <r_i_glide_rewards>  (392) 
-2.00288

>  <r_i_glide_evdw>  (392) 
-16.5954

>  <r_i_glide_ecoul>  (392) 
-3.12471

>  <r_i_glide_erotb>  (392) 
0.775793

>  <r_i_glide_esite>  (392) 
-0.353746

>  <r_i_glide_emodel>  (392) 
-25.0307

>  <r_i_glide_energy>  (392) 
-19.7201

>  <r_i_glide_einternal>  (392) 
0.081351

>  <r_i_glide_intrahb_reward>  (392) 
-0

>  <i_i_glide_confnum>  (392) 
5

>  <i_i_glide_posenum>  (392) 
39

>  <r_i_glide_eff_state_penalty>  (392) 
0

>  <ligand_id>  (392) 
113

>  <original_smiles>  (392) 
Cc1nnc(C(C)C)n1Cc1cnco1

>  <smiles>  (392) 
[H]c1nc([H])c(C([H])([H])n2c(C([H])([H])[H])nnc2C([H])(C([H])([H])[H])C([H])([H])[H])o1

$$$$
114:0:0
     RDKit          3D

 26 28  0  0  1  0  0  0  0  0999 V2000
    4.4407   -5.1082    0.5152 C   0  0  0  0  0  0  0  0  0  0  0  0
    3.0982   -5.2008    0.5665 C   0  0  0  0  0  0  0  0  0  0  0  0
    2.3611   -6.3055    1.1533 C   0  0  0  0  0  0  0  0  0  0  0  0
    1.0236   -6.2570    1.2430 N   0  0  0  0  0  0  0  0  0  0  0  0
    0.5469   -7.4035    1.8687 C   0  0  0  0  0  0  0  0  0  0  0  0
   -0.7556   -7.5799    2.1223 N   0  0  0  0  0  0  0  0  0  0  0  0
   -1.1114   -8.7484    2.7066 C   0  0  0  0  0  0  0  0  0  0  0  0
   -0.2011   -9.7564    3.0833 C   0  0  0  0  0  0  0  0  0  0  0  0
    1.1634   -9.5596    2.8332 C   0  0  0  0  0  0  0  0  0  0  0  0
    1.5432   -8.3597    2.2202 C   0  0  0  0  0  0  0  0  0  0  0  0
    3.1366   -7.7692    1.7776 S   0  0  0  0  0  0  0  0  0  0  0  0
    5.1767   -4.0045   -0.1167 C   0  0  0  0  0  0  0  0  0  0  0  0
    6.5696   -3.8761    0.0775 C   0  0  0  0  0  0  0  0  0  0  0  0
    7.2373   -2.7943   -0.5322 C   0  0  0  0  0  0  0  0  0  0  0  0
    6.6115   -1.8622   -1.2774 N   0  0  0  0  0  0  0  0  0  0  0  0
    5.2840   -1.9883   -1.4636 C   0  0  0  0  0  0  0  0  0  0  0  0
    4.5283   -3.0303   -0.9090 C   0  0  0  0  0  0  0  0  0  0  0  0
    5.0413   -5.8925    0.9532 H   0  0  0  0  0  0  0  0  0  0  0  0
    2.4859   -4.4175    0.1489 H   0  0  0  0  0  0  0  0  0  0  0  0
   -2.1676   -8.8907    2.8885 H   0  0  0  0  0  0  0  0  0  0  0  0
   -0.5480  -10.6552    3.5702 H   0  0  0  0  0  0  0  0  0  0  0  0
    1.9063  -10.2936    3.0999 H   0  0  0  0  0  0  0  0  0  0  0  0
    7.1215   -4.5838    0.6774 H   0  0  0  0  0  0  0  0  0  0  0  0
    8.3017   -2.6620   -0.4200 H   0  0  0  0  0  0  0  0  0  0  0  0
    4.8067   -1.2401   -2.0794 H   0  0  0  0  0  0  0  0  0  0  0  0
    3.4702   -3.0478   -1.1183 H   0  0  0  0  0  0  0  0  0  0  0  0
  1  2  2  3
  1 12  1  0
  1 18  1  0
  2  3  1  0
  2 19  1  0
  3 11  1  0
  3  4  2  0
  4  5  1  0
  5 10  2  0
  5  6  1  0
  6  7  2  0
  7  8  1  0
  7 20  1  0
  8  9  2  0
  8 21  1  0
  9 10  1  0
  9 22  1  0
 10 11  1  0
 12 17  1  0
 12 13  2  0
 13 14  1  0
 13 23  1  0
 14 15  2  0
 14 24  1  0
 15 16  1  0
 16 17  2  0
 16 25  1  0
 17 26  1  0
M  END
>  <i_m_ct_stereo_status>  (393) 
1

>  <s_m_source_file>  (393) 
/var/tmp/pbs.5076255.sched01/tmpxe1g82q3/12669a6jj4p.sdf

>  <i_m_source_file_index>  (393) 
28

>  <i_lp_mmshare_version>  (393) 
48012

>  <i_f3d_flags>  (393) 
0

>  <s_epik_input>  (393) 
W2NIXTFbY0hdbltjSF1bY0hdYzEvW0NIXT1bQ0hdL2MobjIpc2MoYzIzKVtjSF1bY0hdW2NIXW4z

>  <s_epik_cmdline>  (393) 
J2VwaWtfcHl0aG9uJywgJy1waHQnLCAnMi4wJywgJy1waCcsICc3LjAnLCAnLXRuJywgJzgnLCAnLW1hJywgJzIwMCcsICctaW1hZScsICc8aW5maWxlLm1hZT4nLCAnLW9tYWUnLCAnPG91dGZpbGUubWFlPic=

>  <r_epik_Ionization_Penalty>  (393) 
0.00227251

>  <r_epik_Ionization_Penalty_Charging>  (393) 
0

>  <r_epik_Ionization_Penalty_Neutral>  (393) 
0.00227251

>  <r_epik_State_Penalty>  (393) 
0.00156571

>  <r_epik_Charging_Adjusted_Penalty>  (393) 
0.00156571

>  <i_epik_Tot_Q>  (393) 
0

>  <i_epik_Tot_abs_Q>  (393) 
0

>  <s_lp_Force_Field>  (393) 
OPLS3e

>  <r_lp_Energy>  (393) 
24.2204

>  <b_lp_Chiralities_Consistent>  (393) 
1

>  <s_lp_Variant>  (393) 
114:0-1

>  <s_i_glide_gridfile>  (393) 
pfpi4k_grid

>  <i_i_glide_lignum>  (393) 
28

>  <i_i_glide_rotatable_bonds>  (393) 
2

>  <r_i_docking_score>  (393) 
-4.03545

>  <r_i_glide_ligand_efficiency>  (393) 
-0.237379

>  <r_i_glide_ligand_efficiency_sa>  (393) 
-0.610369

>  <r_i_glide_ligand_efficiency_ln>  (393) 
-1.05276

>  <r_i_glide_gscore>  (393) 
-4.03545

>  <r_i_glide_lipo>  (393) 
-0.271843

>  <r_i_glide_hbond>  (393) 
-0.32

>  <r_i_glide_metal>  (393) 
-0

>  <r_i_glide_rewards>  (393) 
-1.77752

>  <r_i_glide_evdw>  (393) 
-22.9429

>  <r_i_glide_ecoul>  (393) 
-7.07065

>  <r_i_glide_erotb>  (393) 
0.603504

>  <r_i_glide_esite>  (393) 
-0.0618485

>  <r_i_glide_emodel>  (393) 
-38.338

>  <r_i_glide_energy>  (393) 
-30.0135

>  <r_i_glide_einternal>  (393) 
1.13938

>  <r_i_glide_intrahb_reward>  (393) 
-0

>  <i_i_glide_confnum>  (393) 
4

>  <i_i_glide_posenum>  (393) 
15

>  <r_i_glide_eff_state_penalty>  (393) 
0

>  <ligand_id>  (393) 
114

>  <original_smiles>  (393) 
C(=Cc1nc2ncccc2s1)c1ccncc1

>  <smiles>  (393) 
[H]C(=C([H])c1c([H])c([H])nc([H])c1[H])c1nc2nc([H])c([H])c([H])c2s1

$$$$
114:0:1
     RDKit          3D

 26 28  0  0  1  0  0  0  0  0999 V2000
    3.2619   -4.3840    0.2806 C   0  0  0  0  0  0  0  0  0  0  0  0
    3.4854   -5.6398    0.7071 C   0  0  0  0  0  0  0  0  0  0  0  0
    2.4530   -6.5256    1.2267 C   0  0  0  0  0  0  0  0  0  0  0  0
    1.1637   -6.1737    1.3387 N   0  0  0  0  0  0  0  0  0  0  0  0
    0.4254   -7.2253    1.8707 C   0  0  0  0  0  0  0  0  0  0  0  0
   -0.8852   -7.1085    2.1204 N   0  0  0  0  0  0  0  0  0  0  0  0
   -1.5073   -8.2079    2.6091 C   0  0  0  0  0  0  0  0  0  0  0  0
   -0.8681   -9.4281    2.8797 C   0  0  0  0  0  0  0  0  0  0  0  0
    0.5095   -9.5418    2.6424 C   0  0  0  0  0  0  0  0  0  0  0  0
    1.1663   -8.4151    2.1272 C   0  0  0  0  0  0  0  0  0  0  0  0
    2.8533   -8.1864    1.6936 S   0  0  0  0  0  0  0  0  0  0  0  0
    4.2861   -3.4702   -0.2445 C   0  0  0  0  0  0  0  0  0  0  0  0
    5.6464   -3.8400   -0.3717 C   0  0  0  0  0  0  0  0  0  0  0  0
    6.5587   -2.9017   -0.8816 C   0  0  0  0  0  0  0  0  0  0  0  0
    6.2055   -1.6545   -1.2523 N   0  0  0  0  0  0  0  0  0  0  0  0
    4.9120   -1.2992   -1.1279 C   0  0  0  0  0  0  0  0  0  0  0  0
    3.9210   -2.1662   -0.6325 C   0  0  0  0  0  0  0  0  0  0  0  0
    2.2584   -3.9827    0.3115 H   0  0  0  0  0  0  0  0  0  0  0  0
    4.4806   -6.0551    0.6774 H   0  0  0  0  0  0  0  0  0  0  0  0
   -2.5658   -8.1028    2.7883 H   0  0  0  0  0  0  0  0  0  0  0  0
   -1.4285  -10.2552    3.2809 H   0  0  0  0  0  0  0  0  0  0  0  0
    1.0389  -10.4646    2.8345 H   0  0  0  0  0  0  0  0  0  0  0  0
    6.0079   -4.8190   -0.0964 H   0  0  0  0  0  0  0  0  0  0  0  0
    7.6023   -3.1493   -0.9962 H   0  0  0  0  0  0  0  0  0  0  0  0
    4.6606   -0.2934   -1.4343 H   0  0  0  0  0  0  0  0  0  0  0  0
    2.8977   -1.8235   -0.5587 H   0  0  0  0  0  0  0  0  0  0  0  0
  1  2  2  3
  1 12  1  0
  1 18  1  0
  2  3  1  0
  2 19  1  0
  3 11  1  0
  3  4  2  0
  4  5  1  0
  5 10  2  0
  5  6  1  0
  6  7  2  0
  7  8  1  0
  7 20  1  0
  8  9  2  0
  8 21  1  0
  9 10  1  0
  9 22  1  0
 10 11  1  0
 12 17  1  0
 12 13  2  0
 13 14  1  0
 13 23  1  0
 14 15  2  0
 14 24  1  0
 15 16  1  0
 16 17  2  0
 16 25  1  0
 17 26  1  0
M  END
>  <i_m_ct_stereo_status>  (394) 
1

>  <s_m_source_file>  (394) 
/var/tmp/pbs.5076255.sched01/tmpxe1g82q3/12669a6jj4p.sdf

>  <i_m_source_file_index>  (394) 
28

>  <i_lp_mmshare_version>  (394) 
48012

>  <i_f3d_flags>  (394) 
0

>  <s_epik_input>  (394) 
W2NIXTFbY0hdbltjSF1bY0hdYzEvW0NIXT1bQ0hdL2MobjIpc2MoYzIzKVtjSF1bY0hdW2NIXW4z

>  <s_epik_cmdline>  (394) 
J2VwaWtfcHl0aG9uJywgJy1waHQnLCAnMi4wJywgJy1waCcsICc3LjAnLCAnLXRuJywgJzgnLCAnLW1hJywgJzIwMCcsICctaW1hZScsICc8aW5maWxlLm1hZT4nLCAnLW9tYWUnLCAnPG91dGZpbGUubWFlPic=

>  <r_epik_Ionization_Penalty>  (394) 
0.00227251

>  <r_epik_Ionization_Penalty_Charging>  (394) 
0

>  <r_epik_Ionization_Penalty_Neutral>  (394) 
0.00227251

>  <r_epik_State_Penalty>  (394) 
0.00156571

>  <r_epik_Charging_Adjusted_Penalty>  (394) 
0.00156571

>  <i_epik_Tot_Q>  (394) 
0

>  <i_epik_Tot_abs_Q>  (394) 
0

>  <s_lp_Force_Field>  (394) 
OPLS3e

>  <r_lp_Energy>  (394) 
24.2204

>  <b_lp_Chiralities_Consistent>  (394) 
1

>  <s_lp_Variant>  (394) 
114:0-1

>  <s_i_glide_gridfile>  (394) 
pfpi4k_grid

>  <i_i_glide_lignum>  (394) 
28

>  <i_i_glide_rotatable_bonds>  (394) 
2

>  <r_i_docking_score>  (394) 
-4.02173

>  <r_i_glide_ligand_efficiency>  (394) 
-0.236572

>  <r_i_glide_ligand_efficiency_sa>  (394) 
-0.608294

>  <r_i_glide_ligand_efficiency_ln>  (394) 
-1.04918

>  <r_i_glide_gscore>  (394) 
-4.02173

>  <r_i_glide_lipo>  (394) 
-0.0969043

>  <r_i_glide_hbond>  (394) 
-0.442371

>  <r_i_glide_metal>  (394) 
-0

>  <r_i_glide_rewards>  (394) 
-1.77752

>  <r_i_glide_evdw>  (394) 
-21.9505

>  <r_i_glide_ecoul>  (394) 
-7.58868

>  <r_i_glide_erotb>  (394) 
0.603504

>  <r_i_glide_esite>  (394) 
-0.0726087

>  <r_i_glide_emodel>  (394) 
-38.4471

>  <r_i_glide_energy>  (394) 
-29.5392

>  <r_i_glide_einternal>  (394) 
0.0083863

>  <r_i_glide_intrahb_reward>  (394) 
-0

>  <i_i_glide_confnum>  (394) 
5

>  <i_i_glide_posenum>  (394) 
12

>  <r_i_glide_eff_state_penalty>  (394) 
0

>  <ligand_id>  (394) 
114

>  <original_smiles>  (394) 
C(=Cc1nc2ncccc2s1)c1ccncc1

>  <smiles>  (394) 
[H]C(=C([H])c1c([H])c([H])nc([H])c1[H])c1nc2nc([H])c([H])c([H])c2s1

$$$$
114:0:2
     RDKit          3D

 26 28  0  0  1  0  0  0  0  0999 V2000
    2.3781   -4.3669   -0.7124 C   0  0  0  0  0  0  0  0  0  0  0  0
    2.9327   -5.3113    0.0776 C   0  0  0  0  0  0  0  0  0  0  0  0
    2.1992   -6.2366    0.9240 C   0  0  0  0  0  0  0  0  0  0  0  0
    0.8551   -6.2595    0.9958 N   0  0  0  0  0  0  0  0  0  0  0  0
    0.4527   -7.2113    1.9327 C   0  0  0  0  0  0  0  0  0  0  0  0
   -0.8358   -7.3863    2.2494 N   0  0  0  0  0  0  0  0  0  0  0  0
   -1.1234   -8.3665    3.1400 C   0  0  0  0  0  0  0  0  0  0  0  0
   -0.1576   -9.1577    3.7974 C   0  0  0  0  0  0  0  0  0  0  0  0
    1.1985   -8.9390    3.4943 C   0  0  0  0  0  0  0  0  0  0  0  0
    1.5043   -7.9483    2.5492 C   0  0  0  0  0  0  0  0  0  0  0  0
    3.0632   -7.3943    1.9514 S   0  0  0  0  0  0  0  0  0  0  0  0
    3.1491   -3.4453   -1.5604 C   0  0  0  0  0  0  0  0  0  0  0  0
    2.5061   -2.7038   -2.5722 C   0  0  0  0  0  0  0  0  0  0  0  0
    3.2746   -1.8474   -3.3909 C   0  0  0  0  0  0  0  0  0  0  0  0
    4.6102   -1.7329   -3.2889 N   0  0  0  0  0  0  0  0  0  0  0  0
    5.2232   -2.4612   -2.3350 C   0  0  0  0  0  0  0  0  0  0  0  0
    4.5509   -3.3260   -1.4568 C   0  0  0  0  0  0  0  0  0  0  0  0
    1.3063   -4.2606   -0.7509 H   0  0  0  0  0  0  0  0  0  0  0  0
    4.0055   -5.4332    0.0968 H   0  0  0  0  0  0  0  0  0  0  0  0
   -2.1758   -8.5217    3.3414 H   0  0  0  0  0  0  0  0  0  0  0  0
   -0.4560   -9.9059    4.5107 H   0  0  0  0  0  0  0  0  0  0  0  0
    1.9798   -9.5154    3.9779 H   0  0  0  0  0  0  0  0  0  0  0  0
    1.4332   -2.7681   -2.7158 H   0  0  0  0  0  0  0  0  0  0  0  0
    2.8092   -1.2450   -4.1590 H   0  0  0  0  0  0  0  0  0  0  0  0
    6.2956   -2.3544   -2.2654 H   0  0  0  0  0  0  0  0  0  0  0  0
    5.1375   -3.8692   -0.7367 H   0  0  0  0  0  0  0  0  0  0  0  0
  1  2  2  3
  1 12  1  0
  1 18  1  0
  2  3  1  0
  2 19  1  0
  3 11  1  0
  3  4  2  0
  4  5  1  0
  5 10  2  0
  5  6  1  0
  6  7  2  0
  7  8  1  0
  7 20  1  0
  8  9  2  0
  8 21  1  0
  9 10  1  0
  9 22  1  0
 10 11  1  0
 12 17  1  0
 12 13  2  0
 13 14  1  0
 13 23  1  0
 14 15  2  0
 14 24  1  0
 15 16  1  0
 16 17  2  0
 16 25  1  0
 17 26  1  0
M  END
>  <i_m_ct_stereo_status>  (395) 
1

>  <s_m_source_file>  (395) 
/var/tmp/pbs.5076255.sched01/tmpxe1g82q3/12669a6jj4p.sdf

>  <i_m_source_file_index>  (395) 
28

>  <i_lp_mmshare_version>  (395) 
48012

>  <i_f3d_flags>  (395) 
0

>  <s_epik_input>  (395) 
W2NIXTFbY0hdbltjSF1bY0hdYzEvW0NIXT1bQ0hdL2MobjIpc2MoYzIzKVtjSF1bY0hdW2NIXW4z

>  <s_epik_cmdline>  (395) 
J2VwaWtfcHl0aG9uJywgJy1waHQnLCAnMi4wJywgJy1waCcsICc3LjAnLCAnLXRuJywgJzgnLCAnLW1hJywgJzIwMCcsICctaW1hZScsICc8aW5maWxlLm1hZT4nLCAnLW9tYWUnLCAnPG91dGZpbGUubWFlPic=

>  <r_epik_Ionization_Penalty>  (395) 
0.00227251

>  <r_epik_Ionization_Penalty_Charging>  (395) 
0

>  <r_epik_Ionization_Penalty_Neutral>  (395) 
0.00227251

>  <r_epik_State_Penalty>  (395) 
0.00156571

>  <r_epik_Charging_Adjusted_Penalty>  (395) 
0.00156571

>  <i_epik_Tot_Q>  (395) 
0

>  <i_epik_Tot_abs_Q>  (395) 
0

>  <s_lp_Force_Field>  (395) 
OPLS3e

>  <r_lp_Energy>  (395) 
24.2204

>  <b_lp_Chiralities_Consistent>  (395) 
1

>  <s_lp_Variant>  (395) 
114:0-1

>  <s_i_glide_gridfile>  (395) 
pfpi4k_grid

>  <i_i_glide_lignum>  (395) 
28

>  <i_i_glide_rotatable_bonds>  (395) 
2

>  <r_i_docking_score>  (395) 
-3.9042

>  <r_i_glide_ligand_efficiency>  (395) 
-0.229659

>  <r_i_glide_ligand_efficiency_sa>  (395) 
-0.590517

>  <r_i_glide_ligand_efficiency_ln>  (395) 
-1.01852

>  <r_i_glide_gscore>  (395) 
-3.9042

>  <r_i_glide_lipo>  (395) 
-0.383933

>  <r_i_glide_hbond>  (395) 
-0.21653

>  <r_i_glide_metal>  (395) 
-0

>  <r_i_glide_rewards>  (395) 
-1.77752

>  <r_i_glide_evdw>  (395) 
-24.7439

>  <r_i_glide_ecoul>  (395) 
-5.48116

>  <r_i_glide_erotb>  (395) 
0.603504

>  <r_i_glide_esite>  (395) 
-0.0703461

>  <r_i_glide_emodel>  (395) 
-38.3551

>  <r_i_glide_energy>  (395) 
-30.2251

>  <r_i_glide_einternal>  (395) 
0.906969

>  <r_i_glide_intrahb_reward>  (395) 
-0

>  <i_i_glide_confnum>  (395) 
3

>  <i_i_glide_posenum>  (395) 
26

>  <r_i_glide_eff_state_penalty>  (395) 
0

>  <ligand_id>  (395) 
114

>  <original_smiles>  (395) 
C(=Cc1nc2ncccc2s1)c1ccncc1

>  <smiles>  (395) 
[H]C(=C([H])c1c([H])c([H])nc([H])c1[H])c1nc2nc([H])c([H])c([H])c2s1

$$$$
114:1:0
     RDKit          3D

 26 28  0  0  1  0  0  0  0  0999 V2000
    6.5477   -2.3498   -0.7873 C   0  0  0  0  0  0  0  0  0  0  0  0
    6.4500   -1.8371    0.4690 C   0  0  0  0  0  0  0  0  0  0  0  0
    5.3048   -1.2312    1.1582 C   0  0  0  0  0  0  0  0  0  0  0  0
    5.4403   -0.6725    2.3773 N   0  0  0  0  0  0  0  0  0  0  0  0
    4.2321   -0.1297    2.8023 C   0  0  0  0  0  0  0  0  0  0  0  0
    4.0710    0.4376    3.9892 N   0  0  0  0  0  0  0  0  0  0  0  0
    2.8553    0.9568    4.2614 C   0  0  0  0  0  0  0  0  0  0  0  0
    1.7668    0.9758    3.3477 C   0  0  0  0  0  0  0  0  0  0  0  0
    1.9466    0.3918    2.0955 C   0  0  0  0  0  0  0  0  0  0  0  0
    3.1834   -0.2096    1.8695 C   0  0  0  0  0  0  0  0  0  0  0  0
    3.6441   -1.2307    0.5797 S   0  0  0  0  0  0  0  0  0  0  0  0
    5.5640   -2.3258   -1.8957 C   0  0  0  0  0  0  0  0  0  0  0  0
    5.4136   -3.4028   -2.7694 C   0  0  0  0  0  0  0  0  0  0  0  0
    4.4051   -3.3622   -3.7506 C   0  0  0  0  0  0  0  0  0  0  0  0
    3.5361   -2.3322   -3.8758 N   0  0  0  0  0  0  0  0  0  0  0  0
    3.6858   -1.2836   -3.0354 C   0  0  0  0  0  0  0  0  0  0  0  0
    4.7358   -1.2131   -2.1192 C   0  0  0  0  0  0  0  0  0  0  0  0
    7.4797   -2.8225   -1.0369 H   0  0  0  0  0  0  0  0  0  0  0  0
    7.3372   -1.9058    1.0775 H   0  0  0  0  0  0  0  0  0  0  0  0
    2.7313    1.3891    5.2520 H   0  0  0  0  0  0  0  0  0  0  0  0
    0.8036    1.4065    3.6253 H   0  0  0  0  0  0  0  0  0  0  0  0
    1.1587    0.3507    1.3648 H   0  0  0  0  0  0  0  0  0  0  0  0
    6.0727   -4.2479   -2.7128 H   0  0  0  0  0  0  0  0  0  0  0  0
    4.3052   -4.1474   -4.4840 H   0  0  0  0  0  0  0  0  0  0  0  0
    2.9615   -0.4918   -3.0771 H   0  0  0  0  0  0  0  0  0  0  0  0
    4.8322   -0.3278   -1.5049 H   0  0  0  0  0  0  0  0  0  0  0  0
  1  2  2  3
  1 12  1  0
  1 18  1  0
  2  3  1  0
  2 19  1  0
  3 11  1  0
  3  4  2  0
  4  5  1  0
  5 10  2  0
  5  6  1  0
  6  7  2  0
  7  8  1  0
  7 20  1  0
  8  9  2  0
  8 21  1  0
  9 10  1  0
  9 22  1  0
 10 11  1  0
 12 17  1  0
 12 13  2  0
 13 14  1  0
 13 23  1  0
 14 15  2  0
 14 24  1  0
 15 16  1  0
 16 17  2  0
 16 25  1  0
 17 26  1  0
M  END
>  <i_m_ct_stereo_status>  (396) 
1

>  <s_m_source_file>  (396) 
/var/tmp/pbs.5076255.sched01/tmpxe1g82q3/12669a6jj4p.sdf

>  <i_m_source_file_index>  (396) 
29

>  <i_lp_mmshare_version>  (396) 
48012

>  <i_f3d_flags>  (396) 
0

>  <s_epik_input>  (396) 
W2NIXTFbY0hdbltjSF1bY0hdYzEvW0NIXT1bQ0hdL2MobjIpc2MoYzIzKVtjSF1bY0hdW2NIXW4z

>  <s_epik_cmdline>  (396) 
J2VwaWtfcHl0aG9uJywgJy1waHQnLCAnMi4wJywgJy1waCcsICc3LjAnLCAnLXRuJywgJzgnLCAnLW1hJywgJzIwMCcsICctaW1hZScsICc8aW5maWxlLm1hZT4nLCAnLW9tYWUnLCAnPG91dGZpbGUubWFlPic=

>  <r_epik_Ionization_Penalty>  (396) 
0.00227251

>  <r_epik_Ionization_Penalty_Charging>  (396) 
0

>  <r_epik_Ionization_Penalty_Neutral>  (396) 
0.00227251

>  <r_epik_State_Penalty>  (396) 
0.00156571

>  <r_epik_Charging_Adjusted_Penalty>  (396) 
0.00156571

>  <i_epik_Tot_Q>  (396) 
0

>  <i_epik_Tot_abs_Q>  (396) 
0

>  <s_lp_Force_Field>  (396) 
OPLS3e

>  <r_lp_Energy>  (396) 
27.4051

>  <b_lp_Chiralities_Consistent>  (396) 
1

>  <s_lp_Variant>  (396) 
114:0-2

>  <s_i_glide_gridfile>  (396) 
pfpi4k_grid

>  <i_i_glide_lignum>  (396) 
29

>  <i_i_glide_rotatable_bonds>  (396) 
2

>  <r_i_docking_score>  (396) 
-3.39159

>  <r_i_glide_ligand_efficiency>  (396) 
-0.199505

>  <r_i_glide_ligand_efficiency_sa>  (396) 
-0.512984

>  <r_i_glide_ligand_efficiency_ln>  (396) 
-0.88479

>  <r_i_glide_gscore>  (396) 
-3.39159

>  <r_i_glide_lipo>  (396) 
-0.580188

>  <r_i_glide_hbond>  (396) 
-0.0595594

>  <r_i_glide_metal>  (396) 
-0

>  <r_i_glide_rewards>  (396) 
-1.82715

>  <r_i_glide_evdw>  (396) 
-26.4108

>  <r_i_glide_ecoul>  (396) 
-1.38439

>  <r_i_glide_erotb>  (396) 
0.603504

>  <r_i_glide_esite>  (396) 
0

>  <r_i_glide_emodel>  (396) 
-30.7088

>  <r_i_glide_energy>  (396) 
-27.7952

>  <r_i_glide_einternal>  (396) 
1.73957

>  <r_i_glide_intrahb_reward>  (396) 
-0

>  <i_i_glide_confnum>  (396) 
6

>  <i_i_glide_posenum>  (396) 
27

>  <r_i_glide_eff_state_penalty>  (396) 
0

>  <ligand_id>  (396) 
114

>  <original_smiles>  (396) 
C(=Cc1nc2ncccc2s1)c1ccncc1

>  <smiles>  (396) 
[H]C(=C([H])c1c([H])c([H])nc([H])c1[H])c1nc2nc([H])c([H])c([H])c2s1

$$$$
114:1:1
     RDKit          3D

 26 28  0  0  1  0  0  0  0  0999 V2000
    1.6037   -3.2405    6.7037 C   0  0  0  0  0  0  0  0  0  0  0  0
    1.8248   -3.9154    5.5626 C   0  0  0  0  0  0  0  0  0  0  0  0
    1.1637   -5.1084    5.0182 C   0  0  0  0  0  0  0  0  0  0  0  0
    0.9492   -5.2322    3.7111 N   0  0  0  0  0  0  0  0  0  0  0  0
    0.2407   -6.3945    3.4406 C   0  0  0  0  0  0  0  0  0  0  0  0
   -0.0991   -6.7509    2.1981 N   0  0  0  0  0  0  0  0  0  0  0  0
   -0.8004   -7.9062    2.0570 C   0  0  0  0  0  0  0  0  0  0  0  0
   -1.2959   -8.6587    3.1342 C   0  0  0  0  0  0  0  0  0  0  0  0
   -0.9745   -8.2511    4.4388 C   0  0  0  0  0  0  0  0  0  0  0  0
   -0.1587   -7.1389    4.5813 C   0  0  0  0  0  0  0  0  0  0  0  0
    0.5957   -6.4734    6.0054 S   0  0  0  0  0  0  0  0  0  0  0  0
    0.5623   -3.4102    7.7404 C   0  0  0  0  0  0  0  0  0  0  0  0
   -0.6413   -4.1099    7.5253 C   0  0  0  0  0  0  0  0  0  0  0  0
   -1.4982   -4.3632    8.6025 C   0  0  0  0  0  0  0  0  0  0  0  0
   -1.2882   -3.8630    9.8275 N   0  0  0  0  0  0  0  0  0  0  0  0
   -0.1799   -3.1152   10.0359 C   0  0  0  0  0  0  0  0  0  0  0  0
    0.7722   -2.8765    9.0284 C   0  0  0  0  0  0  0  0  0  0  0  0
    2.2807   -2.4186    6.8855 H   0  0  0  0  0  0  0  0  0  0  0  0
    2.6292   -3.5732    4.9302 H   0  0  0  0  0  0  0  0  0  0  0  0
   -0.9917   -8.2272    1.0386 H   0  0  0  0  0  0  0  0  0  0  0  0
   -1.8672   -9.5687    2.9685 H   0  0  0  0  0  0  0  0  0  0  0  0
   -1.3339   -8.8029    5.2903 H   0  0  0  0  0  0  0  0  0  0  0  0
   -0.9154   -4.4824    6.5592 H   0  0  0  0  0  0  0  0  0  0  0  0
   -2.3658   -4.9809    8.4569 H   0  0  0  0  0  0  0  0  0  0  0  0
   -0.0644   -2.6874   11.0278 H   0  0  0  0  0  0  0  0  0  0  0  0
    1.6537   -2.2887    9.2517 H   0  0  0  0  0  0  0  0  0  0  0  0
  1  2  2  3
  1 12  1  0
  1 18  1  0
  2  3  1  0
  2 19  1  0
  3 11  1  0
  3  4  2  0
  4  5  1  0
  5 10  2  0
  5  6  1  0
  6  7  2  0
  7  8  1  0
  7 20  1  0
  8  9  2  0
  8 21  1  0
  9 10  1  0
  9 22  1  0
 10 11  1  0
 12 17  1  0
 12 13  2  0
 13 14  1  0
 13 23  1  0
 14 15  2  0
 14 24  1  0
 15 16  1  0
 16 17  2  0
 16 25  1  0
 17 26  1  0
M  END
>  <i_m_ct_stereo_status>  (397) 
1

>  <s_m_source_file>  (397) 
/var/tmp/pbs.5076255.sched01/tmpxe1g82q3/12669a6jj4p.sdf

>  <i_m_source_file_index>  (397) 
29

>  <i_lp_mmshare_version>  (397) 
48012

>  <i_f3d_flags>  (397) 
0

>  <s_epik_input>  (397) 
W2NIXTFbY0hdbltjSF1bY0hdYzEvW0NIXT1bQ0hdL2MobjIpc2MoYzIzKVtjSF1bY0hdW2NIXW4z

>  <s_epik_cmdline>  (397) 
J2VwaWtfcHl0aG9uJywgJy1waHQnLCAnMi4wJywgJy1waCcsICc3LjAnLCAnLXRuJywgJzgnLCAnLW1hJywgJzIwMCcsICctaW1hZScsICc8aW5maWxlLm1hZT4nLCAnLW9tYWUnLCAnPG91dGZpbGUubWFlPic=

>  <r_epik_Ionization_Penalty>  (397) 
0.00227251

>  <r_epik_Ionization_Penalty_Charging>  (397) 
0

>  <r_epik_Ionization_Penalty_Neutral>  (397) 
0.00227251

>  <r_epik_State_Penalty>  (397) 
0.00156571

>  <r_epik_Charging_Adjusted_Penalty>  (397) 
0.00156571

>  <i_epik_Tot_Q>  (397) 
0

>  <i_epik_Tot_abs_Q>  (397) 
0

>  <s_lp_Force_Field>  (397) 
OPLS3e

>  <r_lp_Energy>  (397) 
27.4051

>  <b_lp_Chiralities_Consistent>  (397) 
1

>  <s_lp_Variant>  (397) 
114:0-2

>  <s_i_glide_gridfile>  (397) 
pfpi4k_grid

>  <i_i_glide_lignum>  (397) 
29

>  <i_i_glide_rotatable_bonds>  (397) 
2

>  <r_i_docking_score>  (397) 
-2.75198

>  <r_i_glide_ligand_efficiency>  (397) 
-0.161881

>  <r_i_glide_ligand_efficiency_sa>  (397) 
-0.416242

>  <r_i_glide_ligand_efficiency_ln>  (397) 
-0.717931

>  <r_i_glide_gscore>  (397) 
-2.75198

>  <r_i_glide_lipo>  (397) 
0

>  <r_i_glide_hbond>  (397) 
-0.174687

>  <r_i_glide_metal>  (397) 
-0

>  <r_i_glide_rewards>  (397) 
-1.77752

>  <r_i_glide_evdw>  (397) 
-17.2973

>  <r_i_glide_ecoul>  (397) 
-3.20462

>  <r_i_glide_erotb>  (397) 
0.603504

>  <r_i_glide_esite>  (397) 
-0.0577149

>  <r_i_glide_emodel>  (397) 
-22.9401

>  <r_i_glide_energy>  (397) 
-20.502

>  <r_i_glide_einternal>  (397) 
2.4428

>  <r_i_glide_intrahb_reward>  (397) 
-0

>  <i_i_glide_confnum>  (397) 
3

>  <i_i_glide_posenum>  (397) 
1

>  <r_i_glide_eff_state_penalty>  (397) 
0

>  <ligand_id>  (397) 
114

>  <original_smiles>  (397) 
C(=Cc1nc2ncccc2s1)c1ccncc1

>  <smiles>  (397) 
[H]C(=C([H])c1c([H])c([H])nc([H])c1[H])c1nc2nc([H])c([H])c([H])c2s1

$$$$
114:1:2
     RDKit          3D

 26 28  0  0  1  0  0  0  0  0999 V2000
    4.4646   -3.8281    2.2405 C   0  0  0  0  0  0  0  0  0  0  0  0
    4.9656   -2.9309    1.3736 C   0  0  0  0  0  0  0  0  0  0  0  0
    4.4912   -2.4781    0.0242 C   0  0  0  0  0  0  0  0  0  0  0  0
    4.9953   -1.4026   -0.5382 N   0  0  0  0  0  0  0  0  0  0  0  0
    4.3582   -1.2302   -1.7924 C   0  0  0  0  0  0  0  0  0  0  0  0
    4.6439   -0.2376   -2.5905 N   0  0  0  0  0  0  0  0  0  0  0  0
    3.9340   -0.1862   -3.7694 C   0  0  0  0  0  0  0  0  0  0  0  0
    3.0322   -1.1377   -4.1962 C   0  0  0  0  0  0  0  0  0  0  0  0
    2.7329   -2.2161   -3.3634 C   0  0  0  0  0  0  0  0  0  0  0  0
    3.4222   -2.1854   -2.1767 C   0  0  0  0  0  0  0  0  0  0  0  0
    3.1438   -3.1893   -0.8975 S   0  0  0  0  0  0  0  0  0  0  0  0
    3.2929   -4.7293    2.1219 C   0  0  0  0  0  0  0  0  0  0  0  0
    2.5127   -5.1384    3.1837 C   0  0  0  0  0  0  0  0  0  0  0  0
    1.4027   -5.9893    2.9401 C   0  0  0  0  0  0  0  0  0  0  0  0
    0.9962   -6.3601    1.6934 N   0  0  0  0  0  0  0  0  0  0  0  0
    1.7516   -5.9912    0.6807 C   0  0  0  0  0  0  0  0  0  0  0  0
    2.9462   -5.2895    0.8839 C   0  0  0  0  0  0  0  0  0  0  0  0
    4.9894   -3.9560    3.1851 H   0  0  0  0  0  0  0  0  0  0  0  0
    5.8760   -2.4267    1.6867 H   0  0  0  0  0  0  0  0  0  0  0  0
    4.1869    0.6407   -4.3857 H   0  0  0  0  0  0  0  0  0  0  0  0
    2.5162   -1.0437   -5.1397 H   0  0  0  0  0  0  0  0  0  0  0  0
    1.9990   -2.9811   -3.6062 H   0  0  0  0  0  0  0  0  0  0  0  0
    2.7698   -4.8517    4.1963 H   0  0  0  0  0  0  0  0  0  0  0  0
    0.8091   -6.3396    3.7479 H   0  0  0  0  0  0  0  0  0  0  0  0
    1.4858   -6.2617   -0.3398 H   0  0  0  0  0  0  0  0  0  0  0  0
    3.6001   -5.2141    0.0722 H   0  0  0  0  0  0  0  0  0  0  0  0
  1  2  2  3
  1 12  1  0
  1 18  1  0
  2  3  1  0
  2 19  1  0
  3 11  1  0
  3  4  2  0
  4  5  1  0
  5 10  2  0
  5  6  1  0
  6  7  2  0
  7  8  1  0
  7 20  1  0
  8  9  2  0
  8 21  1  0
  9 10  1  0
  9 22  1  0
 10 11  1  0
 12 17  1  0
 12 13  2  0
 13 14  1  0
 13 23  1  0
 14 15  2  0
 14 24  1  0
 15 16  1  0
 16 17  2  0
 16 25  1  0
 17 26  1  0
M  END
>  <i_m_ct_stereo_status>  (398) 
1

>  <s_m_source_file>  (398) 
/var/tmp/pbs.5076255.sched01/tmpxe1g82q3/12669a6jj4p.sdf

>  <i_m_source_file_index>  (398) 
29

>  <i_lp_mmshare_version>  (398) 
48012

>  <i_f3d_flags>  (398) 
0

>  <s_epik_input>  (398) 
W2NIXTFbY0hdbltjSF1bY0hdYzEvW0NIXT1bQ0hdL2MobjIpc2MoYzIzKVtjSF1bY0hdW2NIXW4z

>  <s_epik_cmdline>  (398) 
J2VwaWtfcHl0aG9uJywgJy1waHQnLCAnMi4wJywgJy1waCcsICc3LjAnLCAnLXRuJywgJzgnLCAnLW1hJywgJzIwMCcsICctaW1hZScsICc8aW5maWxlLm1hZT4nLCAnLW9tYWUnLCAnPG91dGZpbGUubWFlPic=

>  <r_epik_Ionization_Penalty>  (398) 
0.00227251

>  <r_epik_Ionization_Penalty_Charging>  (398) 
0

>  <r_epik_Ionization_Penalty_Neutral>  (398) 
0.00227251

>  <r_epik_State_Penalty>  (398) 
0.00156571

>  <r_epik_Charging_Adjusted_Penalty>  (398) 
0.00156571

>  <i_epik_Tot_Q>  (398) 
0

>  <i_epik_Tot_abs_Q>  (398) 
0

>  <s_lp_Force_Field>  (398) 
OPLS3e

>  <r_lp_Energy>  (398) 
27.4051

>  <b_lp_Chiralities_Consistent>  (398) 
1

>  <s_lp_Variant>  (398) 
114:0-2

>  <s_i_glide_gridfile>  (398) 
pfpi4k_grid

>  <i_i_glide_lignum>  (398) 
29

>  <i_i_glide_rotatable_bonds>  (398) 
2

>  <r_i_docking_score>  (398) 
-2.12206

>  <r_i_glide_ligand_efficiency>  (398) 
-0.124827

>  <r_i_glide_ligand_efficiency_sa>  (398) 
-0.320966

>  <r_i_glide_ligand_efficiency_ln>  (398) 
-0.553598

>  <r_i_glide_gscore>  (398) 
-2.12206

>  <r_i_glide_lipo>  (398) 
-0.485682

>  <r_i_glide_hbond>  (398) 
-0.0783188

>  <r_i_glide_metal>  (398) 
-0

>  <r_i_glide_rewards>  (398) 
-1.77752

>  <r_i_glide_evdw>  (398) 
-19.2744

>  <r_i_glide_ecoul>  (398) 
-2.05234

>  <r_i_glide_erotb>  (398) 
0.603504

>  <r_i_glide_esite>  (398) 
-0.044283

>  <r_i_glide_emodel>  (398) 
-18.0339

>  <r_i_glide_energy>  (398) 
-21.3268

>  <r_i_glide_einternal>  (398) 
1.9095

>  <r_i_glide_intrahb_reward>  (398) 
-0

>  <i_i_glide_confnum>  (398) 
6

>  <i_i_glide_posenum>  (398) 
16

>  <r_i_glide_eff_state_penalty>  (398) 
0

>  <ligand_id>  (398) 
114

>  <original_smiles>  (398) 
C(=Cc1nc2ncccc2s1)c1ccncc1

>  <smiles>  (398) 
[H]C(=C([H])c1c([H])c([H])nc([H])c1[H])c1nc2nc([H])c([H])c([H])c2s1

$$$$
115:3:0
     RDKit          3D

 79 86  0  0  1  0  0  0  0  0999 V2000
    4.0995   -5.8939    5.3152 C   0  0  0  0  0  0  0  0  0  0  0  0
    3.5446   -4.5326    5.7774 C   0  0  2  0  0  0  0  0  0  0  0  0
    4.6949   -3.6573    6.2766 C   0  0  0  0  0  0  0  0  0  0  0  0
    4.2087   -2.2336    6.5162 C   0  0  0  0  0  0  0  0  0  0  0  0
    2.9989   -2.1389    7.4811 C   0  0  1  0  0  0  0  0  0  0  0  0
    2.6146   -0.6614    7.8677 C   0  0  0  0  0  0  0  0  0  0  0  0
    2.9408    0.5288    6.9078 C   0  0  2  0  0  0  0  0  0  0  0  0
    1.9053    1.6681    6.7807 C   0  0  0  0  0  0  0  0  0  0  0  0
    0.6012    1.3839    7.0131 C   0  0  0  0  0  0  0  0  0  0  0  0
   -0.0126    1.3359    8.6246 Cl  0  0  0  0  0  0  0  0  0  0  0  0
   -0.1881    0.7881    5.9693 C   0  0  0  0  0  0  0  0  0  0  0  0
   -1.0294    1.6260    5.3424 C   0  0  0  0  0  0  0  0  0  0  0  0
   -0.6540    2.0485    3.9521 C   0  0  1  0  0  0  0  0  0  0  0  0
   -1.6871    2.9310    3.2901 C   0  0  0  0  0  0  0  0  0  0  0  0
   -2.7951    2.6245    2.8663 O   0  0  0  0  0  0  0  0  0  0  0  0
   -1.1604    4.3314    3.3010 C   0  0  0  0  0  0  0  0  0  0  0  0
   -1.7291    5.3344    2.8767 O   0  0  0  0  0  0  0  0  0  0  0  0
    0.1834    4.3397    3.9749 C   0  0  0  0  0  0  0  0  0  0  0  0
    0.4975    2.9302    4.2192 N   0  0  0  0  0  0  0  0  0  0  0  0
    1.7566    2.4833    4.1007 C   0  0  0  0  0  0  0  0  0  0  0  0
    2.3362    2.4750    3.0066 O   0  0  0  0  0  0  0  0  0  0  0  0
    2.5341    2.0081    5.3855 C   0  0  1  0  0  0  0  0  0  0  0  0
    3.7318    2.9788    5.5160 C   0  0  0  0  0  0  0  0  0  0  0  0
    2.7843    0.4891    5.3662 C   0  0  2  0  0  0  0  0  0  0  0  0
    1.7248   -0.4172    4.6908 C   0  0  0  0  0  0  0  0  0  0  0  0
    0.3306   -0.5387    5.3863 C   0  0  1  0  0  0  0  0  0  0  0  0
    0.3117   -1.4857    6.4579 O   0  0  0  0  0  0  0  0  0  0  0  0
    0.7500   -2.7820    6.2009 C   0  0  2  0  0  0  0  0  0  0  0  0
   -0.3421   -3.6514    6.1302 O   0  0  0  0  0  0  0  0  0  0  0  0
   -0.6320   -4.3364    7.3186 C   0  0  1  0  0  0  0  0  0  0  0  0
   -2.1541   -4.4917    7.3661 C   0  0  0  0  0  0  0  0  0  0  0  0
    0.0682   -5.7128    7.2857 C   0  0  0  0  0  0  0  0  0  0  0  0
    1.3610   -5.6706    6.4552 C   0  0  0  0  0  0  0  0  0  0  0  0
    2.4282   -4.6201    6.8566 C   0  0  2  0  0  0  0  0  0  0  0  0
    1.8259   -3.2125    7.2739 C   0  0  1  0  0  0  0  0  0  0  0  0
    1.0986   -3.4732    8.6550 C   0  0  1  0  0  0  0  0  0  0  0  0
    1.3142   -2.4465    9.5630 O   0  0  0  0  0  0  0  0  0  0  0  0
    1.0242   -2.7436   10.9207 C   0  0  0  0  0  0  0  0  0  0  0  0
    0.3933   -1.5115   11.5811 C   0  0  0  0  0  0  0  0  0  0  0  0
   -0.9828   -1.5242   11.2736 O   0  0  0  0  0  0  0  0  0  0  0  0
   -0.2746   -3.6221    8.4710 O   0  0  0  0  0  0  0  0  0  0  0  0
    4.4798   -6.4873    6.1483 H   0  0  0  0  0  0  0  0  0  0  0  0
    4.9183   -5.7601    4.6064 H   0  0  0  0  0  0  0  0  0  0  0  0
    3.3462   -6.4857    4.7934 H   0  0  0  0  0  0  0  0  0  0  0  0
    3.1294   -4.0612    4.8893 H   0  0  0  0  0  0  0  0  0  0  0  0
    5.1158   -4.0699    7.1927 H   0  0  0  0  0  0  0  0  0  0  0  0
    5.5031   -3.6424    5.5374 H   0  0  0  0  0  0  0  0  0  0  0  0
    5.0362   -1.6493    6.9215 H   0  0  0  0  0  0  0  0  0  0  0  0
    3.9961   -1.8150    5.5415 H   0  0  0  0  0  0  0  0  0  0  0  0
    3.4627   -2.5020    8.4000 H   0  0  0  0  0  0  0  0  0  0  0  0
    1.5827   -0.6355    8.2009 H   0  0  0  0  0  0  0  0  0  0  0  0
    3.1365   -0.4535    8.8050 H   0  0  0  0  0  0  0  0  0  0  0  0
    3.9476    0.8920    7.1403 H   0  0  0  0  0  0  0  0  0  0  0  0
   -1.3324    2.5082    5.9085 H   0  0  0  0  0  0  0  0  0  0  0  0
   -0.4193    1.2020    3.3020 H   0  0  0  0  0  0  0  0  0  0  0  0
    0.9195    4.8618    3.3520 H   0  0  0  0  0  0  0  0  0  0  0  0
    0.1103    4.8327    4.9461 H   0  0  0  0  0  0  0  0  0  0  0  0
    3.4204    4.0287    5.4968 H   0  0  0  0  0  0  0  0  0  0  0  0
    4.4155    2.8445    4.6804 H   0  0  0  0  0  0  0  0  0  0  0  0
    4.3241    2.8413    6.4198 H   0  0  0  0  0  0  0  0  0  0  0  0
    3.7685    0.3532    4.9411 H   0  0  0  0  0  0  0  0  0  0  0  0
    1.5442   -0.0803    3.6762 H   0  0  0  0  0  0  0  0  0  0  0  0
    2.1937   -1.3674    4.5005 H   0  0  0  0  0  0  0  0  0  0  0  0
   -0.4009   -0.8934    4.6637 H   0  0  0  0  0  0  0  0  0  0  0  0
    1.1610   -2.8849    5.2109 H   0  0  0  0  0  0  0  0  0  0  0  0
   -2.6281   -3.5109    7.3688 H   0  0  0  0  0  0  0  0  0  0  0  0
   -2.4637   -5.0379    8.2654 H   0  0  0  0  0  0  0  0  0  0  0  0
   -2.5231   -5.0322    6.4877 H   0  0  0  0  0  0  0  0  0  0  0  0
    0.2037   -6.1026    8.3008 H   0  0  0  0  0  0  0  0  0  0  0  0
   -0.5878   -6.4220    6.7784 H   0  0  0  0  0  0  0  0  0  0  0  0
    1.8112   -6.6523    6.5345 H   0  0  0  0  0  0  0  0  0  0  0  0
    1.1124   -5.5543    5.3985 H   0  0  0  0  0  0  0  0  0  0  0  0
    2.9342   -5.0312    7.7322 H   0  0  0  0  0  0  0  0  0  0  0  0
    1.5020   -4.3723    9.1266 H   0  0  0  0  0  0  0  0  0  0  0  0
    0.4008   -3.6287   11.0744 H   0  0  0  0  0  0  0  0  0  0  0  0
    1.9828   -2.9678   11.3807 H   0  0  0  0  0  0  0  0  0  0  0  0
    0.4976   -1.5859   12.6572 H   0  0  0  0  0  0  0  0  0  0  0  0
    0.8686   -0.5857   11.2569 H   0  0  0  0  0  0  0  0  0  0  0  0
   -1.5061   -1.0546   11.9338 H   0  0  0  0  0  0  0  0  0  0  0  0
  1  2  1  0
  1 42  1  0
  1 43  1  0
  1 44  1  0
  2 34  1  0
  2  3  1  0
  2 45  1  6
  3  4  1  0
  3 46  1  0
  3 47  1  0
  4  5  1  0
  4 48  1  0
  4 49  1  0
 35  5  1  1
  5  6  1  0
  5 50  1  1
  6  7  1  0
  6 51  1  0
  6 52  1  0
  7 24  1  0
  7  8  1  0
  7 53  1  6
  8 22  1  0
  8  9  2  0
  9 10  1  0
  9 11  1  0
 11 26  1  0
 11 12  2  3
 12 13  1  0
 12 54  1  0
 13 19  1  0
 13 14  1  0
 13 55  1  6
 14 15  2  0
 14 16  1  0
 16 17  2  0
 16 18  1  0
 18 19  1  0
 18 56  1  0
 18 57  1  0
 19 20  1  0
 20 21  2  0
 20 22  1  0
 22 23  1  1
 22 24  1  0
 23 58  1  0
 23 59  1  0
 23 60  1  0
 24 25  1  0
 24 61  1  6
 25 26  1  0
 25 62  1  0
 25 63  1  0
 26 27  1  0
 26 64  1  6
 27 28  1  0
 28 35  1  0
 28 29  1  0
 28 65  1  6
 29 30  1  0
 30 41  1  0
 30 31  1  1
 30 32  1  0
 31 66  1  0
 31 67  1  0
 31 68  1  0
 32 33  1  0
 32 69  1  0
 32 70  1  0
 33 34  1  0
 33 71  1  0
 33 72  1  0
 34 35  1  0
 34 73  1  1
 35 36  1  0
 36 37  1  0
 36 41  1  0
 36 74  1  1
 37 38  1  0
 38 39  1  0
 38 75  1  0
 38 76  1  0
 39 40  1  0
 39 77  1  0
 39 78  1  0
 40 79  1  0
M  END
>  <i_m_ct_stereo_status>  (399) 
1

>  <s_m_source_file>  (399) 
/var/tmp/pbs.5076255.sched01/tmpxe1g82q3/12669a6jj4p.sdf

>  <i_m_source_file_index>  (399) 
33

>  <i_lp_mmshare_version>  (399) 
48012

>  <i_f3d_flags>  (399) 
1

>  <s_epik_input>  (399) 
W0NAXTEyM1tDQEhdNFtDSDJdW0NIMl1bQ0BASF0oW0NIM10pW0NAQEhdMltDSDJdW0NIMl1bQ0BAXShbQ0gzXSkoT1tDQEBIXTNPW0NIMl1bQ0gyXVtPSF0pT1tDQEhdMU9bQ0BIXTVDXDY9W0NIXVxbQ0BASF03TihbQ0gyXUMoPU8pQzc9TylDKD1PKUM4KFtDSDNdKUMoPUM2Q2wpW0NAQEhdKFtDSDJdNClbQ0BIXThbQ0gyXTU=

>  <s_epik_cmdline>  (399) 
J2VwaWtfcHl0aG9uJywgJy1waHQnLCAnMi4wJywgJy1waCcsICc3LjAnLCAnLXRuJywgJzgnLCAnLW1hJywgJzIwMCcsICctaW1hZScsICc8aW5maWxlLm1hZT4nLCAnLW9tYWUnLCAnPG91dGZpbGUubWFlPic=

>  <r_lp_tautomer_probability>  (399) 
1

>  <r_epik_Ionization_Penalty>  (399) 
6.45495e-08

>  <r_epik_Ionization_Penalty_Charging>  (399) 
0

>  <r_epik_Ionization_Penalty_Neutral>  (399) 
6.45495e-08

>  <r_epik_State_Penalty>  (399) 
-0

>  <r_epik_Charging_Adjusted_Penalty>  (399) 
0

>  <i_epik_Tot_Q>  (399) 
0

>  <i_epik_Tot_abs_Q>  (399) 
0

>  <s_epik_Chemistry_Notes>  (399) 
This compound contains an acetal/aminal-like group ( X-CH(R)-Y where X, Y are N, S, or O) that may be acid/base labile, releasing an aldehyde.

>  <s_lp_Force_Field>  (399) 
OPLS3e

>  <r_lp_Energy>  (399) 
187.705

>  <b_lp_Chiralities_Consistent>  (399) 
1

>  <s_lp_Variant>  (399) 
115:0-4

>  <s_i_glide_gridfile>  (399) 
pfpi4k_grid

>  <i_i_glide_lignum>  (399) 
33

>  <i_i_glide_rotatable_bonds>  (399) 
4

>  <r_i_docking_score>  (399) 
-2.83294

>  <r_i_glide_ligand_efficiency>  (399) 
-0.069096

>  <r_i_glide_ligand_efficiency_sa>  (399) 
-0.238258

>  <r_i_glide_ligand_efficiency_ln>  (399) 
-0.601017

>  <r_i_glide_gscore>  (399) 
-2.83294

>  <r_i_glide_lipo>  (399) 
-0.0461766

>  <r_i_glide_hbond>  (399) 
-0.16

>  <r_i_glide_metal>  (399) 
-0

>  <r_i_glide_rewards>  (399) 
0

>  <r_i_glide_evdw>  (399) 
-18.9285

>  <r_i_glide_ecoul>  (399) 
-10.2008

>  <r_i_glide_erotb>  (399) 
0.0749695

>  <r_i_glide_esite>  (399) 
-0.225193

>  <r_i_glide_emodel>  (399) 
-31.9951

>  <r_i_glide_energy>  (399) 
-29.1292

>  <r_i_glide_einternal>  (399) 
4.66742

>  <r_i_glide_intrahb_reward>  (399) 
-0

>  <i_i_glide_confnum>  (399) 
3

>  <i_i_glide_posenum>  (399) 
1

>  <r_i_glide_eff_state_penalty>  (399) 
0

>  <ligand_id>  (399) 
115

>  <original_smiles>  (399) 
CC1CCC2CC3C4=C(Cl)C5=CC6C(=O)C(=O)CN6C(=O)C4(C)C3CC5OC3OC4(C)CCC1C23C(OCCO)O4

>  <smiles>  (399) 
[H]OC([H])([H])C([H])([H])OC1([H])OC2(C([H])([H])[H])OC3([H])OC4([H])C5=C([H])C6([H])C(=O)C(=O)C([H])([H])N6C(=O)C6(C([H])([H])[H])C(=C5Cl)C([H])(C([H])([H])C5([H])C([H])([H])C([H])([H])C([H])(C([H])([H])[H])C([H])(C([H])([H])C2([H])[H])C135)C6([H])C4([H])[H]

$$$$
115:3:1
     RDKit          3D

 79 86  0  0  1  0  0  0  0  0999 V2000
   -1.9098   -8.3072    3.7368 C   0  0  0  0  0  0  0  0  0  0  0  0
   -0.5367   -7.6351    3.5561 C   0  0  2  0  0  0  0  0  0  0  0  0
   -0.3455   -7.2680    2.0860 C   0  0  0  0  0  0  0  0  0  0  0  0
    0.8919   -6.4004    1.9141 C   0  0  0  0  0  0  0  0  0  0  0  0
    2.1800   -7.0443    2.4693 C   0  0  1  0  0  0  0  0  0  0  0  0
    3.4839   -6.2260    2.1322 C   0  0  0  0  0  0  0  0  0  0  0  0
    3.4268   -4.6839    1.8795 C   0  0  2  0  0  0  0  0  0  0  0  0
    4.5885   -3.8149    2.4344 C   0  0  0  0  0  0  0  0  0  0  0  0
    5.2731   -4.2562    3.5089 C   0  0  0  0  0  0  0  0  0  0  0  0
    6.5190   -5.4434    3.3307 Cl  0  0  0  0  0  0  0  0  0  0  0  0
    4.7094   -4.0546    4.8275 C   0  0  0  0  0  0  0  0  0  0  0  0
    5.2750   -3.0613    5.5354 C   0  0  0  0  0  0  0  0  0  0  0  0
    4.4958   -1.7843    5.6728 C   0  0  1  0  0  0  0  0  0  0  0  0
    5.1849   -0.7542    6.5429 C   0  0  0  0  0  0  0  0  0  0  0  0
    5.2992   -0.7643    7.7631 O   0  0  0  0  0  0  0  0  0  0  0  0
    5.7349    0.3181    5.6249 C   0  0  0  0  0  0  0  0  0  0  0  0
    6.3831    1.3050    5.9507 O   0  0  0  0  0  0  0  0  0  0  0  0
    5.3989   -0.0399    4.1992 C   0  0  0  0  0  0  0  0  0  0  0  0
    4.5477   -1.2284    4.3075 N   0  0  0  0  0  0  0  0  0  0  0  0
    3.5452   -1.4214    3.4447 C   0  0  0  0  0  0  0  0  0  0  0  0
    2.5660   -0.6606    3.4476 O   0  0  0  0  0  0  0  0  0  0  0  0
    3.6032   -2.5876    2.3903 C   0  0  1  0  0  0  0  0  0  0  0  0
    3.5890   -1.8937    1.0080 C   0  0  0  0  0  0  0  0  0  0  0  0
    2.5595   -3.6843    2.6941 C   0  0  2  0  0  0  0  0  0  0  0  0
    2.1957   -3.9602    4.1766 C   0  0  0  0  0  0  0  0  0  0  0  0
    3.3033   -4.5988    5.0877 C   0  0  1  0  0  0  0  0  0  0  0  0
    3.3950   -6.0133    4.9381 O   0  0  0  0  0  0  0  0  0  0  0  0
    2.2569   -6.7833    5.1205 C   0  0  2  0  0  0  0  0  0  0  0  0
    2.3121   -7.4352    6.3584 O   0  0  0  0  0  0  0  0  0  0  0  0
    2.7836   -8.7501    6.3131 C   0  0  1  0  0  0  0  0  0  0  0  0
    3.5540   -8.9802    7.6209 C   0  0  0  0  0  0  0  0  0  0  0  0
    1.5706   -9.7065    6.2123 C   0  0  0  0  0  0  0  0  0  0  0  0
    0.3939   -9.0432    5.4718 C   0  0  0  0  0  0  0  0  0  0  0  0
    0.6649   -8.4858    4.0517 C   0  0  2  0  0  0  0  0  0  0  0  0
    2.0662   -7.7616    3.9009 C   0  0  1  0  0  0  0  0  0  0  0  0
    3.1376   -8.9210    3.9983 C   0  0  1  0  0  0  0  0  0  0  0  0
    4.1339   -8.7778    3.0411 O   0  0  0  0  0  0  0  0  0  0  0  0
    4.8795   -9.9353    2.7127 C   0  0  0  0  0  0  0  0  0  0  0  0
    5.6631   -9.6063    1.4343 C   0  0  0  0  0  0  0  0  0  0  0  0
    6.2323  -10.7773    0.8943 O   0  0  0  0  0  0  0  0  0  0  0  0
    3.6967   -8.9751    5.2745 O   0  0  0  0  0  0  0  0  0  0  0  0
   -1.9613   -9.2850    3.2537 H   0  0  0  0  0  0  0  0  0  0  0  0
   -2.7024   -7.6857    3.3194 H   0  0  0  0  0  0  0  0  0  0  0  0
   -2.1498   -8.4518    4.7898 H   0  0  0  0  0  0  0  0  0  0  0  0
   -0.5695   -6.7147    4.1373 H   0  0  0  0  0  0  0  0  0  0  0  0
   -0.2677   -8.1664    1.4746 H   0  0  0  0  0  0  0  0  0  0  0  0
   -1.2174   -6.7232    1.7250 H   0  0  0  0  0  0  0  0  0  0  0  0
    1.0355   -6.2019    0.8517 H   0  0  0  0  0  0  0  0  0  0  0  0
    0.6773   -5.4535    2.3903 H   0  0  0  0  0  0  0  0  0  0  0  0
    2.2690   -7.9079    1.8073 H   0  0  0  0  0  0  0  0  0  0  0  0
    4.2549   -6.4931    2.8403 H   0  0  0  0  0  0  0  0  0  0  0  0
    3.8894   -6.6753    1.2232 H   0  0  0  0  0  0  0  0  0  0  0  0
    3.2186   -4.5284    0.8179 H   0  0  0  0  0  0  0  0  0  0  0  0
    6.2812   -2.8044    5.2523 H   0  0  0  0  0  0  0  0  0  0  0  0
    3.4789   -1.9456    6.0301 H   0  0  0  0  0  0  0  0  0  0  0  0
    4.9098    0.8027    3.6950 H   0  0  0  0  0  0  0  0  0  0  0  0
    6.3091   -0.3125    3.6568 H   0  0  0  0  0  0  0  0  0  0  0  0
    4.3684   -1.1287    0.9343 H   0  0  0  0  0  0  0  0  0  0  0  0
    2.6329   -1.3890    0.8355 H   0  0  0  0  0  0  0  0  0  0  0  0
    3.7356   -2.5713    0.1662 H   0  0  0  0  0  0  0  0  0  0  0  0
    1.6762   -3.4432    2.1041 H   0  0  0  0  0  0  0  0  0  0  0  0
    1.8877   -3.0411    4.6630 H   0  0  0  0  0  0  0  0  0  0  0  0
    1.2691   -4.5103    4.1912 H   0  0  0  0  0  0  0  0  0  0  0  0
    3.0608   -4.4159    6.1392 H   0  0  0  0  0  0  0  0  0  0  0  0
    1.3774   -6.1737    5.2464 H   0  0  0  0  0  0  0  0  0  0  0  0
    4.4086   -8.2979    7.6763 H   0  0  0  0  0  0  0  0  0  0  0  0
    3.9207  -10.0117    7.6703 H   0  0  0  0  0  0  0  0  0  0  0  0
    2.9066   -8.7947    8.4855 H   0  0  0  0  0  0  0  0  0  0  0  0
    1.8743  -10.6690    5.7902 H   0  0  0  0  0  0  0  0  0  0  0  0
    1.2278   -9.9303    7.2257 H   0  0  0  0  0  0  0  0  0  0  0  0
   -0.3654   -9.8113    5.3949 H   0  0  0  0  0  0  0  0  0  0  0  0
   -0.0358   -8.2640    6.1028 H   0  0  0  0  0  0  0  0  0  0  0  0
    0.6739   -9.3534    3.3906 H   0  0  0  0  0  0  0  0  0  0  0  0
    2.6635   -9.8798    3.7934 H   0  0  0  0  0  0  0  0  0  0  0  0
    5.5442  -10.2259    3.5259 H   0  0  0  0  0  0  0  0  0  0  0  0
    4.2129  -10.7701    2.5032 H   0  0  0  0  0  0  0  0  0  0  0  0
    4.9836   -9.2028    0.6770 H   0  0  0  0  0  0  0  0  0  0  0  0
    6.4491   -8.8672    1.6184 H   0  0  0  0  0  0  0  0  0  0  0  0
    5.5028  -11.3657    0.6641 H   0  0  0  0  0  0  0  0  0  0  0  0
  1  2  1  0
  1 42  1  0
  1 43  1  0
  1 44  1  0
  2 34  1  0
  2  3  1  0
  2 45  1  1
  3  4  1  0
  3 46  1  0
  3 47  1  0
  4  5  1  0
  4 48  1  0
  4 49  1  0
 35  5  1  6
  5  6  1  0
  5 50  1  6
  6  7  1  0
  6 51  1  0
  6 52  1  0
  7 24  1  0
  7  8  1  0
  7 53  1  6
  8 22  1  0
  8  9  2  0
  9 10  1  0
  9 11  1  0
 11 26  1  0
 11 12  2  3
 12 13  1  0
 12 54  1  0
 13 19  1  0
 13 14  1  0
 13 55  1  1
 14 15  2  0
 14 16  1  0
 16 17  2  0
 16 18  1  0
 18 19  1  0
 18 56  1  0
 18 57  1  0
 19 20  1  0
 20 21  2  0
 20 22  1  0
 22 23  1  6
 22 24  1  0
 23 58  1  0
 23 59  1  0
 23 60  1  0
 24 25  1  0
 24 61  1  6
 25 26  1  0
 25 62  1  0
 25 63  1  0
 26 27  1  0
 26 64  1  1
 27 28  1  0
 28 35  1  0
 28 29  1  0
 28 65  1  1
 29 30  1  0
 30 41  1  0
 30 31  1  1
 30 32  1  0
 31 66  1  0
 31 67  1  0
 31 68  1  0
 32 33  1  0
 32 69  1  0
 32 70  1  0
 33 34  1  0
 33 71  1  0
 33 72  1  0
 34 35  1  0
 34 73  1  6
 35 36  1  0
 36 37  1  0
 36 41  1  0
 36 74  1  6
 37 38  1  0
 38 39  1  0
 38 75  1  0
 38 76  1  0
 39 40  1  0
 39 77  1  0
 39 78  1  0
 40 79  1  0
M  END
>  <i_m_ct_stereo_status>  (400) 
1

>  <s_m_source_file>  (400) 
/var/tmp/pbs.5076255.sched01/tmpxe1g82q3/12669a6jj4p.sdf

>  <i_m_source_file_index>  (400) 
33

>  <i_lp_mmshare_version>  (400) 
48012

>  <i_f3d_flags>  (400) 
1

>  <s_epik_input>  (400) 
W0NAXTEyM1tDQEhdNFtDSDJdW0NIMl1bQ0BASF0oW0NIM10pW0NAQEhdMltDSDJdW0NIMl1bQ0BAXShbQ0gzXSkoT1tDQEBIXTNPW0NIMl1bQ0gyXVtPSF0pT1tDQEhdMU9bQ0BIXTVDXDY9W0NIXVxbQ0BASF03TihbQ0gyXUMoPU8pQzc9TylDKD1PKUM4KFtDSDNdKUMoPUM2Q2wpW0NAQEhdKFtDSDJdNClbQ0BIXThbQ0gyXTU=

>  <s_epik_cmdline>  (400) 
J2VwaWtfcHl0aG9uJywgJy1waHQnLCAnMi4wJywgJy1waCcsICc3LjAnLCAnLXRuJywgJzgnLCAnLW1hJywgJzIwMCcsICctaW1hZScsICc8aW5maWxlLm1hZT4nLCAnLW9tYWUnLCAnPG91dGZpbGUubWFlPic=

>  <r_lp_tautomer_probability>  (400) 
1

>  <r_epik_Ionization_Penalty>  (400) 
6.45495e-08

>  <r_epik_Ionization_Penalty_Charging>  (400) 
0

>  <r_epik_Ionization_Penalty_Neutral>  (400) 
6.45495e-08

>  <r_epik_State_Penalty>  (400) 
-0

>  <r_epik_Charging_Adjusted_Penalty>  (400) 
0

>  <i_epik_Tot_Q>  (400) 
0

>  <i_epik_Tot_abs_Q>  (400) 
0

>  <s_epik_Chemistry_Notes>  (400) 
This compound contains an acetal/aminal-like group ( X-CH(R)-Y where X, Y are N, S, or O) that may be acid/base labile, releasing an aldehyde.

>  <s_lp_Force_Field>  (400) 
OPLS3e

>  <r_lp_Energy>  (400) 
187.705

>  <b_lp_Chiralities_Consistent>  (400) 
1

>  <s_lp_Variant>  (400) 
115:0-4

>  <s_i_glide_gridfile>  (400) 
pfpi4k_grid

>  <i_i_glide_lignum>  (400) 
33

>  <i_i_glide_rotatable_bonds>  (400) 
4

>  <r_i_docking_score>  (400) 
-2.82811

>  <r_i_glide_ligand_efficiency>  (400) 
-0.0689784

>  <r_i_glide_ligand_efficiency_sa>  (400) 
-0.237852

>  <r_i_glide_ligand_efficiency_ln>  (400) 
-0.599994

>  <r_i_glide_gscore>  (400) 
-2.82811

>  <r_i_glide_lipo>  (400) 
-0.172111

>  <r_i_glide_hbond>  (400) 
-0.236238

>  <r_i_glide_metal>  (400) 
-0

>  <r_i_glide_rewards>  (400) 
-0.147029

>  <r_i_glide_evdw>  (400) 
-23.8158

>  <r_i_glide_ecoul>  (400) 
-7.56665

>  <r_i_glide_erotb>  (400) 
0.0749695

>  <r_i_glide_esite>  (400) 
-0.0219187

>  <r_i_glide_emodel>  (400) 
-36.214

>  <r_i_glide_energy>  (400) 
-31.3824

>  <r_i_glide_einternal>  (400) 
1.2081

>  <r_i_glide_intrahb_reward>  (400) 
-0

>  <i_i_glide_confnum>  (400) 
2

>  <i_i_glide_posenum>  (400) 
31

>  <r_i_glide_eff_state_penalty>  (400) 
0

>  <ligand_id>  (400) 
115

>  <original_smiles>  (400) 
CC1CCC2CC3C4=C(Cl)C5=CC6C(=O)C(=O)CN6C(=O)C4(C)C3CC5OC3OC4(C)CCC1C23C(OCCO)O4

>  <smiles>  (400) 
[H]OC([H])([H])C([H])([H])OC1([H])OC2(C([H])([H])[H])OC3([H])OC4([H])C5=C([H])C6([H])C(=O)C(=O)C([H])([H])N6C(=O)C6(C([H])([H])[H])C(=C5Cl)C([H])(C([H])([H])C5([H])C([H])([H])C([H])([H])C([H])(C([H])([H])[H])C([H])(C([H])([H])C2([H])[H])C135)C6([H])C4([H])[H]

$$$$
115:3:2
     RDKit          3D

 79 86  0  0  1  0  0  0  0  0999 V2000
   -1.8307   -8.4412    3.4338 C   0  0  0  0  0  0  0  0  0  0  0  0
   -0.4523   -7.7700    3.3255 C   0  0  2  0  0  0  0  0  0  0  0  0
   -0.1339   -7.4980    1.8550 C   0  0  0  0  0  0  0  0  0  0  0  0
    1.1230   -6.6524    1.7309 C   0  0  0  0  0  0  0  0  0  0  0  0
    2.3497   -7.2655    2.4408 C   0  0  1  0  0  0  0  0  0  0  0  0
    3.6796   -6.4624    2.1597 C   0  0  0  0  0  0  0  0  0  0  0  0
    3.6450   -4.9444    1.7883 C   0  0  2  0  0  0  0  0  0  0  0  0
    4.7554   -4.0291    2.3734 C   0  0  0  0  0  0  0  0  0  0  0  0
    5.3442   -4.3760    3.5424 C   0  0  0  0  0  0  0  0  0  0  0  0
    6.6168   -5.5456    3.5680 Cl  0  0  0  0  0  0  0  0  0  0  0  0
    4.6644   -4.0937    4.7884 C   0  0  0  0  0  0  0  0  0  0  0  0
    5.1689   -3.0514    5.4663 C   0  0  0  0  0  0  0  0  0  0  0  0
    4.3744   -1.7739    5.4372 C   0  0  1  0  0  0  0  0  0  0  0  0
    4.9889   -0.6821    6.2784 C   0  0  0  0  0  0  0  0  0  0  0  0
    4.9925   -0.5955    7.5037 O   0  0  0  0  0  0  0  0  0  0  0  0
    5.6316    0.3185    5.3440 C   0  0  0  0  0  0  0  0  0  0  0  0
    6.2631    1.3174    5.6834 O   0  0  0  0  0  0  0  0  0  0  0  0
    5.4216   -0.1367    3.9186 C   0  0  0  0  0  0  0  0  0  0  0  0
    4.5617   -1.3205    4.0472 N   0  0  0  0  0  0  0  0  0  0  0  0
    3.6356   -1.5776    3.1108 C   0  0  0  0  0  0  0  0  0  0  0  0
    2.6724   -0.8167    2.9696 O   0  0  0  0  0  0  0  0  0  0  0  0
    3.7805   -2.8213    2.1537 C   0  0  1  0  0  0  0  0  0  0  0  0
    3.8983   -2.2337    0.7277 C   0  0  0  0  0  0  0  0  0  0  0  0
    2.7027   -3.8928    2.4424 C   0  0  2  0  0  0  0  0  0  0  0  0
    2.2098   -4.0557    3.9060 C   0  0  0  0  0  0  0  0  0  0  0  0
    3.2304   -4.6209    4.9628 C   0  0  1  0  0  0  0  0  0  0  0  0
    3.3338   -6.0405    4.9266 O   0  0  0  0  0  0  0  0  0  0  0  0
    2.1857   -6.8013    5.0579 C   0  0  2  0  0  0  0  0  0  0  0  0
    2.1210   -7.3574    6.3437 O   0  0  0  0  0  0  0  0  0  0  0  0
    2.5902   -8.6711    6.4436 C   0  0  1  0  0  0  0  0  0  0  0  0
    3.2396   -8.7991    7.8270 C   0  0  0  0  0  0  0  0  0  0  0  0
    1.3919   -9.6412    6.3050 C   0  0  0  0  0  0  0  0  0  0  0  0
    0.2919   -9.0306    5.4143 C   0  0  0  0  0  0  0  0  0  0  0  0
    0.6959   -8.5827    3.9868 C   0  0  2  0  0  0  0  0  0  0  0  0
    2.1064   -7.8686    3.9058 C   0  0  1  0  0  0  0  0  0  0  0  0
    3.1585   -9.0115    4.1914 C   0  0  1  0  0  0  0  0  0  0  0  0
    4.2503   -8.9211    3.3455 O   0  0  0  0  0  0  0  0  0  0  0  0
    5.0503  -10.0838    3.2222 C   0  0  0  0  0  0  0  0  0  0  0  0
    6.1501   -9.7841    2.1955 C   0  0  0  0  0  0  0  0  0  0  0  0
    5.6266   -9.8580    0.8843 O   0  0  0  0  0  0  0  0  0  0  0  0
    3.5906   -8.9778    5.5162 O   0  0  0  0  0  0  0  0  0  0  0  0
   -1.8449   -9.4525    3.0177 H   0  0  0  0  0  0  0  0  0  0  0  0
   -2.5752   -7.8527    2.8999 H   0  0  0  0  0  0  0  0  0  0  0  0
   -2.1680   -8.5008    4.4683 H   0  0  0  0  0  0  0  0  0  0  0  0
   -0.5386   -6.8131    3.8380 H   0  0  0  0  0  0  0  0  0  0  0  0
    0.0137   -8.4393    1.3304 H   0  0  0  0  0  0  0  0  0  0  0  0
   -0.9683   -6.9919    1.3699 H   0  0  0  0  0  0  0  0  0  0  0  0
    1.3564   -6.5356    0.6723 H   0  0  0  0  0  0  0  0  0  0  0  0
    0.8746   -5.6726    2.1132 H   0  0  0  0  0  0  0  0  0  0  0  0
    2.4992   -8.1764    1.8554 H   0  0  0  0  0  0  0  0  0  0  0  0
    4.3847   -6.6717    2.9523 H   0  0  0  0  0  0  0  0  0  0  0  0
    4.1667   -6.9852    1.3299 H   0  0  0  0  0  0  0  0  0  0  0  0
    3.5150   -4.8798    0.7049 H   0  0  0  0  0  0  0  0  0  0  0  0
    6.2048   -2.8047    5.2373 H   0  0  0  0  0  0  0  0  0  0  0  0
    3.3277   -1.9058    5.7044 H   0  0  0  0  0  0  0  0  0  0  0  0
    4.9558    0.6525    3.3163 H   0  0  0  0  0  0  0  0  0  0  0  0
    6.3747   -0.4382    3.4726 H   0  0  0  0  0  0  0  0  0  0  0  0
    4.6856   -1.4731    0.6773 H   0  0  0  0  0  0  0  0  0  0  0  0
    2.9623   -1.7411    0.4304 H   0  0  0  0  0  0  0  0  0  0  0  0
    4.1240   -2.9701   -0.0416 H   0  0  0  0  0  0  0  0  0  0  0  0
    1.8696   -3.7027    1.7575 H   0  0  0  0  0  0  0  0  0  0  0  0
    1.8649   -3.1042    4.2928 H   0  0  0  0  0  0  0  0  0  0  0  0
    1.2802   -4.6025    3.8807 H   0  0  0  0  0  0  0  0  0  0  0  0
    2.8945   -4.3593    5.9717 H   0  0  0  0  0  0  0  0  0  0  0  0
    1.3015   -6.1892    5.0527 H   0  0  0  0  0  0  0  0  0  0  0  0
    4.0917   -8.1099    7.9043 H   0  0  0  0  0  0  0  0  0  0  0  0
    3.5969   -9.8229    7.9820 H   0  0  0  0  0  0  0  0  0  0  0  0
    2.5172   -8.5503    8.6124 H   0  0  0  0  0  0  0  0  0  0  0  0
    1.7361  -10.6261    5.9792 H   0  0  0  0  0  0  0  0  0  0  0  0
    0.9657   -9.8020    7.2962 H   0  0  0  0  0  0  0  0  0  0  0  0
   -0.4616   -9.8012    5.3326 H   0  0  0  0  0  0  0  0  0  0  0  0
   -0.1753   -8.2018    5.9462 H   0  0  0  0  0  0  0  0  0  0  0  0
    0.7589   -9.5012    3.3986 H   0  0  0  0  0  0  0  0  0  0  0  0
    2.7183   -9.9874    3.9864 H   0  0  0  0  0  0  0  0  0  0  0  0
    5.4937  -10.3126    4.1907 H   0  0  0  0  0  0  0  0  0  0  0  0
    4.4644  -10.9488    2.9122 H   0  0  0  0  0  0  0  0  0  0  0  0
    6.6145   -8.8105    2.3735 H   0  0  0  0  0  0  0  0  0  0  0  0
    6.9293  -10.5398    2.2669 H   0  0  0  0  0  0  0  0  0  0  0  0
    5.0831  -10.6438    0.8095 H   0  0  0  0  0  0  0  0  0  0  0  0
  1  2  1  0
  1 42  1  0
  1 43  1  0
  1 44  1  0
  2 34  1  0
  2  3  1  0
  2 45  1  1
  3  4  1  0
  3 46  1  0
  3 47  1  0
  4  5  1  0
  4 48  1  0
  4 49  1  0
 35  5  1  6
  5  6  1  0
  5 50  1  6
  6  7  1  0
  6 51  1  0
  6 52  1  0
  7 24  1  0
  7  8  1  0
  7 53  1  6
  8 22  1  0
  8  9  2  0
  9 10  1  0
  9 11  1  0
 11 26  1  0
 11 12  2  3
 12 13  1  0
 12 54  1  0
 13 19  1  0
 13 14  1  0
 13 55  1  1
 14 15  2  0
 14 16  1  0
 16 17  2  0
 16 18  1  0
 18 19  1  0
 18 56  1  0
 18 57  1  0
 19 20  1  0
 20 21  2  0
 20 22  1  0
 22 23  1  6
 22 24  1  0
 23 58  1  0
 23 59  1  0
 23 60  1  0
 24 25  1  0
 24 61  1  6
 25 26  1  0
 25 62  1  0
 25 63  1  0
 26 27  1  0
 26 64  1  1
 27 28  1  0
 28 35  1  0
 28 29  1  0
 28 65  1  6
 29 30  1  0
 30 41  1  0
 30 31  1  1
 30 32  1  0
 31 66  1  0
 31 67  1  0
 31 68  1  0
 32 33  1  0
 32 69  1  0
 32 70  1  0
 33 34  1  0
 33 71  1  0
 33 72  1  0
 34 35  1  0
 34 73  1  6
 35 36  1  0
 36 37  1  0
 36 41  1  0
 36 74  1  6
 37 38  1  0
 38 39  1  0
 38 75  1  0
 38 76  1  0
 39 40  1  0
 39 77  1  0
 39 78  1  0
 40 79  1  0
M  END
>  <i_m_ct_stereo_status>  (401) 
1

>  <s_m_source_file>  (401) 
/var/tmp/pbs.5076255.sched01/tmpxe1g82q3/12669a6jj4p.sdf

>  <i_m_source_file_index>  (401) 
33

>  <i_lp_mmshare_version>  (401) 
48012

>  <i_f3d_flags>  (401) 
1

>  <s_epik_input>  (401) 
W0NAXTEyM1tDQEhdNFtDSDJdW0NIMl1bQ0BASF0oW0NIM10pW0NAQEhdMltDSDJdW0NIMl1bQ0BAXShbQ0gzXSkoT1tDQEBIXTNPW0NIMl1bQ0gyXVtPSF0pT1tDQEhdMU9bQ0BIXTVDXDY9W0NIXVxbQ0BASF03TihbQ0gyXUMoPU8pQzc9TylDKD1PKUM4KFtDSDNdKUMoPUM2Q2wpW0NAQEhdKFtDSDJdNClbQ0BIXThbQ0gyXTU=

>  <s_epik_cmdline>  (401) 
J2VwaWtfcHl0aG9uJywgJy1waHQnLCAnMi4wJywgJy1waCcsICc3LjAnLCAnLXRuJywgJzgnLCAnLW1hJywgJzIwMCcsICctaW1hZScsICc8aW5maWxlLm1hZT4nLCAnLW9tYWUnLCAnPG91dGZpbGUubWFlPic=

>  <r_lp_tautomer_probability>  (401) 
1

>  <r_epik_Ionization_Penalty>  (401) 
6.45495e-08

>  <r_epik_Ionization_Penalty_Charging>  (401) 
0

>  <r_epik_Ionization_Penalty_Neutral>  (401) 
6.45495e-08

>  <r_epik_State_Penalty>  (401) 
-0

>  <r_epik_Charging_Adjusted_Penalty>  (401) 
0

>  <i_epik_Tot_Q>  (401) 
0

>  <i_epik_Tot_abs_Q>  (401) 
0

>  <s_epik_Chemistry_Notes>  (401) 
This compound contains an acetal/aminal-like group ( X-CH(R)-Y where X, Y are N, S, or O) that may be acid/base labile, releasing an aldehyde.

>  <s_lp_Force_Field>  (401) 
OPLS3e

>  <r_lp_Energy>  (401) 
187.705

>  <b_lp_Chiralities_Consistent>  (401) 
1

>  <s_lp_Variant>  (401) 
115:0-4

>  <s_i_glide_gridfile>  (401) 
pfpi4k_grid

>  <i_i_glide_lignum>  (401) 
33

>  <i_i_glide_rotatable_bonds>  (401) 
4

>  <r_i_docking_score>  (401) 
-2.23554

>  <r_i_glide_ligand_efficiency>  (401) 
-0.0545254

>  <r_i_glide_ligand_efficiency_sa>  (401) 
-0.188015

>  <r_i_glide_ligand_efficiency_ln>  (401) 
-0.474277

>  <r_i_glide_gscore>  (401) 
-2.23554

>  <r_i_glide_lipo>  (401) 
-0.182957

>  <r_i_glide_hbond>  (401) 
0

>  <r_i_glide_metal>  (401) 
-0

>  <r_i_glide_rewards>  (401) 
-0.161431

>  <r_i_glide_evdw>  (401) 
-24.1931

>  <r_i_glide_ecoul>  (401) 
-4.88327

>  <r_i_glide_erotb>  (401) 
0.0749695

>  <r_i_glide_esite>  (401) 
-0.0239754

>  <r_i_glide_emodel>  (401) 
-32.0093

>  <r_i_glide_energy>  (401) 
-29.0764

>  <r_i_glide_einternal>  (401) 
2.29467

>  <r_i_glide_intrahb_reward>  (401) 
-0

>  <i_i_glide_confnum>  (401) 
2

>  <i_i_glide_posenum>  (401) 
36

>  <r_i_glide_eff_state_penalty>  (401) 
0

>  <ligand_id>  (401) 
115

>  <original_smiles>  (401) 
CC1CCC2CC3C4=C(Cl)C5=CC6C(=O)C(=O)CN6C(=O)C4(C)C3CC5OC3OC4(C)CCC1C23C(OCCO)O4

>  <smiles>  (401) 
[H]OC([H])([H])C([H])([H])OC1([H])OC2(C([H])([H])[H])OC3([H])OC4([H])C5=C([H])C6([H])C(=O)C(=O)C([H])([H])N6C(=O)C6(C([H])([H])[H])C(=C5Cl)C([H])(C([H])([H])C5([H])C([H])([H])C([H])([H])C([H])(C([H])([H])[H])C([H])(C([H])([H])C2([H])[H])C135)C6([H])C4([H])[H]

$$$$
115:4:0
     RDKit          3D

 79 86  0  0  1  0  0  0  0  0999 V2000
    0.1565  -10.0548    2.8775 C   0  0  0  0  0  0  0  0  0  0  0  0
    1.1598   -9.0344    3.4664 C   0  0  2  0  0  0  0  0  0  0  0  0
    0.4010   -7.9486    4.2629 C   0  0  0  0  0  0  0  0  0  0  0  0
    0.1499   -6.6404    3.4949 C   0  0  0  0  0  0  0  0  0  0  0  0
    1.3887   -6.0146    2.7750 C   0  0  1  0  0  0  0  0  0  0  0  0
    1.4191   -4.4358    2.9869 C   0  0  0  0  0  0  0  0  0  0  0  0
    2.3290   -4.1908    4.1369 C   0  0  1  0  0  0  0  0  0  0  0  0
    2.8372   -2.9700    5.0585 C   0  0  0  0  0  0  0  0  0  0  0  0
    4.0153   -2.7627    5.6590 C   0  0  0  0  0  0  0  0  0  0  0  0
    4.4677   -1.5577    6.8101 Cl  0  0  0  0  0  0  0  0  0  0  0  0
    4.8349   -3.7412    5.0962 C   0  0  0  0  0  0  0  0  0  0  0  0
    5.0918   -3.3332    3.7996 C   0  0  0  0  0  0  0  0  0  0  0  0
    4.5879   -1.9223    3.2030 C   0  0  1  0  0  0  0  0  0  0  0  0
    5.1619   -1.7595    1.8081 C   0  0  0  0  0  0  0  0  0  0  0  0
    6.2547   -2.1385    1.3863 O   0  0  0  0  0  0  0  0  0  0  0  0
    4.1615   -0.9907    0.9905 C   0  0  0  0  0  0  0  0  0  0  0  0
    4.3115   -0.6599   -0.1860 O   0  0  0  0  0  0  0  0  0  0  0  0
    2.9502   -0.6672    1.8376 C   0  0  0  0  0  0  0  0  0  0  0  0
    3.0833   -1.4553    3.0783 N   0  0  0  0  0  0  0  0  0  0  0  0
    1.8735   -1.5895    3.8495 C   0  0  0  0  0  0  0  0  0  0  0  0
    0.8743   -0.9513    3.5129 O   0  0  0  0  0  0  0  0  0  0  0  0
    1.6044   -2.5344    5.1779 C   0  0  2  0  0  0  0  0  0  0  0  0
    1.1852   -1.6779    6.3791 C   0  0  0  0  0  0  0  0  0  0  0  0
    1.7443   -4.2395    5.4560 C   0  0  2  0  0  0  0  0  0  0  0  0
    2.8763   -5.1230    6.2771 C   0  0  0  0  0  0  0  0  0  0  0  0
    4.3923   -5.1927    5.5822 C   0  0  1  0  0  0  0  0  0  0  0  0
    4.5093   -6.1098    4.4539 O   0  0  0  0  0  0  0  0  0  0  0  0
    3.5811   -7.1525    4.1462 C   0  0  2  0  0  0  0  0  0  0  0  0
    4.3445   -8.2913    3.9804 O   0  0  0  0  0  0  0  0  0  0  0  0
    5.0427   -8.3414    2.7631 C   0  0  1  0  0  0  0  0  0  0  0  0
    6.5220   -8.5416    3.1273 C   0  0  0  0  0  0  0  0  0  0  0  0
    4.4970   -9.5628    2.0175 C   0  0  0  0  0  0  0  0  0  0  0  0
    3.0136   -9.4372    1.6412 C   0  0  0  0  0  0  0  0  0  0  0  0
    2.1023   -8.4123    2.4011 C   0  0  2  0  0  0  0  0  0  0  0  0
    2.7061   -6.9931    2.7884 C   0  0  1  0  0  0  0  0  0  0  0  0
    3.7216   -6.6619    1.6478 C   0  0  1  0  0  0  0  0  0  0  0  0
    3.7954   -5.2836    1.4731 O   0  0  0  0  0  0  0  0  0  0  0  0
    3.5852   -4.8091    0.1473 C   0  0  0  0  0  0  0  0  0  0  0  0
    4.8416   -4.9508   -0.7168 C   0  0  0  0  0  0  0  0  0  0  0  0
    4.6347   -4.2580   -1.9248 O   0  0  0  0  0  0  0  0  0  0  0  0
    4.9937   -7.1805    1.9478 O   0  0  0  0  0  0  0  0  0  0  0  0
   -0.4780   -9.6172    2.1040 H   0  0  0  0  0  0  0  0  0  0  0  0
   -0.5002  -10.4479    3.6519 H   0  0  0  0  0  0  0  0  0  0  0  0
    0.6458  -10.9245    2.4450 H   0  0  0  0  0  0  0  0  0  0  0  0
    1.7694   -9.5883    4.1793 H   0  0  0  0  0  0  0  0  0  0  0  0
   -0.5578   -8.3455    4.5948 H   0  0  0  0  0  0  0  0  0  0  0  0
    0.9254   -7.7306    5.1913 H   0  0  0  0  0  0  0  0  0  0  0  0
   -0.6343   -6.8215    2.7601 H   0  0  0  0  0  0  0  0  0  0  0  0
   -0.2975   -5.9339    4.1941 H   0  0  0  0  0  0  0  0  0  0  0  0
    1.0921   -6.0546    1.7253 H   0  0  0  0  0  0  0  0  0  0  0  0
    1.8031   -3.9331    2.0998 H   0  0  0  0  0  0  0  0  0  0  0  0
    0.4294   -4.0234    3.1802 H   0  0  0  0  0  0  0  0  0  0  0  0
    3.1115   -4.7471    3.7389 H   0  0  0  0  0  0  0  0  0  0  0  0
    5.3942   -4.0835    3.0811 H   0  0  0  0  0  0  0  0  0  0  0  0
    5.0594   -1.1581    3.8236 H   0  0  0  0  0  0  0  0  0  0  0  0
    2.9403    0.4002    2.0644 H   0  0  0  0  0  0  0  0  0  0  0  0
    2.0544   -0.9229    1.2726 H   0  0  0  0  0  0  0  0  0  0  0  0
    1.6164   -0.6771    6.3663 H   0  0  0  0  0  0  0  0  0  0  0  0
    1.4265   -2.1485    7.3331 H   0  0  0  0  0  0  0  0  0  0  0  0
    0.1005   -1.5451    6.3640 H   0  0  0  0  0  0  0  0  0  0  0  0
    0.7439   -4.6712    5.5235 H   0  0  0  0  0  0  0  0  0  0  0  0
    2.9990   -4.7104    7.2822 H   0  0  0  0  0  0  0  0  0  0  0  0
    2.4888   -6.1143    6.4762 H   0  0  0  0  0  0  0  0  0  0  0  0
    5.1054   -5.5389    6.3363 H   0  0  0  0  0  0  0  0  0  0  0  0
    2.9800   -7.4131    5.0019 H   0  0  0  0  0  0  0  0  0  0  0  0
    6.8836   -7.6848    3.7020 H   0  0  0  0  0  0  0  0  0  0  0  0
    7.1261   -8.6367    2.2224 H   0  0  0  0  0  0  0  0  0  0  0  0
    6.6426   -9.4415    3.7338 H   0  0  0  0  0  0  0  0  0  0  0  0
    5.0988   -9.7432    1.1249 H   0  0  0  0  0  0  0  0  0  0  0  0
    4.6330  -10.4329    2.6605 H   0  0  0  0  0  0  0  0  0  0  0  0
    2.9697   -9.2298    0.5744 H   0  0  0  0  0  0  0  0  0  0  0  0
    2.5972  -10.4361    1.7054 H   0  0  0  0  0  0  0  0  0  0  0  0
    1.4033   -8.1824    1.5951 H   0  0  0  0  0  0  0  0  0  0  0  0
    3.4167   -7.1077    0.7027 H   0  0  0  0  0  0  0  0  0  0  0  0
    2.7236   -5.2980   -0.3157 H   0  0  0  0  0  0  0  0  0  0  0  0
    3.3278   -3.7508    0.2161 H   0  0  0  0  0  0  0  0  0  0  0  0
    5.7176   -4.5393   -0.2149 H   0  0  0  0  0  0  0  0  0  0  0  0
    5.0222   -5.9988   -0.9520 H   0  0  0  0  0  0  0  0  0  0  0  0
    3.9695   -4.7483   -2.3996 H   0  0  0  0  0  0  0  0  0  0  0  0
  1  2  1  0
  1 42  1  0
  1 43  1  0
  1 44  1  0
  2 34  1  0
  2  3  1  0
  2 45  1  1
  3  4  1  0
  3 46  1  0
  3 47  1  0
  4  5  1  0
  4 48  1  0
  4 49  1  0
 35  5  1  1
  5  6  1  0
  5 50  1  6
  6  7  1  0
  6 51  1  0
  6 52  1  0
  7 24  1  0
  7  8  1  0
  7 53  1  1
  8 22  1  0
  8  9  2  0
  9 10  1  0
  9 11  1  0
 11 26  1  0
 11 12  2  3
 12 13  1  0
 12 54  1  0
 13 19  1  0
 13 14  1  0
 13 55  1  1
 14 15  2  0
 14 16  1  0
 16 17  2  0
 16 18  1  0
 18 19  1  0
 18 56  1  0
 18 57  1  0
 19 20  1  0
 20 21  2  0
 20 22  1  0
 22 23  1  1
 22 24  1  0
 23 58  1  0
 23 59  1  0
 23 60  1  0
 24 25  1  0
 24 61  1  6
 25 26  1  0
 25 62  1  0
 25 63  1  0
 26 27  1  0
 26 64  1  1
 27 28  1  0
 28 35  1  0
 28 29  1  0
 28 65  1  1
 29 30  1  0
 30 41  1  0
 30 31  1  1
 30 32  1  0
 31 66  1  0
 31 67  1  0
 31 68  1  0
 32 33  1  0
 32 69  1  0
 32 70  1  0
 33 34  1  0
 33 71  1  0
 33 72  1  0
 34 35  1  0
 34 73  1  6
 35 36  1  0
 36 37  1  0
 36 41  1  0
 36 74  1  6
 37 38  1  0
 38 39  1  0
 38 75  1  0
 38 76  1  0
 39 40  1  0
 39 77  1  0
 39 78  1  0
 40 79  1  0
M  END
>  <i_m_ct_stereo_status>  (402) 
1

>  <s_m_source_file>  (402) 
/var/tmp/pbs.5076255.sched01/tmpxe1g82q3/12669a6jj4p.sdf

>  <i_m_source_file_index>  (402) 
34

>  <i_lp_mmshare_version>  (402) 
48012

>  <i_f3d_flags>  (402) 
0

>  <s_epik_input>  (402) 
W0NAXTEyM1tDQEhdNFtDSDJdW0NIMl1bQ0BASF0oW0NIM10pW0NAQEhdMltDSDJdW0NIMl1bQ0BAXShbQ0gzXSkoT1tDQEBIXTNPW0NIMl1bQ0gyXVtPSF0pT1tDQEhdMU9bQ0BIXTVDXDY9W0NIXVxbQ0BASF03TihbQ0gyXUMoPU8pQzc9TylDKD1PKUM4KFtDSDNdKUMoPUM2Q2wpW0NAQEhdKFtDSDJdNClbQ0BIXThbQ0gyXTU=

>  <s_epik_cmdline>  (402) 
J2VwaWtfcHl0aG9uJywgJy1waHQnLCAnMi4wJywgJy1waCcsICc3LjAnLCAnLXRuJywgJzgnLCAnLW1hJywgJzIwMCcsICctaW1hZScsICc8aW5maWxlLm1hZT4nLCAnLW9tYWUnLCAnPG91dGZpbGUubWFlPic=

>  <r_lp_tautomer_probability>  (402) 
1

>  <r_epik_Ionization_Penalty>  (402) 
6.45495e-08

>  <r_epik_Ionization_Penalty_Charging>  (402) 
0

>  <r_epik_Ionization_Penalty_Neutral>  (402) 
6.45495e-08

>  <r_epik_State_Penalty>  (402) 
-0

>  <r_epik_Charging_Adjusted_Penalty>  (402) 
0

>  <i_epik_Tot_Q>  (402) 
0

>  <i_epik_Tot_abs_Q>  (402) 
0

>  <s_epik_Chemistry_Notes>  (402) 
This compound contains an acetal/aminal-like group ( X-CH(R)-Y where X, Y are N, S, or O) that may be acid/base labile, releasing an aldehyde.

>  <s_lp_Force_Field>  (402) 
OPLS3e

>  <r_lp_Energy>  (402) 
379.421

>  <b_lp_Chiralities_Consistent>  (402) 
1

>  <s_lp_Variant>  (402) 
115:0-5

>  <s_i_glide_gridfile>  (402) 
pfpi4k_grid

>  <i_i_glide_lignum>  (402) 
34

>  <i_i_glide_rotatable_bonds>  (402) 
4

>  <r_i_docking_score>  (402) 
-2.58222

>  <r_i_glide_ligand_efficiency>  (402) 
-0.0629811

>  <r_i_glide_ligand_efficiency_sa>  (402) 
-0.217172

>  <r_i_glide_ligand_efficiency_ln>  (402) 
-0.547827

>  <r_i_glide_gscore>  (402) 
-2.58222

>  <r_i_glide_lipo>  (402) 
-0.132338

>  <r_i_glide_hbond>  (402) 
-0.32

>  <r_i_glide_metal>  (402) 
-0

>  <r_i_glide_rewards>  (402) 
-0.203373

>  <r_i_glide_evdw>  (402) 
-27.0605

>  <r_i_glide_ecoul>  (402) 
-4.31209

>  <r_i_glide_erotb>  (402) 
0.0749695

>  <r_i_glide_esite>  (402) 
-0.00164619

>  <r_i_glide_emodel>  (402) 
-34.7226

>  <r_i_glide_energy>  (402) 
-31.3725

>  <r_i_glide_einternal>  (402) 
2.91457

>  <r_i_glide_intrahb_reward>  (402) 
-0

>  <i_i_glide_confnum>  (402) 
1

>  <i_i_glide_posenum>  (402) 
1

>  <r_i_glide_eff_state_penalty>  (402) 
0

>  <ligand_id>  (402) 
115

>  <original_smiles>  (402) 
CC1CCC2CC3C4=C(Cl)C5=CC6C(=O)C(=O)CN6C(=O)C4(C)C3CC5OC3OC4(C)CCC1C23C(OCCO)O4

>  <smiles>  (402) 
[H]OC([H])([H])C([H])([H])OC1([H])OC2(C([H])([H])[H])OC3([H])OC4([H])C5=C([H])C6([H])C(=O)C(=O)C([H])([H])N6C(=O)C6(C([H])([H])[H])C(=C5Cl)C([H])(C([H])([H])C5([H])C([H])([H])C([H])([H])C([H])(C([H])([H])[H])C([H])(C([H])([H])C2([H])[H])C135)C6([H])C4([H])[H]

$$$$
115:4:1
     RDKit          3D

 79 86  0  0  1  0  0  0  0  0999 V2000
    0.4759  -10.3276    3.0026 C   0  0  0  0  0  0  0  0  0  0  0  0
    1.4665   -9.2504    3.5061 C   0  0  2  0  0  0  0  0  0  0  0  0
    0.6897   -8.1156    4.2098 C   0  0  0  0  0  0  0  0  0  0  0  0
    0.4414   -6.8653    3.3489 C   0  0  0  0  0  0  0  0  0  0  0  0
    1.6826   -6.2983    2.5858 C   0  0  1  0  0  0  0  0  0  0  0  0
    1.7077   -4.7091    2.6558 C   0  0  0  0  0  0  0  0  0  0  0  0
    2.6291   -4.3319    3.7820 C   0  0  1  0  0  0  0  0  0  0  0  0
    3.1450   -3.0403    4.6326 C   0  0  0  0  0  0  0  0  0  0  0  0
    4.3343   -2.7934    5.2011 C   0  0  0  0  0  0  0  0  0  0  0  0
    4.8287   -1.5226    6.2546 Cl  0  0  0  0  0  0  0  0  0  0  0  0
    5.1379   -3.8141    4.6898 C   0  0  0  0  0  0  0  0  0  0  0  0
    5.3821   -3.5013    3.3611 C   0  0  0  0  0  0  0  0  0  0  0  0
    4.8706   -2.1321    2.6902 C   0  0  1  0  0  0  0  0  0  0  0  0
    5.5054   -1.9280    1.3402 C   0  0  0  0  0  0  0  0  0  0  0  0
    6.6171   -2.3163    0.9191 O   0  0  0  0  0  0  0  0  0  0  0  0
    4.4909   -1.2067    0.4401 C   0  0  0  0  0  0  0  0  0  0  0  0
    4.6601   -0.9854   -0.7706 O   0  0  0  0  0  0  0  0  0  0  0  0
    3.2231   -0.9707    1.2188 C   0  0  0  0  0  0  0  0  0  0  0  0
    3.3691   -1.7204    2.4796 N   0  0  0  0  0  0  0  0  0  0  0  0
    2.1618   -1.7708    3.2836 C   0  0  0  0  0  0  0  0  0  0  0  0
    1.1653   -1.1714    2.9069 O   0  0  0  0  0  0  0  0  0  0  0  0
    1.9174   -2.5975    4.6902 C   0  0  2  0  0  0  0  0  0  0  0  0
    1.4520   -1.6648    5.8208 C   0  0  0  0  0  0  0  0  0  0  0  0
    2.0508   -4.2888    5.0940 C   0  0  2  0  0  0  0  0  0  0  0  0
    3.1833   -5.1248    5.9698 C   0  0  0  0  0  0  0  0  0  0  0  0
    4.7036   -5.2359    5.2829 C   0  0  1  0  0  0  0  0  0  0  0  0
    4.8058   -6.2444    4.2330 O   0  0  0  0  0  0  0  0  0  0  0  0
    3.8853   -7.3108    4.0297 C   0  0  2  0  0  0  0  0  0  0  0  0
    4.6726   -8.4468    3.9577 O   0  0  0  0  0  0  0  0  0  0  0  0
    5.3628   -8.5997    2.7507 C   0  0  1  0  0  0  0  0  0  0  0  0
    6.8470   -8.7638    3.1250 C   0  0  0  0  0  0  0  0  0  0  0  0
    4.7995   -9.8745    2.0999 C   0  0  0  0  0  0  0  0  0  0  0  0
    3.3094   -9.7847    1.7187 C   0  0  0  0  0  0  0  0  0  0  0  0
    2.3982   -8.7040    2.3893 C   0  0  2  0  0  0  0  0  0  0  0  0
    3.0052   -7.2610    2.6723 C   0  0  1  0  0  0  0  0  0  0  0  0
    4.0271   -7.0249    1.5181 C   0  0  1  0  0  0  0  0  0  0  0  0
    4.0822   -5.6787    1.1907 O   0  0  0  0  0  0  0  0  0  0  0  0
    4.7327   -5.4264   -0.0594 C   0  0  0  0  0  0  0  0  0  0  0  0
    4.1843   -4.1302   -0.6565 C   0  0  0  0  0  0  0  0  0  0  0  0
    4.5897   -3.9466   -1.9991 O   0  0  0  0  0  0  0  0  0  0  0  0
    5.3052   -7.4977    1.8683 O   0  0  0  0  0  0  0  0  0  0  0  0
   -0.1594   -9.9413    2.2066 H   0  0  0  0  0  0  0  0  0  0  0  0
   -0.1693  -10.6636    3.8134 H   0  0  0  0  0  0  0  0  0  0  0  0
    0.9619  -11.2275    2.6334 H   0  0  0  0  0  0  0  0  0  0  0  0
    2.0962   -9.7252    4.2619 H   0  0  0  0  0  0  0  0  0  0  0  0
   -0.2551   -8.4937    4.6075 H   0  0  0  0  0  0  0  0  0  0  0  0
    1.2310   -7.8113    5.1017 H   0  0  0  0  0  0  0  0  0  0  0  0
   -0.3655   -7.0620    2.6437 H   0  0  0  0  0  0  0  0  0  0  0  0
    0.0205   -6.1255    4.0226 H   0  0  0  0  0  0  0  0  0  0  0  0
    1.3814   -6.4137    1.5469 H   0  0  0  0  0  0  0  0  0  0  0  0
    2.0777   -4.2870    1.7218 H   0  0  0  0  0  0  0  0  0  0  0  0
    0.7118   -4.2989    2.8076 H   0  0  0  0  0  0  0  0  0  0  0  0
    3.4096   -4.9206    3.4369 H   0  0  0  0  0  0  0  0  0  0  0  0
    5.6867   -4.3142    2.7202 H   0  0  0  0  0  0  0  0  0  0  0  0
    5.2881   -1.3293    3.2956 H   0  0  0  0  0  0  0  0  0  0  0  0
    3.1376    0.0893    1.3942 H   0  0  0  0  0  0  0  0  0  0  0  0
    2.3860   -1.2967    0.6297 H   0  0  0  0  0  0  0  0  0  0  0  0
    1.8545   -0.6556    5.7520 H   0  0  0  0  0  0  0  0  0  0  0  0
    1.6811   -2.0594    6.8095 H   0  0  0  0  0  0  0  0  0  0  0  0
    0.3657   -1.5668    5.7777 H   0  0  0  0  0  0  0  0  0  0  0  0
    1.0512   -4.7091    5.1892 H   0  0  0  0  0  0  0  0  0  0  0  0
    3.2911   -4.6311    6.9409 H   0  0  0  0  0  0  0  0  0  0  0  0
    2.7743   -6.0941    6.2517 H   0  0  0  0  0  0  0  0  0  0  0  0
    5.3995   -5.5546    6.0624 H   0  0  0  0  0  0  0  0  0  0  0  0
    3.3070   -7.5204    4.9154 H   0  0  0  0  0  0  0  0  0  0  0  0
    7.1986   -7.8613    3.6206 H   0  0  0  0  0  0  0  0  0  0  0  0
    7.4450   -8.9216    2.2316 H   0  0  0  0  0  0  0  0  0  0  0  0
    6.9848   -9.6050    3.8010 H   0  0  0  0  0  0  0  0  0  0  0  0
    5.3910  -10.1204    1.2190 H   0  0  0  0  0  0  0  0  0  0  0  0
    4.9321  -10.6968    2.8037 H   0  0  0  0  0  0  0  0  0  0  0  0
    3.2504   -9.6762    0.6339 H   0  0  0  0  0  0  0  0  0  0  0  0
    2.8948  -10.7785    1.8715 H   0  0  0  0  0  0  0  0  0  0  0  0
    1.6880   -8.5535    1.5725 H   0  0  0  0  0  0  0  0  0  0  0  0
    3.7362   -7.5445    0.6110 H   0  0  0  0  0  0  0  0  0  0  0  0
    5.8209   -5.3403    0.1126 H   0  0  0  0  0  0  0  0  0  0  0  0
    4.5635   -6.2439   -0.7780 H   0  0  0  0  0  0  0  0  0  0  0  0
    3.1096   -3.9610   -0.5074 H   0  0  0  0  0  0  0  0  0  0  0  0
    4.7369   -3.4357   -0.1448 H   0  0  0  0  0  0  0  0  0  0  0  0
    4.1194   -4.5483   -2.5682 H   0  0  0  0  0  0  0  0  0  0  0  0
  1  2  1  0
  1 42  1  0
  1 43  1  0
  1 44  1  0
  2 34  1  0
  2  3  1  0
  2 45  1  1
  3  4  1  0
  3 46  1  0
  3 47  1  0
  4  5  1  0
  4 48  1  0
  4 49  1  0
 35  5  1  1
  5  6  1  0
  5 50  1  6
  6  7  1  0
  6 51  1  0
  6 52  1  0
  7 24  1  0
  7  8  1  0
  7 53  1  1
  8 22  1  0
  8  9  2  0
  9 10  1  0
  9 11  1  0
 11 26  1  0
 11 12  2  3
 12 13  1  0
 12 54  1  0
 13 19  1  0
 13 14  1  0
 13 55  1  1
 14 15  2  0
 14 16  1  0
 16 17  2  0
 16 18  1  0
 18 19  1  0
 18 56  1  0
 18 57  1  0
 19 20  1  0
 20 21  2  0
 20 22  1  0
 22 23  1  1
 22 24  1  0
 23 58  1  0
 23 59  1  0
 23 60  1  0
 24 25  1  0
 24 61  1  6
 25 26  1  0
 25 62  1  0
 25 63  1  0
 26 27  1  0
 26 64  1  1
 27 28  1  0
 28 35  1  0
 28 29  1  0
 28 65  1  1
 29 30  1  0
 30 41  1  0
 30 31  1  1
 30 32  1  0
 31 66  1  0
 31 67  1  0
 31 68  1  0
 32 33  1  0
 32 69  1  0
 32 70  1  0
 33 34  1  0
 33 71  1  0
 33 72  1  0
 34 35  1  0
 34 73  1  6
 35 36  1  0
 36 37  1  0
 36 41  1  0
 36 74  1  6
 37 38  1  0
 38 39  1  0
 38 75  1  0
 38 76  1  0
 39 40  1  0
 39 77  1  0
 39 78  1  0
 40 79  1  0
M  END
>  <i_m_ct_stereo_status>  (403) 
1

>  <s_m_source_file>  (403) 
/var/tmp/pbs.5076255.sched01/tmpxe1g82q3/12669a6jj4p.sdf

>  <i_m_source_file_index>  (403) 
34

>  <i_lp_mmshare_version>  (403) 
48012

>  <i_f3d_flags>  (403) 
0

>  <s_epik_input>  (403) 
W0NAXTEyM1tDQEhdNFtDSDJdW0NIMl1bQ0BASF0oW0NIM10pW0NAQEhdMltDSDJdW0NIMl1bQ0BAXShbQ0gzXSkoT1tDQEBIXTNPW0NIMl1bQ0gyXVtPSF0pT1tDQEhdMU9bQ0BIXTVDXDY9W0NIXVxbQ0BASF03TihbQ0gyXUMoPU8pQzc9TylDKD1PKUM4KFtDSDNdKUMoPUM2Q2wpW0NAQEhdKFtDSDJdNClbQ0BIXThbQ0gyXTU=

>  <s_epik_cmdline>  (403) 
J2VwaWtfcHl0aG9uJywgJy1waHQnLCAnMi4wJywgJy1waCcsICc3LjAnLCAnLXRuJywgJzgnLCAnLW1hJywgJzIwMCcsICctaW1hZScsICc8aW5maWxlLm1hZT4nLCAnLW9tYWUnLCAnPG91dGZpbGUubWFlPic=

>  <r_lp_tautomer_probability>  (403) 
1

>  <r_epik_Ionization_Penalty>  (403) 
6.45495e-08

>  <r_epik_Ionization_Penalty_Charging>  (403) 
0

>  <r_epik_Ionization_Penalty_Neutral>  (403) 
6.45495e-08

>  <r_epik_State_Penalty>  (403) 
-0

>  <r_epik_Charging_Adjusted_Penalty>  (403) 
0

>  <i_epik_Tot_Q>  (403) 
0

>  <i_epik_Tot_abs_Q>  (403) 
0

>  <s_epik_Chemistry_Notes>  (403) 
This compound contains an acetal/aminal-like group ( X-CH(R)-Y where X, Y are N, S, or O) that may be acid/base labile, releasing an aldehyde.

>  <s_lp_Force_Field>  (403) 
OPLS3e

>  <r_lp_Energy>  (403) 
379.421

>  <b_lp_Chiralities_Consistent>  (403) 
1

>  <s_lp_Variant>  (403) 
115:0-5

>  <s_i_glide_gridfile>  (403) 
pfpi4k_grid

>  <i_i_glide_lignum>  (403) 
34

>  <i_i_glide_rotatable_bonds>  (403) 
4

>  <r_i_docking_score>  (403) 
-2.26999

>  <r_i_glide_ligand_efficiency>  (403) 
-0.0553656

>  <r_i_glide_ligand_efficiency_sa>  (403) 
-0.190912

>  <r_i_glide_ligand_efficiency_ln>  (403) 
-0.481585

>  <r_i_glide_gscore>  (403) 
-2.26999

>  <r_i_glide_lipo>  (403) 
-0.218884

>  <r_i_glide_hbond>  (403) 
0

>  <r_i_glide_metal>  (403) 
-0

>  <r_i_glide_rewards>  (403) 
-0.231478

>  <r_i_glide_evdw>  (403) 
-28.4625

>  <r_i_glide_ecoul>  (403) 
-3.10873

>  <r_i_glide_erotb>  (403) 
0.0749695

>  <r_i_glide_esite>  (403) 
-0.00515749

>  <r_i_glide_emodel>  (403) 
-32.3457

>  <r_i_glide_energy>  (403) 
-31.5713

>  <r_i_glide_einternal>  (403) 
1.27698

>  <r_i_glide_intrahb_reward>  (403) 
-0

>  <i_i_glide_confnum>  (403) 
1

>  <i_i_glide_posenum>  (403) 
20

>  <r_i_glide_eff_state_penalty>  (403) 
0

>  <ligand_id>  (403) 
115

>  <original_smiles>  (403) 
CC1CCC2CC3C4=C(Cl)C5=CC6C(=O)C(=O)CN6C(=O)C4(C)C3CC5OC3OC4(C)CCC1C23C(OCCO)O4

>  <smiles>  (403) 
[H]OC([H])([H])C([H])([H])OC1([H])OC2(C([H])([H])[H])OC3([H])OC4([H])C5=C([H])C6([H])C(=O)C(=O)C([H])([H])N6C(=O)C6(C([H])([H])[H])C(=C5Cl)C([H])(C([H])([H])C5([H])C([H])([H])C([H])([H])C([H])(C([H])([H])[H])C([H])(C([H])([H])C2([H])[H])C135)C6([H])C4([H])[H]

$$$$
115:4:2
     RDKit          3D

 79 86  0  0  1  0  0  0  0  0999 V2000
    1.0856  -11.7396    3.6382 C   0  0  0  0  0  0  0  0  0  0  0  0
    1.7455  -10.5515    4.3665 C   0  0  2  0  0  0  0  0  0  0  0  0
    0.8223  -10.0200    5.4815 C   0  0  0  0  0  0  0  0  0  0  0  0
   -0.0200   -8.7899    5.0956 C   0  0  0  0  0  0  0  0  0  0  0  0
    0.7630   -7.6023    4.4471 C   0  0  1  0  0  0  0  0  0  0  0  0
    0.2609   -6.2036    5.0316 C   0  0  0  0  0  0  0  0  0  0  0  0
    1.2286   -5.8669    6.1074 C   0  0  1  0  0  0  0  0  0  0  0  0
    1.4312   -4.7534    7.2482 C   0  0  0  0  0  0  0  0  0  0  0  0
    2.5466   -4.2208    7.7898 C   0  0  0  0  0  0  0  0  0  0  0  0
    2.7441   -3.1952    9.1434 Cl  0  0  0  0  0  0  0  0  0  0  0  0
    3.5394   -4.6797    6.9109 C   0  0  0  0  0  0  0  0  0  0  0  0
    3.4046   -3.9503    5.7536 C   0  0  0  0  0  0  0  0  0  0  0  0
    2.3326   -2.7590    5.5772 C   0  0  1  0  0  0  0  0  0  0  0  0
    2.5470   -2.0975    4.2312 C   0  0  0  0  0  0  0  0  0  0  0  0
    3.6160   -1.9374    3.6363 O   0  0  0  0  0  0  0  0  0  0  0  0
    1.2271   -1.6332    3.7386 C   0  0  0  0  0  0  0  0  0  0  0  0
    1.0198   -1.0299    2.6803 O   0  0  0  0  0  0  0  0  0  0  0  0
    0.1340   -1.9945    4.7269 C   0  0  0  0  0  0  0  0  0  0  0  0
    0.7608   -2.9032    5.7189 N   0  0  0  0  0  0  0  0  0  0  0  0
   -0.1517   -3.6365    6.5416 C   0  0  0  0  0  0  0  0  0  0  0  0
   -1.3579   -3.3370    6.4946 O   0  0  0  0  0  0  0  0  0  0  0  0
    0.1563   -4.8592    7.6025 C   0  0  2  0  0  0  0  0  0  0  0  0
   -0.2950   -4.4836    9.0155 C   0  0  0  0  0  0  0  0  0  0  0  0
    0.9658   -6.3889    7.4328 C   0  0  2  0  0  0  0  0  0  0  0  0
    2.4468   -6.9037    7.8897 C   0  0  0  0  0  0  0  0  0  0  0  0
    3.7406   -6.2488    7.0649 C   0  0  1  0  0  0  0  0  0  0  0  0
    3.9657   -6.8147    5.7429 O   0  0  0  0  0  0  0  0  0  0  0  0
    3.4362   -8.0590    5.2838 C   0  0  2  0  0  0  0  0  0  0  0  0
    4.5115   -8.7578    4.7578 O   0  0  0  0  0  0  0  0  0  0  0  0
    4.9224   -8.2813    3.5143 C   0  0  1  0  0  0  0  0  0  0  0  0
    6.4360   -7.9661    3.6531 C   0  0  0  0  0  0  0  0  0  0  0  0
    4.7359   -9.4508    2.5172 C   0  0  0  0  0  0  0  0  0  0  0  0
    3.2533   -9.8345    2.3356 C   0  0  0  0  0  0  0  0  0  0  0  0
    2.2067   -9.4201    3.4223 C   0  0  2  0  0  0  0  0  0  0  0  0
    2.3200   -7.9908    4.1012 C   0  0  1  0  0  0  0  0  0  0  0  0
    2.9205   -7.0812    2.9927 C   0  0  1  0  0  0  0  0  0  0  0  0
    2.4222   -5.7864    3.0854 O   0  0  0  0  0  0  0  0  0  0  0  0
    2.7945   -4.9019    2.0316 C   0  0  0  0  0  0  0  0  0  0  0  0
    2.4381   -5.4365    0.6345 C   0  0  0  0  0  0  0  0  0  0  0  0
    2.4771   -4.4241   -0.3227 O   0  0  0  0  0  0  0  0  0  0  0  0
    4.3243   -7.0968    3.0394 O   0  0  0  0  0  0  0  0  0  0  0  0
    0.2162  -11.4271    3.0604 H   0  0  0  0  0  0  0  0  0  0  0  0
    0.7555  -12.5004    4.3443 H   0  0  0  0  0  0  0  0  0  0  0  0
    1.7574  -12.2467    2.9486 H   0  0  0  0  0  0  0  0  0  0  0  0
    2.6355  -10.9571    4.8591 H   0  0  0  0  0  0  0  0  0  0  0  0
    0.1455  -10.8158    5.7947 H   0  0  0  0  0  0  0  0  0  0  0  0
    1.3910   -9.8074    6.3763 H   0  0  0  0  0  0  0  0  0  0  0  0
   -0.8175   -9.0954    4.4174 H   0  0  0  0  0  0  0  0  0  0  0  0
   -0.5518   -8.4664    5.9909 H   0  0  0  0  0  0  0  0  0  0  0  0
    0.3185   -7.5521    3.4506 H   0  0  0  0  0  0  0  0  0  0  0  0
    0.2741   -5.4418    4.2544 H   0  0  0  0  0  0  0  0  0  0  0  0
   -0.7689   -6.2722    5.3832 H   0  0  0  0  0  0  0  0  0  0  0  0
    2.0711   -5.9767    5.5171 H   0  0  0  0  0  0  0  0  0  0  0  0
    3.8183   -4.3691    4.8380 H   0  0  0  0  0  0  0  0  0  0  0  0
    2.6006   -2.0158    6.3289 H   0  0  0  0  0  0  0  0  0  0  0  0
   -0.2172   -1.0872    5.2240 H   0  0  0  0  0  0  0  0  0  0  0  0
   -0.6909   -2.4592    4.1900 H   0  0  0  0  0  0  0  0  0  0  0  0
   -0.2539   -3.4169    9.2182 H   0  0  0  0  0  0  0  0  0  0  0  0
    0.2631   -5.0080    9.7925 H   0  0  0  0  0  0  0  0  0  0  0  0
   -1.3461   -4.7830    9.1422 H   0  0  0  0  0  0  0  0  0  0  0  0
    0.2001   -7.1862    7.4795 H   0  0  0  0  0  0  0  0  0  0  0  0
    2.6044   -6.6932    8.9505 H   0  0  0  0  0  0  0  0  0  0  0  0
    2.4872   -7.9953    7.8737 H   0  0  0  0  0  0  0  0  0  0  0  0
    4.6592   -6.4380    7.6338 H   0  0  0  0  0  0  0  0  0  0  0  0
    3.1316   -8.6932    6.0979 H   0  0  0  0  0  0  0  0  0  0  0  0
    6.5692   -7.1669    4.3903 H   0  0  0  0  0  0  0  0  0  0  0  0
    6.8517   -7.6356    2.7003 H   0  0  0  0  0  0  0  0  0  0  0  0
    6.9787   -8.8479    3.9951 H   0  0  0  0  0  0  0  0  0  0  0  0
    5.1836   -9.1987    1.5604 H   0  0  0  0  0  0  0  0  0  0  0  0
    5.2794  -10.3070    2.9047 H   0  0  0  0  0  0  0  0  0  0  0  0
    2.9394   -9.4564    1.3642 H   0  0  0  0  0  0  0  0  0  0  0  0
    3.2281  -10.9110    2.1714 H   0  0  0  0  0  0  0  0  0  0  0  0
    1.3320   -9.3176    2.7699 H   0  0  0  0  0  0  0  0  0  0  0  0
    2.5807   -7.4646    2.0429 H   0  0  0  0  0  0  0  0  0  0  0  0
    2.2146   -3.9923    2.1946 H   0  0  0  0  0  0  0  0  0  0  0  0
    3.8436   -4.6168    2.0918 H   0  0  0  0  0  0  0  0  0  0  0  0
    3.1468   -6.2068    0.3216 H   0  0  0  0  0  0  0  0  0  0  0  0
    1.4367   -5.8675    0.6434 H   0  0  0  0  0  0  0  0  0  0  0  0
    2.6141   -4.8360   -1.1671 H   0  0  0  0  0  0  0  0  0  0  0  0
  1  2  1  0
  1 42  1  0
  1 43  1  0
  1 44  1  0
  2 34  1  0
  2  3  1  0
  2 45  1  1
  3  4  1  0
  3 46  1  0
  3 47  1  0
  4  5  1  0
  4 48  1  0
  4 49  1  0
 35  5  1  1
  5  6  1  0
  5 50  1  6
  6  7  1  0
  6 51  1  0
  6 52  1  0
  7 24  1  0
  7  8  1  0
  7 53  1  6
  8 22  1  0
  8  9  2  0
  9 10  1  0
  9 11  1  0
 11 26  1  0
 11 12  2  3
 12 13  1  0
 12 54  1  0
 13 19  1  0
 13 14  1  0
 13 55  1  1
 14 15  2  0
 14 16  1  0
 16 17  2  0
 16 18  1  0
 18 19  1  0
 18 56  1  0
 18 57  1  0
 19 20  1  0
 20 21  2  0
 20 22  1  0
 22 23  1  1
 22 24  1  0
 23 58  1  0
 23 59  1  0
 23 60  1  0
 24 25  1  0
 24 61  1  6
 25 26  1  0
 25 62  1  0
 25 63  1  0
 26 27  1  0
 26 64  1  1
 27 28  1  0
 28 35  1  0
 28 29  1  0
 28 65  1  1
 29 30  1  0
 30 41  1  0
 30 31  1  1
 30 32  1  0
 31 66  1  0
 31 67  1  0
 31 68  1  0
 32 33  1  0
 32 69  1  0
 32 70  1  0
 33 34  1  0
 33 71  1  0
 33 72  1  0
 34 35  1  0
 34 73  1  6
 35 36  1  0
 36 37  1  0
 36 41  1  0
 36 74  1  6
 37 38  1  0
 38 39  1  0
 38 75  1  0
 38 76  1  0
 39 40  1  0
 39 77  1  0
 39 78  1  0
 40 79  1  0
M  END
>  <i_m_ct_stereo_status>  (404) 
1

>  <s_m_source_file>  (404) 
/var/tmp/pbs.5076255.sched01/tmpxe1g82q3/12669a6jj4p.sdf

>  <i_m_source_file_index>  (404) 
34

>  <i_lp_mmshare_version>  (404) 
48012

>  <i_f3d_flags>  (404) 
0

>  <s_epik_input>  (404) 
W0NAXTEyM1tDQEhdNFtDSDJdW0NIMl1bQ0BASF0oW0NIM10pW0NAQEhdMltDSDJdW0NIMl1bQ0BAXShbQ0gzXSkoT1tDQEBIXTNPW0NIMl1bQ0gyXVtPSF0pT1tDQEhdMU9bQ0BIXTVDXDY9W0NIXVxbQ0BASF03TihbQ0gyXUMoPU8pQzc9TylDKD1PKUM4KFtDSDNdKUMoPUM2Q2wpW0NAQEhdKFtDSDJdNClbQ0BIXThbQ0gyXTU=

>  <s_epik_cmdline>  (404) 
J2VwaWtfcHl0aG9uJywgJy1waHQnLCAnMi4wJywgJy1waCcsICc3LjAnLCAnLXRuJywgJzgnLCAnLW1hJywgJzIwMCcsICctaW1hZScsICc8aW5maWxlLm1hZT4nLCAnLW9tYWUnLCAnPG91dGZpbGUubWFlPic=

>  <r_lp_tautomer_probability>  (404) 
1

>  <r_epik_Ionization_Penalty>  (404) 
6.45495e-08

>  <r_epik_Ionization_Penalty_Charging>  (404) 
0

>  <r_epik_Ionization_Penalty_Neutral>  (404) 
6.45495e-08

>  <r_epik_State_Penalty>  (404) 
-0

>  <r_epik_Charging_Adjusted_Penalty>  (404) 
0

>  <i_epik_Tot_Q>  (404) 
0

>  <i_epik_Tot_abs_Q>  (404) 
0

>  <s_epik_Chemistry_Notes>  (404) 
This compound contains an acetal/aminal-like group ( X-CH(R)-Y where X, Y are N, S, or O) that may be acid/base labile, releasing an aldehyde.

>  <s_lp_Force_Field>  (404) 
OPLS3e

>  <r_lp_Energy>  (404) 
379.421

>  <b_lp_Chiralities_Consistent>  (404) 
1

>  <s_lp_Variant>  (404) 
115:0-5

>  <s_i_glide_gridfile>  (404) 
pfpi4k_grid

>  <i_i_glide_lignum>  (404) 
34

>  <i_i_glide_rotatable_bonds>  (404) 
4

>  <r_i_docking_score>  (404) 
-2.13983

>  <r_i_glide_ligand_efficiency>  (404) 
-0.0521909

>  <r_i_glide_ligand_efficiency_sa>  (404) 
-0.179966

>  <r_i_glide_ligand_efficiency_ln>  (404) 
-0.453971

>  <r_i_glide_gscore>  (404) 
-2.13983

>  <r_i_glide_lipo>  (404) 
-0.094204

>  <r_i_glide_hbond>  (404) 
-0.32

>  <r_i_glide_metal>  (404) 
-0

>  <r_i_glide_rewards>  (404) 
0

>  <r_i_glide_evdw>  (404) 
-25.4605

>  <r_i_glide_ecoul>  (404) 
-3.36973

>  <r_i_glide_erotb>  (404) 
0.0749695

>  <r_i_glide_esite>  (404) 
-0.0221066

>  <r_i_glide_emodel>  (404) 
-31.5648

>  <r_i_glide_energy>  (404) 
-28.8303

>  <r_i_glide_einternal>  (404) 
1.89263

>  <r_i_glide_intrahb_reward>  (404) 
-0

>  <i_i_glide_confnum>  (404) 
4

>  <i_i_glide_posenum>  (404) 
9

>  <r_i_glide_eff_state_penalty>  (404) 
0

>  <ligand_id>  (404) 
115

>  <original_smiles>  (404) 
CC1CCC2CC3C4=C(Cl)C5=CC6C(=O)C(=O)CN6C(=O)C4(C)C3CC5OC3OC4(C)CCC1C23C(OCCO)O4

>  <smiles>  (404) 
[H]OC([H])([H])C([H])([H])OC1([H])OC2(C([H])([H])[H])OC3([H])OC4([H])C5=C([H])C6([H])C(=O)C(=O)C([H])([H])N6C(=O)C6(C([H])([H])[H])C(=C5Cl)C([H])(C([H])([H])C5([H])C([H])([H])C([H])([H])C([H])(C([H])([H])[H])C([H])(C([H])([H])C2([H])[H])C135)C6([H])C4([H])[H]

$$$$
115:5:0
     RDKit          3D

 79 86  0  0  1  0  0  0  0  0999 V2000
    4.4726   -3.1490   -3.9260 C   0  0  0  0  0  0  0  0  0  0  0  0
    4.2474   -3.5389   -2.4576 C   0  0  2  0  0  0  0  0  0  0  0  0
    2.7932   -3.2562   -2.0841 C   0  0  0  0  0  0  0  0  0  0  0  0
    2.4615   -3.8803   -0.7332 C   0  0  0  0  0  0  0  0  0  0  0  0
    3.4149   -3.4761    0.4128 C   0  0  1  0  0  0  0  0  0  0  0  0
    3.0181   -4.0682    1.8372 C   0  0  0  0  0  0  0  0  0  0  0  0
    2.0996   -5.3261    2.0189 C   0  0  2  0  0  0  0  0  0  0  0  0
    2.3760   -6.7566    2.7889 C   0  0  0  0  0  0  0  0  0  0  0  0
    3.3856   -7.4595    3.3093 C   0  0  0  0  0  0  0  0  0  0  0  0
    3.4184   -9.0496    3.9617 Cl  0  0  0  0  0  0  0  0  0  0  0  0
    4.4222   -6.5901    3.2301 C   0  0  0  0  0  0  0  0  0  0  0  0
    4.2542   -5.6629    4.2247 C   0  0  0  0  0  0  0  0  0  0  0  0
    3.0273   -5.6712    5.2697 C   0  0  1  0  0  0  0  0  0  0  0  0
    3.0521   -4.3671    6.0557 C   0  0  0  0  0  0  0  0  0  0  0  0
    4.0218   -3.6434    6.3003 O   0  0  0  0  0  0  0  0  0  0  0  0
    1.6582   -4.1184    6.5404 C   0  0  0  0  0  0  0  0  0  0  0  0
    1.2808   -3.1739    7.2463 O   0  0  0  0  0  0  0  0  0  0  0  0
    0.7436   -5.2191    6.0485 C   0  0  0  0  0  0  0  0  0  0  0  0
    1.4870   -5.9034    4.9645 N   0  0  0  0  0  0  0  0  0  0  0  0
    0.6690   -6.4644    3.9274 C   0  0  0  0  0  0  0  0  0  0  0  0
   -0.5590   -6.5028    4.0867 O   0  0  0  0  0  0  0  0  0  0  0  0
    1.1252   -7.1091    2.4815 C   0  0  2  0  0  0  0  0  0  0  0  0
    0.6964   -8.5778    2.3716 C   0  0  0  0  0  0  0  0  0  0  0  0
    2.0312   -6.4958    1.1542 C   0  0  2  0  0  0  0  0  0  0  0  0
    3.6016   -6.8622    0.6958 C   0  0  0  0  0  0  0  0  0  0  0  0
    4.8609   -6.4678    1.7311 C   0  0  1  0  0  0  0  0  0  0  0  0
    5.4706   -5.1929    1.5508 O   0  0  0  0  0  0  0  0  0  0  0  0
    5.7324   -4.7358    0.2694 C   0  0  2  0  0  0  0  0  0  0  0  0
    7.1162   -4.6189    0.0840 O   0  0  0  0  0  0  0  0  0  0  0  0
    7.6478   -3.3686    0.3738 C   0  0  1  0  0  0  0  0  0  0  0  0
    9.0481   -3.6148    0.9754 C   0  0  0  0  0  0  0  0  0  0  0  0
    7.7653   -2.5431   -0.9288 C   0  0  0  0  0  0  0  0  0  0  0  0
    6.6544   -2.9355   -1.9126 C   0  0  0  0  0  0  0  0  0  0  0  0
    5.1895   -2.8657   -1.4339 C   0  0  2  0  0  0  0  0  0  0  0  0
    4.9696   -3.3732    0.0453 C   0  0  1  0  0  0  0  0  0  0  0  0
    5.6519   -2.2644    0.9471 C   0  0  1  0  0  0  0  0  0  0  0  0
    4.8952   -1.9817    2.0786 O   0  0  0  0  0  0  0  0  0  0  0  0
    5.1937   -0.7653    2.7409 C   0  0  0  0  0  0  0  0  0  0  0  0
    4.1348   -0.5509    3.8305 C   0  0  0  0  0  0  0  0  0  0  0  0
    4.3274    0.7010    4.4554 O   0  0  0  0  0  0  0  0  0  0  0  0
    6.9352   -2.6476    1.3164 O   0  0  0  0  0  0  0  0  0  0  0  0
    4.4492   -2.0686   -4.0756 H   0  0  0  0  0  0  0  0  0  0  0  0
    3.7163   -3.5954   -4.5710 H   0  0  0  0  0  0  0  0  0  0  0  0
    5.4170   -3.5481   -4.2798 H   0  0  0  0  0  0  0  0  0  0  0  0
    4.4473   -4.6080   -2.4064 H   0  0  0  0  0  0  0  0  0  0  0  0
    2.6131   -2.1781   -2.0603 H   0  0  0  0  0  0  0  0  0  0  0  0
    2.1198   -3.6594   -2.8419 H   0  0  0  0  0  0  0  0  0  0  0  0
    1.4419   -3.5876   -0.5013 H   0  0  0  0  0  0  0  0  0  0  0  0
    2.4349   -4.9480   -0.8601 H   0  0  0  0  0  0  0  0  0  0  0  0
    3.1462   -2.4225    0.4973 H   0  0  0  0  0  0  0  0  0  0  0  0
    3.8196   -3.9752    2.5389 H   0  0  0  0  0  0  0  0  0  0  0  0
    2.4006   -3.2613    2.2340 H   0  0  0  0  0  0  0  0  0  0  0  0
    1.0957   -4.8937    2.0468 H   0  0  0  0  0  0  0  0  0  0  0  0
    4.8395   -4.7536    4.1713 H   0  0  0  0  0  0  0  0  0  0  0  0
    3.2811   -6.4715    5.9662 H   0  0  0  0  0  0  0  0  0  0  0  0
    0.5549   -5.9182    6.8665 H   0  0  0  0  0  0  0  0  0  0  0  0
   -0.1972   -4.7612    5.7430 H   0  0  0  0  0  0  0  0  0  0  0  0
    0.5877   -9.0760    3.3333 H   0  0  0  0  0  0  0  0  0  0  0  0
    1.3627   -9.1653    1.7373 H   0  0  0  0  0  0  0  0  0  0  0  0
   -0.2900   -8.6214    1.8931 H   0  0  0  0  0  0  0  0  0  0  0  0
    1.3472   -6.3600    0.3106 H   0  0  0  0  0  0  0  0  0  0  0  0
    3.6741   -7.9450    0.5637 H   0  0  0  0  0  0  0  0  0  0  0  0
    3.7828   -6.5033   -0.3134 H   0  0  0  0  0  0  0  0  0  0  0  0
    5.6600   -7.1967    1.5632 H   0  0  0  0  0  0  0  0  0  0  0  0
    5.4651   -5.4617   -0.4891 H   0  0  0  0  0  0  0  0  0  0  0  0
    8.9573   -4.1905    1.9038 H   0  0  0  0  0  0  0  0  0  0  0  0
    9.5577   -2.6720    1.1868 H   0  0  0  0  0  0  0  0  0  0  0  0
    9.6409   -4.1873    0.2736 H   0  0  0  0  0  0  0  0  0  0  0  0
    7.7627   -1.4949   -0.6605 H   0  0  0  0  0  0  0  0  0  0  0  0
    8.7234   -2.7544   -1.3994 H   0  0  0  0  0  0  0  0  0  0  0  0
    6.7635   -2.3333   -2.7793 H   0  0  0  0  0  0  0  0  0  0  0  0
    6.8718   -3.8916   -2.3300 H   0  0  0  0  0  0  0  0  0  0  0  0
    4.9100   -1.8108   -1.4644 H   0  0  0  0  0  0  0  0  0  0  0  0
    5.7250   -1.3268    0.3960 H   0  0  0  0  0  0  0  0  0  0  0  0
    6.1964   -0.7879    3.1678 H   0  0  0  0  0  0  0  0  0  0  0  0
    5.1516    0.0659    2.0359 H   0  0  0  0  0  0  0  0  0  0  0  0
    3.1351   -0.5809    3.3947 H   0  0  0  0  0  0  0  0  0  0  0  0
    4.1877   -1.3412    4.5802 H   0  0  0  0  0  0  0  0  0  0  0  0
    4.2105    1.3825    3.8130 H   0  0  0  0  0  0  0  0  0  0  0  0
  1  2  1  0
  1 42  1  0
  1 43  1  0
  1 44  1  0
  2 34  1  0
  2  3  1  0
  2 45  1  6
  3  4  1  0
  3 46  1  0
  3 47  1  0
  4  5  1  0
  4 48  1  0
  4 49  1  0
 35  5  1  1
  5  6  1  0
  5 50  1  1
  6  7  1  0
  6 51  1  0
  6 52  1  0
  7 24  1  0
  7  8  1  0
  7 53  1  1
  8 22  1  0
  8  9  2  0
  9 10  1  0
  9 11  1  0
 11 26  1  0
 11 12  2  3
 12 13  1  0
 12 54  1  0
 13 19  1  0
 13 14  1  0
 13 55  1  1
 14 15  2  0
 14 16  1  0
 16 17  2  0
 16 18  1  0
 18 19  1  0
 18 56  1  0
 18 57  1  0
 19 20  1  0
 20 21  2  0
 20 22  1  0
 22 23  1  6
 22 24  1  0
 23 58  1  0
 23 59  1  0
 23 60  1  0
 24 25  1  0
 24 61  1  6
 25 26  1  0
 25 62  1  0
 25 63  1  0
 26 27  1  0
 26 64  1  1
 27 28  1  0
 28 35  1  0
 28 29  1  0
 28 65  1  6
 29 30  1  0
 30 41  1  0
 30 31  1  1
 30 32  1  0
 31 66  1  0
 31 67  1  0
 31 68  1  0
 32 33  1  0
 32 69  1  0
 32 70  1  0
 33 34  1  0
 33 71  1  0
 33 72  1  0
 34 35  1  0
 34 73  1  1
 35 36  1  0
 36 37  1  0
 36 41  1  0
 36 74  1  6
 37 38  1  0
 38 39  1  0
 38 75  1  0
 38 76  1  0
 39 40  1  0
 39 77  1  0
 39 78  1  0
 40 79  1  0
M  END
>  <i_m_ct_stereo_status>  (405) 
1

>  <s_m_source_file>  (405) 
/var/tmp/pbs.5076255.sched01/tmpxe1g82q3/12669a6jj4p.sdf

>  <i_m_source_file_index>  (405) 
35

>  <i_lp_mmshare_version>  (405) 
48012

>  <i_f3d_flags>  (405) 
0

>  <s_epik_input>  (405) 
W0NAXTEyM1tDQEhdNFtDSDJdW0NIMl1bQ0BASF0oW0NIM10pW0NAQEhdMltDSDJdW0NIMl1bQ0BAXShbQ0gzXSkoT1tDQEBIXTNPW0NIMl1bQ0gyXVtPSF0pT1tDQEhdMU9bQ0BIXTVDXDY9W0NIXVxbQ0BASF03TihbQ0gyXUMoPU8pQzc9TylDKD1PKUM4KFtDSDNdKUMoPUM2Q2wpW0NAQEhdKFtDSDJdNClbQ0BIXThbQ0gyXTU=

>  <s_epik_cmdline>  (405) 
J2VwaWtfcHl0aG9uJywgJy1waHQnLCAnMi4wJywgJy1waCcsICc3LjAnLCAnLXRuJywgJzgnLCAnLW1hJywgJzIwMCcsICctaW1hZScsICc8aW5maWxlLm1hZT4nLCAnLW9tYWUnLCAnPG91dGZpbGUubWFlPic=

>  <r_lp_tautomer_probability>  (405) 
1

>  <r_epik_Ionization_Penalty>  (405) 
6.45495e-08

>  <r_epik_Ionization_Penalty_Charging>  (405) 
0

>  <r_epik_Ionization_Penalty_Neutral>  (405) 
6.45495e-08

>  <r_epik_State_Penalty>  (405) 
-0

>  <r_epik_Charging_Adjusted_Penalty>  (405) 
0

>  <i_epik_Tot_Q>  (405) 
0

>  <i_epik_Tot_abs_Q>  (405) 
0

>  <s_epik_Chemistry_Notes>  (405) 
This compound contains an acetal/aminal-like group ( X-CH(R)-Y where X, Y are N, S, or O) that may be acid/base labile, releasing an aldehyde.

>  <s_lp_Force_Field>  (405) 
OPLS3e

>  <r_lp_Energy>  (405) 
360.872

>  <b_lp_Chiralities_Consistent>  (405) 
1

>  <s_lp_Variant>  (405) 
115:0-6

>  <s_i_glide_gridfile>  (405) 
pfpi4k_grid

>  <i_i_glide_lignum>  (405) 
35

>  <i_i_glide_rotatable_bonds>  (405) 
4

>  <r_i_docking_score>  (405) 
-2.66867

>  <r_i_glide_ligand_efficiency>  (405) 
-0.0650895

>  <r_i_glide_ligand_efficiency_sa>  (405) 
-0.224443

>  <r_i_glide_ligand_efficiency_ln>  (405) 
-0.566167

>  <r_i_glide_gscore>  (405) 
-2.66867

>  <r_i_glide_lipo>  (405) 
-0.473659

>  <r_i_glide_hbond>  (405) 
-0.0287638

>  <r_i_glide_metal>  (405) 
-0

>  <r_i_glide_rewards>  (405) 
-0.489378

>  <r_i_glide_evdw>  (405) 
-26.1878

>  <r_i_glide_ecoul>  (405) 
-2.75827

>  <r_i_glide_erotb>  (405) 
0.0749695

>  <r_i_glide_esite>  (405) 
-0.0287075

>  <r_i_glide_emodel>  (405) 
-33.59

>  <r_i_glide_energy>  (405) 
-28.9461

>  <r_i_glide_einternal>  (405) 
0.432404

>  <r_i_glide_intrahb_reward>  (405) 
-0

>  <i_i_glide_confnum>  (405) 
4

>  <i_i_glide_posenum>  (405) 
37

>  <r_i_glide_eff_state_penalty>  (405) 
0

>  <ligand_id>  (405) 
115

>  <original_smiles>  (405) 
CC1CCC2CC3C4=C(Cl)C5=CC6C(=O)C(=O)CN6C(=O)C4(C)C3CC5OC3OC4(C)CCC1C23C(OCCO)O4

>  <smiles>  (405) 
[H]OC([H])([H])C([H])([H])OC1([H])OC2(C([H])([H])[H])OC3([H])OC4([H])C5=C([H])C6([H])C(=O)C(=O)C([H])([H])N6C(=O)C6(C([H])([H])[H])C(=C5Cl)C([H])(C([H])([H])C5([H])C([H])([H])C([H])([H])C([H])(C([H])([H])[H])C([H])(C([H])([H])C2([H])[H])C135)C6([H])C4([H])[H]

$$$$
115:5:1
     RDKit          3D

 79 86  0  0  1  0  0  0  0  0999 V2000
    4.4555   -3.0580   -3.8123 C   0  0  0  0  0  0  0  0  0  0  0  0
    4.2324   -3.4302   -2.3385 C   0  0  2  0  0  0  0  0  0  0  0  0
    2.7952   -3.1160   -1.9478 C   0  0  0  0  0  0  0  0  0  0  0  0
    2.5026   -3.7537   -0.5976 C   0  0  0  0  0  0  0  0  0  0  0  0
    3.4479   -3.3565    0.5453 C   0  0  1  0  0  0  0  0  0  0  0  0
    3.0396   -3.9339    1.9811 C   0  0  0  0  0  0  0  0  0  0  0  0
    2.0846   -5.1589    2.1712 C   0  0  2  0  0  0  0  0  0  0  0  0
    2.3368   -6.5947    2.9412 C   0  0  0  0  0  0  0  0  0  0  0  0
    3.3307   -7.3309    3.4516 C   0  0  0  0  0  0  0  0  0  0  0  0
    3.3334   -8.9098    4.1040 Cl  0  0  0  0  0  0  0  0  0  0  0  0
    4.3842   -6.4803    3.3566 C   0  0  0  0  0  0  0  0  0  0  0  0
    4.2534   -5.5572    4.3537 C   0  0  0  0  0  0  0  0  0  0  0  0
    3.0417   -5.5312    5.4166 C   0  0  1  0  0  0  0  0  0  0  0  0
    3.1047   -4.2282    6.2034 C   0  0  0  0  0  0  0  0  0  0  0  0
    4.0968   -3.5311    6.4340 O   0  0  0  0  0  0  0  0  0  0  0  0
    1.7308   -3.9475    6.7003 C   0  0  0  0  0  0  0  0  0  0  0  0
    1.3734   -2.9948    7.4087 O   0  0  0  0  0  0  0  0  0  0  0  0
    0.7779   -5.0233    6.2203 C   0  0  0  0  0  0  0  0  0  0  0  0
    1.4932   -5.7313    5.1248 N   0  0  0  0  0  0  0  0  0  0  0  0
    0.6521   -6.2680    4.0998 C   0  0  0  0  0  0  0  0  0  0  0  0
   -0.5765   -6.2769    4.2764 O   0  0  0  0  0  0  0  0  0  0  0  0
    1.0644   -6.9197    2.6475 C   0  0  2  0  0  0  0  0  0  0  0  0
    0.6075   -8.3810    2.5446 C   0  0  0  0  0  0  0  0  0  0  0  0
    1.9785   -6.3355    1.3134 C   0  0  2  0  0  0  0  0  0  0  0  0
    3.5255   -6.7414    0.8396 C   0  0  0  0  0  0  0  0  0  0  0  0
    4.8111   -6.3734    1.8541 C   0  0  1  0  0  0  0  0  0  0  0  0
    5.4538   -5.1131    1.6628 O   0  0  0  0  0  0  0  0  0  0  0  0
    5.7154   -4.6667    0.3762 C   0  0  2  0  0  0  0  0  0  0  0  0
    7.0955   -4.5826    0.1687 O   0  0  0  0  0  0  0  0  0  0  0  0
    7.6511   -3.3476    0.4527 C   0  0  1  0  0  0  0  0  0  0  0  0
    9.0622   -3.6252    1.0374 C   0  0  0  0  0  0  0  0  0  0  0  0
    7.7862   -2.5169   -0.8509 C   0  0  0  0  0  0  0  0  0  0  0  0
    6.6551   -2.8705   -1.8328 C   0  0  0  0  0  0  0  0  0  0  0  0
    5.2013   -2.7796   -1.3245 C   0  0  2  0  0  0  0  0  0  0  0  0
    4.9901   -3.2828    0.1554 C   0  0  1  0  0  0  0  0  0  0  0  0
    5.7011   -2.1891    1.0577 C   0  0  1  0  0  0  0  0  0  0  0  0
    4.9733   -1.9081    2.2097 O   0  0  0  0  0  0  0  0  0  0  0  0
    5.3239   -0.7113    2.8852 C   0  0  0  0  0  0  0  0  0  0  0  0
    4.4420   -0.5952    4.1382 C   0  0  0  0  0  0  0  0  0  0  0  0
    4.7536    0.5805    4.8574 O   0  0  0  0  0  0  0  0  0  0  0  0
    6.9756   -2.6095    1.3982 O   0  0  0  0  0  0  0  0  0  0  0  0
    4.4584   -1.9779   -3.9596 H   0  0  0  0  0  0  0  0  0  0  0  0
    3.6760   -3.4835   -4.4452 H   0  0  0  0  0  0  0  0  0  0  0  0
    5.3972   -3.4747   -4.1631 H   0  0  0  0  0  0  0  0  0  0  0  0
    4.3851   -4.5050   -2.2740 H   0  0  0  0  0  0  0  0  0  0  0  0
    2.6278   -2.0366   -1.9070 H   0  0  0  0  0  0  0  0  0  0  0  0
    2.0961   -3.5026   -2.6871 H   0  0  0  0  0  0  0  0  0  0  0  0
    1.5464   -3.3882   -0.3190 H   0  0  0  0  0  0  0  0  0  0  0  0
    2.4291   -4.8215   -0.7388 H   0  0  0  0  0  0  0  0  0  0  0  0
    3.1939   -2.2999    0.6312 H   0  0  0  0  0  0  0  0  0  0  0  0
    3.8415   -3.8570    2.6777 H   0  0  0  0  0  0  0  0  0  0  0  0
    2.4438   -3.1084    2.3765 H   0  0  0  0  0  0  0  0  0  0  0  0
    1.0934   -4.7026    2.2137 H   0  0  0  0  0  0  0  0  0  0  0  0
    4.8617   -4.6590    4.2967 H   0  0  0  0  0  0  0  0  0  0  0  0
    3.2836   -6.3400    6.1095 H   0  0  0  0  0  0  0  0  0  0  0  0
    0.5812   -5.7195    7.0412 H   0  0  0  0  0  0  0  0  0  0  0  0
   -0.1535   -4.5431    5.9257 H   0  0  0  0  0  0  0  0  0  0  0  0
    0.4951   -8.8752    3.5062 H   0  0  0  0  0  0  0  0  0  0  0  0
    1.2496   -8.9864    1.9018 H   0  0  0  0  0  0  0  0  0  0  0  0
   -0.3864   -8.4021    2.0750 H   0  0  0  0  0  0  0  0  0  0  0  0
    1.2843   -6.1828    0.4728 H   0  0  0  0  0  0  0  0  0  0  0  0
    3.5679   -7.8258    0.7057 H   0  0  0  0  0  0  0  0  0  0  0  0
    3.7083   -6.3887   -0.1776 H   0  0  0  0  0  0  0  0  0  0  0  0
    5.5891   -7.1222    1.6783 H   0  0  0  0  0  0  0  0  0  0  0  0
    5.4132   -5.3884   -0.3743 H   0  0  0  0  0  0  0  0  0  0  0  0
    8.9698   -4.1840    1.9759 H   0  0  0  0  0  0  0  0  0  0  0  0
    9.6006   -2.6967    1.2307 H   0  0  0  0  0  0  0  0  0  0  0  0
    9.6199   -4.2284    0.3374 H   0  0  0  0  0  0  0  0  0  0  0  0
    7.8072   -1.4770   -0.5766 H   0  0  0  0  0  0  0  0  0  0  0  0
    8.7332   -2.7534   -1.3267 H   0  0  0  0  0  0  0  0  0  0  0  0
    6.7685   -2.2488   -2.7079 H   0  0  0  0  0  0  0  0  0  0  0  0
    6.8393   -3.8581   -2.2301 H   0  0  0  0  0  0  0  0  0  0  0  0
    4.9457   -1.7219   -1.3498 H   0  0  0  0  0  0  0  0  0  0  0  0
    5.7778   -1.2462    0.5155 H   0  0  0  0  0  0  0  0  0  0  0  0
    6.3768   -0.6990    3.1609 H   0  0  0  0  0  0  0  0  0  0  0  0
    5.1511    0.1419    2.2303 H   0  0  0  0  0  0  0  0  0  0  0  0
    3.3883   -0.5747    3.8597 H   0  0  0  0  0  0  0  0  0  0  0  0
    4.5981   -1.4514    4.7926 H   0  0  0  0  0  0  0  0  0  0  0  0
    4.2212    0.6077    5.6286 H   0  0  0  0  0  0  0  0  0  0  0  0
  1  2  1  0
  1 42  1  0
  1 43  1  0
  1 44  1  0
  2 34  1  0
  2  3  1  0
  2 45  1  6
  3  4  1  0
  3 46  1  0
  3 47  1  0
  4  5  1  0
  4 48  1  0
  4 49  1  0
 35  5  1  1
  5  6  1  0
  5 50  1  1
  6  7  1  0
  6 51  1  0
  6 52  1  0
  7 24  1  0
  7  8  1  0
  7 53  1  1
  8 22  1  0
  8  9  2  0
  9 10  1  0
  9 11  1  0
 11 26  1  0
 11 12  2  3
 12 13  1  0
 12 54  1  0
 13 19  1  0
 13 14  1  0
 13 55  1  1
 14 15  2  0
 14 16  1  0
 16 17  2  0
 16 18  1  0
 18 19  1  0
 18 56  1  0
 18 57  1  0
 19 20  1  0
 20 21  2  0
 20 22  1  0
 22 23  1  6
 22 24  1  0
 23 58  1  0
 23 59  1  0
 23 60  1  0
 24 25  1  0
 24 61  1  6
 25 26  1  0
 25 62  1  0
 25 63  1  0
 26 27  1  0
 26 64  1  1
 27 28  1  0
 28 35  1  0
 28 29  1  0
 28 65  1  6
 29 30  1  0
 30 41  1  0
 30 31  1  1
 30 32  1  0
 31 66  1  0
 31 67  1  0
 31 68  1  0
 32 33  1  0
 32 69  1  0
 32 70  1  0
 33 34  1  0
 33 71  1  0
 33 72  1  0
 34 35  1  0
 34 73  1  1
 35 36  1  0
 36 37  1  0
 36 41  1  0
 36 74  1  6
 37 38  1  0
 38 39  1  0
 38 75  1  0
 38 76  1  0
 39 40  1  0
 39 77  1  0
 39 78  1  0
 40 79  1  0
M  END
>  <i_m_ct_stereo_status>  (406) 
1

>  <s_m_source_file>  (406) 
/var/tmp/pbs.5076255.sched01/tmpxe1g82q3/12669a6jj4p.sdf

>  <i_m_source_file_index>  (406) 
35

>  <i_lp_mmshare_version>  (406) 
48012

>  <i_f3d_flags>  (406) 
0

>  <s_epik_input>  (406) 
W0NAXTEyM1tDQEhdNFtDSDJdW0NIMl1bQ0BASF0oW0NIM10pW0NAQEhdMltDSDJdW0NIMl1bQ0BAXShbQ0gzXSkoT1tDQEBIXTNPW0NIMl1bQ0gyXVtPSF0pT1tDQEhdMU9bQ0BIXTVDXDY9W0NIXVxbQ0BASF03TihbQ0gyXUMoPU8pQzc9TylDKD1PKUM4KFtDSDNdKUMoPUM2Q2wpW0NAQEhdKFtDSDJdNClbQ0BIXThbQ0gyXTU=

>  <s_epik_cmdline>  (406) 
J2VwaWtfcHl0aG9uJywgJy1waHQnLCAnMi4wJywgJy1waCcsICc3LjAnLCAnLXRuJywgJzgnLCAnLW1hJywgJzIwMCcsICctaW1hZScsICc8aW5maWxlLm1hZT4nLCAnLW9tYWUnLCAnPG91dGZpbGUubWFlPic=

>  <r_lp_tautomer_probability>  (406) 
1

>  <r_epik_Ionization_Penalty>  (406) 
6.45495e-08

>  <r_epik_Ionization_Penalty_Charging>  (406) 
0

>  <r_epik_Ionization_Penalty_Neutral>  (406) 
6.45495e-08

>  <r_epik_State_Penalty>  (406) 
-0

>  <r_epik_Charging_Adjusted_Penalty>  (406) 
0

>  <i_epik_Tot_Q>  (406) 
0

>  <i_epik_Tot_abs_Q>  (406) 
0

>  <s_epik_Chemistry_Notes>  (406) 
This compound contains an acetal/aminal-like group ( X-CH(R)-Y where X, Y are N, S, or O) that may be acid/base labile, releasing an aldehyde.

>  <s_lp_Force_Field>  (406) 
OPLS3e

>  <r_lp_Energy>  (406) 
360.872

>  <b_lp_Chiralities_Consistent>  (406) 
1

>  <s_lp_Variant>  (406) 
115:0-6

>  <s_i_glide_gridfile>  (406) 
pfpi4k_grid

>  <i_i_glide_lignum>  (406) 
35

>  <i_i_glide_rotatable_bonds>  (406) 
4

>  <r_i_docking_score>  (406) 
-2.49349

>  <r_i_glide_ligand_efficiency>  (406) 
-0.0608169

>  <r_i_glide_ligand_efficiency_sa>  (406) 
-0.20971

>  <r_i_glide_ligand_efficiency_ln>  (406) 
-0.529002

>  <r_i_glide_gscore>  (406) 
-2.49349

>  <r_i_glide_lipo>  (406) 
-0.437366

>  <r_i_glide_hbond>  (406) 
-0.0189412

>  <r_i_glide_metal>  (406) 
-0

>  <r_i_glide_rewards>  (406) 
-0.498723

>  <r_i_glide_evdw>  (406) 
-26.5399

>  <r_i_glide_ecoul>  (406) 
-1.74656

>  <r_i_glide_erotb>  (406) 
0.0749695

>  <r_i_glide_esite>  (406) 
-0.0244488

>  <r_i_glide_emodel>  (406) 
-32.1836

>  <r_i_glide_energy>  (406) 
-28.2865

>  <r_i_glide_einternal>  (406) 
0.553171

>  <r_i_glide_intrahb_reward>  (406) 
-0

>  <i_i_glide_confnum>  (406) 
4

>  <i_i_glide_posenum>  (406) 
1

>  <r_i_glide_eff_state_penalty>  (406) 
0

>  <ligand_id>  (406) 
115

>  <original_smiles>  (406) 
CC1CCC2CC3C4=C(Cl)C5=CC6C(=O)C(=O)CN6C(=O)C4(C)C3CC5OC3OC4(C)CCC1C23C(OCCO)O4

>  <smiles>  (406) 
[H]OC([H])([H])C([H])([H])OC1([H])OC2(C([H])([H])[H])OC3([H])OC4([H])C5=C([H])C6([H])C(=O)C(=O)C([H])([H])N6C(=O)C6(C([H])([H])[H])C(=C5Cl)C([H])(C([H])([H])C5([H])C([H])([H])C([H])([H])C([H])(C([H])([H])[H])C([H])(C([H])([H])C2([H])[H])C135)C6([H])C4([H])[H]

$$$$
115:5:2
     RDKit          3D

 79 86  0  0  1  0  0  0  0  0999 V2000
    6.7854   -1.8372   -0.7063 C   0  0  0  0  0  0  0  0  0  0  0  0
    5.9120   -2.7391    0.1780 C   0  0  2  0  0  0  0  0  0  0  0  0
    5.0800   -3.6647   -0.7067 C   0  0  0  0  0  0  0  0  0  0  0  0
    4.4349   -4.7451    0.1499 C   0  0  0  0  0  0  0  0  0  0  0  0
    3.5707   -4.2006    1.3161 C   0  0  1  0  0  0  0  0  0  0  0  0
    2.8045   -5.3203    2.1385 C   0  0  0  0  0  0  0  0  0  0  0  0
    3.2445   -6.8244    2.1549 C   0  0  2  0  0  0  0  0  0  0  0  0
    3.6609   -7.8103    3.4079 C   0  0  0  0  0  0  0  0  0  0  0  0
    3.9813   -7.7282    4.7013 C   0  0  0  0  0  0  0  0  0  0  0  0
    4.5356   -8.9549    5.7859 Cl  0  0  0  0  0  0  0  0  0  0  0  0
    3.7511   -6.4350    5.0036 C   0  0  0  0  0  0  0  0  0  0  0  0
    2.3879   -6.2746    5.0988 C   0  0  0  0  0  0  0  0  0  0  0  0
    1.3311   -7.4801    4.9049 C   0  0  1  0  0  0  0  0  0  0  0  0
   -0.0683   -6.8883    4.8449 C   0  0  0  0  0  0  0  0  0  0  0  0
   -0.4800   -5.8402    5.3455 O   0  0  0  0  0  0  0  0  0  0  0  0
   -0.9287   -7.8406    4.0605 C   0  0  0  0  0  0  0  0  0  0  0  0
   -2.1138   -7.6603    3.7622 O   0  0  0  0  0  0  0  0  0  0  0  0
   -0.0956   -9.0193    3.6246 C   0  0  0  0  0  0  0  0  0  0  0  0
    1.3066   -8.5787    3.7645 N   0  0  0  0  0  0  0  0  0  0  0  0
    2.2204   -9.1657    2.8201 C   0  0  0  0  0  0  0  0  0  0  0  0
    1.8243  -10.0867    2.1118 O   0  0  0  0  0  0  0  0  0  0  0  0
    3.8005   -8.7909    2.5327 C   0  0  2  0  0  0  0  0  0  0  0  0
    4.7138   -9.9982    2.7861 C   0  0  0  0  0  0  0  0  0  0  0  0
    4.6023   -7.3439    2.0715 C   0  0  2  0  0  0  0  0  0  0  0  0
    5.5740   -6.3479    3.0216 C   0  0  0  0  0  0  0  0  0  0  0  0
    4.8742   -5.5658    4.3382 C   0  0  1  0  0  0  0  0  0  0  0  0
    4.3328   -4.2726    4.1021 O   0  0  0  0  0  0  0  0  0  0  0  0
    5.0404   -3.3668    3.3342 C   0  0  2  0  0  0  0  0  0  0  0  0
    5.4172   -2.2858    4.1335 O   0  0  0  0  0  0  0  0  0  0  0  0
    4.5763   -1.1816    4.1354 C   0  0  1  0  0  0  0  0  0  0  0  0
    4.6367   -0.5801    5.5478 C   0  0  0  0  0  0  0  0  0  0  0  0
    5.0346   -0.1596    3.0666 C   0  0  0  0  0  0  0  0  0  0  0  0
    5.7436   -0.8455    1.8872 C   0  0  0  0  0  0  0  0  0  0  0  0
    4.9766   -1.9813    1.1603 C   0  0  2  0  0  0  0  0  0  0  0  0
    4.1547   -2.9429    2.1172 C   0  0  1  0  0  0  0  0  0  0  0  0
    2.9623   -2.0652    2.6768 C   0  0  1  0  0  0  0  0  0  0  0  0
    1.7673   -2.7729    2.7475 O   0  0  0  0  0  0  0  0  0  0  0  0
    0.7674   -2.2139    3.5979 C   0  0  0  0  0  0  0  0  0  0  0  0
    0.4492   -0.7438    3.2438 C   0  0  0  0  0  0  0  0  0  0  0  0
   -0.6166   -0.2604    4.0261 O   0  0  0  0  0  0  0  0  0  0  0  0
    3.2612   -1.5351    3.9366 O   0  0  0  0  0  0  0  0  0  0  0  0
    6.1767   -1.1218   -1.2632 H   0  0  0  0  0  0  0  0  0  0  0  0
    7.3630   -2.4227   -1.4239 H   0  0  0  0  0  0  0  0  0  0  0  0
    7.5072   -1.2906   -0.0969 H   0  0  0  0  0  0  0  0  0  0  0  0
    6.6039   -3.3467    0.7600 H   0  0  0  0  0  0  0  0  0  0  0  0
    4.3255   -3.1010   -1.2587 H   0  0  0  0  0  0  0  0  0  0  0  0
    5.7180   -4.1362   -1.4571 H   0  0  0  0  0  0  0  0  0  0  0  0
    3.8141   -5.3663   -0.4950 H   0  0  0  0  0  0  0  0  0  0  0  0
    5.2454   -5.3746    0.4904 H   0  0  0  0  0  0  0  0  0  0  0  0
    2.7685   -3.7268    0.7459 H   0  0  0  0  0  0  0  0  0  0  0  0
    2.4311   -4.9468    3.0714 H   0  0  0  0  0  0  0  0  0  0  0  0
    1.8437   -5.3526    1.6285 H   0  0  0  0  0  0  0  0  0  0  0  0
    2.7152   -7.2325    1.2795 H   0  0  0  0  0  0  0  0  0  0  0  0
    1.9891   -5.2705    5.0797 H   0  0  0  0  0  0  0  0  0  0  0  0
    1.4012   -8.0526    5.8319 H   0  0  0  0  0  0  0  0  0  0  0  0
   -0.2885   -9.8743    4.2760 H   0  0  0  0  0  0  0  0  0  0  0  0
   -0.3971   -9.2690    2.6044 H   0  0  0  0  0  0  0  0  0  0  0  0
    4.2945  -10.7083    3.4988 H   0  0  0  0  0  0  0  0  0  0  0  0
    5.7149   -9.7078    3.1128 H   0  0  0  0  0  0  0  0  0  0  0  0
    4.8453  -10.5466    1.8496 H   0  0  0  0  0  0  0  0  0  0  0  0
    4.9589   -7.4437    1.0466 H   0  0  0  0  0  0  0  0  0  0  0  0
    6.3744   -6.9646    3.4378 H   0  0  0  0  0  0  0  0  0  0  0  0
    6.1200   -5.6625    2.3877 H   0  0  0  0  0  0  0  0  0  0  0  0
    5.6565   -5.4261    5.0912 H   0  0  0  0  0  0  0  0  0  0  0  0
    5.9865   -3.7704    2.9930 H   0  0  0  0  0  0  0  0  0  0  0  0
    4.2924   -1.3183    6.2745 H   0  0  0  0  0  0  0  0  0  0  0  0
    3.9896    0.3009    5.6107 H   0  0  0  0  0  0  0  0  0  0  0  0
    5.6576   -0.2930    5.7973 H   0  0  0  0  0  0  0  0  0  0  0  0
    4.1896    0.4627    2.7571 H   0  0  0  0  0  0  0  0  0  0  0  0
    5.7430    0.5269    3.5291 H   0  0  0  0  0  0  0  0  0  0  0  0
    5.9674   -0.0653    1.1604 H   0  0  0  0  0  0  0  0  0  0  0  0
    6.7094   -1.2118    2.2300 H   0  0  0  0  0  0  0  0  0  0  0  0
    4.2589   -1.4719    0.5131 H   0  0  0  0  0  0  0  0  0  0  0  0
    2.7596   -1.2419    1.9932 H   0  0  0  0  0  0  0  0  0  0  0  0
   -0.1243   -2.8308    3.5009 H   0  0  0  0  0  0  0  0  0  0  0  0
    1.0668   -2.3129    4.6442 H   0  0  0  0  0  0  0  0  0  0  0  0
    1.2941   -0.0787    3.4218 H   0  0  0  0  0  0  0  0  0  0  0  0
    0.2102   -0.6552    2.1851 H   0  0  0  0  0  0  0  0  0  0  0  0
   -0.7625    0.6444    3.7811 H   0  0  0  0  0  0  0  0  0  0  0  0
  1  2  1  0
  1 42  1  0
  1 43  1  0
  1 44  1  0
  2 34  1  0
  2  3  1  0
  2 45  1  1
  3  4  1  0
  3 46  1  0
  3 47  1  0
  4  5  1  0
  4 48  1  0
  4 49  1  0
 35  5  1  6
  5  6  1  0
  5 50  1  6
  6  7  1  0
  6 51  1  0
  6 52  1  0
  7 24  1  0
  7  8  1  0
  7 53  1  6
  8 22  1  0
  8  9  2  0
  9 10  1  0
  9 11  1  0
 11 26  1  0
 11 12  2  3
 12 13  1  0
 12 54  1  0
 13 19  1  0
 13 14  1  0
 13 55  1  1
 14 15  2  0
 14 16  1  0
 16 17  2  0
 16 18  1  0
 18 19  1  0
 18 56  1  0
 18 57  1  0
 19 20  1  0
 20 21  2  0
 20 22  1  0
 22 23  1  1
 22 24  1  0
 23 58  1  0
 23 59  1  0
 23 60  1  0
 24 25  1  0
 24 61  1  6
 25 26  1  0
 25 62  1  0
 25 63  1  0
 26 27  1  0
 26 64  1  1
 27 28  1  0
 28 35  1  0
 28 29  1  0
 28 65  1  6
 29 30  1  0
 30 41  1  0
 30 31  1  1
 30 32  1  0
 31 66  1  0
 31 67  1  0
 31 68  1  0
 32 33  1  0
 32 69  1  0
 32 70  1  0
 33 34  1  0
 33 71  1  0
 33 72  1  0
 34 35  1  0
 34 73  1  6
 35 36  1  0
 36 37  1  0
 36 41  1  0
 36 74  1  6
 37 38  1  0
 38 39  1  0
 38 75  1  0
 38 76  1  0
 39 40  1  0
 39 77  1  0
 39 78  1  0
 40 79  1  0
M  END
>  <i_m_ct_stereo_status>  (407) 
1

>  <s_m_source_file>  (407) 
/var/tmp/pbs.5076255.sched01/tmpxe1g82q3/12669a6jj4p.sdf

>  <i_m_source_file_index>  (407) 
35

>  <i_lp_mmshare_version>  (407) 
48012

>  <i_f3d_flags>  (407) 
0

>  <s_epik_input>  (407) 
W0NAXTEyM1tDQEhdNFtDSDJdW0NIMl1bQ0BASF0oW0NIM10pW0NAQEhdMltDSDJdW0NIMl1bQ0BAXShbQ0gzXSkoT1tDQEBIXTNPW0NIMl1bQ0gyXVtPSF0pT1tDQEhdMU9bQ0BIXTVDXDY9W0NIXVxbQ0BASF03TihbQ0gyXUMoPU8pQzc9TylDKD1PKUM4KFtDSDNdKUMoPUM2Q2wpW0NAQEhdKFtDSDJdNClbQ0BIXThbQ0gyXTU=

>  <s_epik_cmdline>  (407) 
J2VwaWtfcHl0aG9uJywgJy1waHQnLCAnMi4wJywgJy1waCcsICc3LjAnLCAnLXRuJywgJzgnLCAnLW1hJywgJzIwMCcsICctaW1hZScsICc8aW5maWxlLm1hZT4nLCAnLW9tYWUnLCAnPG91dGZpbGUubWFlPic=

>  <r_lp_tautomer_probability>  (407) 
1

>  <r_epik_Ionization_Penalty>  (407) 
6.45495e-08

>  <r_epik_Ionization_Penalty_Charging>  (407) 
0

>  <r_epik_Ionization_Penalty_Neutral>  (407) 
6.45495e-08

>  <r_epik_State_Penalty>  (407) 
-0

>  <r_epik_Charging_Adjusted_Penalty>  (407) 
0

>  <i_epik_Tot_Q>  (407) 
0

>  <i_epik_Tot_abs_Q>  (407) 
0

>  <s_epik_Chemistry_Notes>  (407) 
This compound contains an acetal/aminal-like group ( X-CH(R)-Y where X, Y are N, S, or O) that may be acid/base labile, releasing an aldehyde.

>  <s_lp_Force_Field>  (407) 
OPLS3e

>  <r_lp_Energy>  (407) 
360.872

>  <b_lp_Chiralities_Consistent>  (407) 
1

>  <s_lp_Variant>  (407) 
115:0-6

>  <s_i_glide_gridfile>  (407) 
pfpi4k_grid

>  <i_i_glide_lignum>  (407) 
35

>  <i_i_glide_rotatable_bonds>  (407) 
4

>  <r_i_docking_score>  (407) 
-2.33609

>  <r_i_glide_ligand_efficiency>  (407) 
-0.0569779

>  <r_i_glide_ligand_efficiency_sa>  (407) 
-0.196472

>  <r_i_glide_ligand_efficiency_ln>  (407) 
-0.49561

>  <r_i_glide_gscore>  (407) 
-2.33609

>  <r_i_glide_lipo>  (407) 
-0.46487

>  <r_i_glide_hbond>  (407) 
0

>  <r_i_glide_metal>  (407) 
-0

>  <r_i_glide_rewards>  (407) 
-0.115379

>  <r_i_glide_evdw>  (407) 
-29.2475

>  <r_i_glide_ecoul>  (407) 
-1.76196

>  <r_i_glide_erotb>  (407) 
0.0749695

>  <r_i_glide_esite>  (407) 
-0.104148

>  <r_i_glide_emodel>  (407) 
-33.2797

>  <r_i_glide_energy>  (407) 
-31.0094

>  <r_i_glide_einternal>  (407) 
3.55118

>  <r_i_glide_intrahb_reward>  (407) 
-0

>  <i_i_glide_confnum>  (407) 
3

>  <i_i_glide_posenum>  (407) 
17

>  <r_i_glide_eff_state_penalty>  (407) 
0

>  <ligand_id>  (407) 
115

>  <original_smiles>  (407) 
CC1CCC2CC3C4=C(Cl)C5=CC6C(=O)C(=O)CN6C(=O)C4(C)C3CC5OC3OC4(C)CCC1C23C(OCCO)O4

>  <smiles>  (407) 
[H]OC([H])([H])C([H])([H])OC1([H])OC2(C([H])([H])[H])OC3([H])OC4([H])C5=C([H])C6([H])C(=O)C(=O)C([H])([H])N6C(=O)C6(C([H])([H])[H])C(=C5Cl)C([H])(C([H])([H])C5([H])C([H])([H])C([H])([H])C([H])(C([H])([H])[H])C([H])(C([H])([H])C2([H])[H])C135)C6([H])C4([H])[H]

$$$$
116:0:0
     RDKit          3D

 37 41  0  0  1  0  0  0  0  0999 V2000
    2.9392  -10.1617    3.0757 C   0  0  0  0  0  0  0  0  0  0  0  0
    2.2178   -8.9378    2.7340 N   0  0  0  0  0  0  0  0  0  0  0  0
    2.7945   -7.7824    2.2781 C   0  0  0  0  0  0  0  0  0  0  0  0
    4.2174   -7.4749    1.9990 C   0  0  0  0  0  0  0  0  0  0  0  0
    4.7542   -6.1049    2.3720 C   0  0  0  0  0  0  0  0  0  0  0  0
    5.5050   -6.1709    1.1262 N   0  0  0  0  0  0  0  0  0  0  0  0
    5.5336   -4.9482    0.4254 C   0  0  0  0  0  0  0  0  0  0  0  0
    6.7799   -4.3789    0.2923 N   0  0  0  0  0  0  0  0  0  0  0  0
    6.9125   -3.2615   -0.3465 C   0  0  0  0  0  0  0  0  0  0  0  0
    5.8345   -2.6355   -0.8605 N   0  0  0  0  0  0  0  0  0  0  0  0
    5.8127   -1.4453   -1.5272 N   0  0  0  0  0  0  0  0  0  0  0  0
    4.5399   -1.2676   -1.8009 C   0  0  0  0  0  0  0  0  0  0  0  0
    3.7134   -2.3202   -1.3274 C   0  0  0  0  0  0  0  0  0  0  0  0
    4.5626   -3.1981   -0.7138 C   0  0  0  0  0  0  0  0  0  0  0  0
    4.4292   -4.3613   -0.0553 N   0  0  0  0  0  0  0  0  0  0  0  0
    4.6311   -7.1951    0.5677 C   0  0  0  0  0  0  0  0  0  0  0  0
    1.8217   -6.8924    2.0169 N   0  0  0  0  0  0  0  0  0  0  0  0
    0.6293   -7.5291    2.3291 C   0  0  0  0  0  0  0  0  0  0  0  0
   -0.5789   -6.9695    2.2202 N   0  0  0  0  0  0  0  0  0  0  0  0
   -1.6128   -7.7643    2.5685 C   0  0  0  0  0  0  0  0  0  0  0  0
   -1.4917   -9.0952    3.0182 C   0  0  0  0  0  0  0  0  0  0  0  0
   -0.2111   -9.6644    3.1424 C   0  0  0  0  0  0  0  0  0  0  0  0
    0.8653   -8.8512    2.7882 C   0  0  0  0  0  0  0  0  0  0  0  0
    4.0046   -9.9927    3.2409 H   0  0  0  0  0  0  0  0  0  0  0  0
    2.8391  -10.8944    2.2672 H   0  0  0  0  0  0  0  0  0  0  0  0
    2.5395  -10.5902    4.0017 H   0  0  0  0  0  0  0  0  0  0  0  0
    4.8800   -8.2273    2.4223 H   0  0  0  0  0  0  0  0  0  0  0  0
    3.9667   -5.3495    2.3938 H   0  0  0  0  0  0  0  0  0  0  0  0
    5.3649   -6.0972    3.2758 H   0  0  0  0  0  0  0  0  0  0  0  0
    7.8772   -2.7958   -0.4809 H   0  0  0  0  0  0  0  0  0  0  0  0
    4.2308   -0.3710   -2.3296 H   0  0  0  0  0  0  0  0  0  0  0  0
    2.6384   -2.3861   -1.4095 H   0  0  0  0  0  0  0  0  0  0  0  0
    5.1295   -8.0397    0.0914 H   0  0  0  0  0  0  0  0  0  0  0  0
    3.8034   -6.8187   -0.0298 H   0  0  0  0  0  0  0  0  0  0  0  0
   -2.5860   -7.3166    2.4809 H   0  0  0  0  0  0  0  0  0  0  0  0
   -2.3649   -9.6712    3.2801 H   0  0  0  0  0  0  0  0  0  0  0  0
   -0.0652  -10.6733    3.5005 H   0  0  0  0  0  0  0  0  0  0  0  0
  1  2  1  0
  1 24  1  0
  1 25  1  0
  1 26  1  0
  2 23  1  0
  2  3  1  0
  3  4  1  0
  3 17  2  0
  4 16  1  0
  4  5  1  0
  4 27  1  0
  5  6  1  0
  5 28  1  0
  5 29  1  0
  6  7  1  0
  6 16  1  0
  7 15  2  0
  7  8  1  0
  8  9  2  0
  9 10  1  0
  9 30  1  0
 10 14  1  0
 10 11  1  0
 11 12  2  0
 12 13  1  0
 12 31  1  0
 13 14  2  0
 13 32  1  0
 14 15  1  0
 16 33  1  0
 16 34  1  0
 17 18  1  0
 18 23  2  0
 18 19  1  0
 19 20  2  0
 20 21  1  0
 20 35  1  0
 21 22  2  0
 21 36  1  0
 22 23  1  0
 22 37  1  0
M  END
>  <i_m_ct_stereo_status>  (408) 
1

>  <s_m_source_file>  (408) 
/var/tmp/pbs.5076255.sched01/tmpxe1g82q3/12669a6jj4p.sdf

>  <i_m_source_file_index>  (408) 
36

>  <i_lp_mmshare_version>  (408) 
48012

>  <i_f3d_flags>  (408) 
0

>  <s_epik_input>  (408) 
bjFbY0hdW2NIXVtjSF1jKGMxMiluKFtDSDNdKWMobjIpW0NIXTNbQ0gyXU4oW0NIMl0zKWMobltjSF00KW5jKG40NSlbY0hdW2NIXW41

>  <s_epik_cmdline>  (408) 
J2VwaWtfcHl0aG9uJywgJy1waHQnLCAnMi4wJywgJy1waCcsICc3LjAnLCAnLXRuJywgJzgnLCAnLW1hJywgJzIwMCcsICctaW1hZScsICc8aW5maWxlLm1hZT4nLCAnLW9tYWUnLCAnPG91dGZpbGUubWFlPic=

>  <r_lp_tautomer_probability>  (408) 
1

>  <r_epik_Ionization_Penalty>  (408) 
0.349725

>  <r_epik_Ionization_Penalty_Charging>  (408) 
0

>  <r_epik_Ionization_Penalty_Neutral>  (408) 
0.349725

>  <r_epik_State_Penalty>  (408) 
0.000274169

>  <r_epik_Charging_Adjusted_Penalty>  (408) 
0.000274169

>  <i_epik_Tot_Q>  (408) 
0

>  <i_epik_Tot_abs_Q>  (408) 
0

>  <s_lp_Force_Field>  (408) 
OPLS3e

>  <r_lp_Energy>  (408) 
24.2797

>  <b_lp_Chiralities_Consistent>  (408) 
1

>  <s_lp_Variant>  (408) 
116:0-1

>  <s_i_glide_gridfile>  (408) 
pfpi4k_grid

>  <i_i_glide_lignum>  (408) 
36

>  <i_i_glide_rotatable_bonds>  (408) 
2

>  <r_i_docking_score>  (408) 
-3.94114

>  <r_i_glide_ligand_efficiency>  (408) 
-0.171354

>  <r_i_glide_ligand_efficiency_sa>  (408) 
-0.487307

>  <r_i_glide_ligand_efficiency_ln>  (408) 
-0.953002

>  <r_i_glide_gscore>  (408) 
-3.94114

>  <r_i_glide_lipo>  (408) 
-0.130833

>  <r_i_glide_hbond>  (408) 
-0.236793

>  <r_i_glide_metal>  (408) 
-0

>  <r_i_glide_rewards>  (408) 
-1.7862

>  <r_i_glide_evdw>  (408) 
-28.1958

>  <r_i_glide_ecoul>  (408) 
-4.73192

>  <r_i_glide_erotb>  (408) 
0.393676

>  <r_i_glide_esite>  (408) 
-0.0614099

>  <r_i_glide_emodel>  (408) 
-41.1385

>  <r_i_glide_energy>  (408) 
-32.9277

>  <r_i_glide_einternal>  (408) 
2.26424

>  <r_i_glide_intrahb_reward>  (408) 
-0

>  <i_i_glide_confnum>  (408) 
4

>  <i_i_glide_posenum>  (408) 
11

>  <r_i_glide_eff_state_penalty>  (408) 
0

>  <ligand_id>  (408) 
116

>  <original_smiles>  (408) 
Cn1c(C2CN(c3ncn4nccc4n3)C2)nc2ncccc21

>  <smiles>  (408) 
[H]c1nc2nc(C3([H])C([H])([H])N(c4nc([H])n5nc([H])c([H])c5n4)C3([H])[H])n(C([H])([H])[H])c2c([H])c1[H]

$$$$
116:0:1
     RDKit          3D

 37 41  0  0  1  0  0  0  0  0999 V2000
    3.6773   -9.0065    2.6564 C   0  0  0  0  0  0  0  0  0  0  0  0
    2.6388   -8.0091    2.4019 N   0  0  0  0  0  0  0  0  0  0  0  0
    2.8740   -6.7340    1.9635 C   0  0  0  0  0  0  0  0  0  0  0  0
    4.1598   -6.0755    1.6005 C   0  0  0  0  0  0  0  0  0  0  0  0
    4.2890   -4.5660    1.7630 C   0  0  0  0  0  0  0  0  0  0  0  0
    5.0139   -4.5889    0.4972 N   0  0  0  0  0  0  0  0  0  0  0  0
    4.7064   -3.5273   -0.3886 C   0  0  0  0  0  0  0  0  0  0  0  0
    4.7286   -2.2317    0.0990 N   0  0  0  0  0  0  0  0  0  0  0  0
    4.4885   -1.2312   -0.6948 C   0  0  0  0  0  0  0  0  0  0  0  0
    4.2132   -1.4421   -2.0036 N   0  0  0  0  0  0  0  0  0  0  0  0
    3.9621   -0.5171   -2.9789 N   0  0  0  0  0  0  0  0  0  0  0  0
    3.7004   -1.2489   -4.0363 C   0  0  0  0  0  0  0  0  0  0  0  0
    3.8331   -2.6436   -3.8064 C   0  0  0  0  0  0  0  0  0  0  0  0
    4.1645   -2.7502   -2.4856 C   0  0  0  0  0  0  0  0  0  0  0  0
    4.4382   -3.7750   -1.6743 N   0  0  0  0  0  0  0  0  0  0  0  0
    4.4871   -5.8965    0.1304 C   0  0  0  0  0  0  0  0  0  0  0  0
    1.6847   -6.1353    1.7603 N   0  0  0  0  0  0  0  0  0  0  0  0
    0.7227   -7.0646    2.1254 C   0  0  0  0  0  0  0  0  0  0  0  0
   -0.5903   -6.8352    2.0985 N   0  0  0  0  0  0  0  0  0  0  0  0
   -1.3700   -7.8723    2.4835 C   0  0  0  0  0  0  0  0  0  0  0  0
   -0.8853   -9.1355    2.8953 C   0  0  0  0  0  0  0  0  0  0  0  0
    0.5067   -9.3574    2.9192 C   0  0  0  0  0  0  0  0  0  0  0  0
    1.3151   -8.2863    2.5316 C   0  0  0  0  0  0  0  0  0  0  0  0
    4.6703   -8.5662    2.7591 H   0  0  0  0  0  0  0  0  0  0  0  0
    3.7136   -9.7309    1.8360 H   0  0  0  0  0  0  0  0  0  0  0  0
    3.4641   -9.5333    3.5909 H   0  0  0  0  0  0  0  0  0  0  0  0
    5.0004   -6.5465    2.1058 H   0  0  0  0  0  0  0  0  0  0  0  0
    3.3202   -4.0619    1.7179 H   0  0  0  0  0  0  0  0  0  0  0  0
    4.8691   -4.2650    2.6360 H   0  0  0  0  0  0  0  0  0  0  0  0
    4.5288   -0.2027   -0.3600 H   0  0  0  0  0  0  0  0  0  0  0  0
    3.4355   -0.7545   -4.9641 H   0  0  0  0  0  0  0  0  0  0  0  0
    3.6842   -3.4703   -4.4797 H   0  0  0  0  0  0  0  0  0  0  0  0
    5.2272   -6.5850   -0.2770 H   0  0  0  0  0  0  0  0  0  0  0  0
    3.5691   -5.8708   -0.4547 H   0  0  0  0  0  0  0  0  0  0  0  0
   -2.4340   -7.6785    2.4708 H   0  0  0  0  0  0  0  0  0  0  0  0
   -1.5727   -9.9082    3.2016 H   0  0  0  0  0  0  0  0  0  0  0  0
    0.9380  -10.3005    3.2279 H   0  0  0  0  0  0  0  0  0  0  0  0
  1  2  1  0
  1 24  1  0
  1 25  1  0
  1 26  1  0
  2 23  1  0
  2  3  1  0
  3  4  1  0
  3 17  2  0
  4 16  1  0
  4  5  1  0
  4 27  1  0
  5  6  1  0
  5 28  1  0
  5 29  1  0
  6  7  1  0
  6 16  1  0
  7 15  2  0
  7  8  1  0
  8  9  2  0
  9 10  1  0
  9 30  1  0
 10 14  1  0
 10 11  1  0
 11 12  2  0
 12 13  1  0
 12 31  1  0
 13 14  2  0
 13 32  1  0
 14 15  1  0
 16 33  1  0
 16 34  1  0
 17 18  1  0
 18 23  2  0
 18 19  1  0
 19 20  2  0
 20 21  1  0
 20 35  1  0
 21 22  2  0
 21 36  1  0
 22 23  1  0
 22 37  1  0
M  END
>  <i_m_ct_stereo_status>  (409) 
1

>  <s_m_source_file>  (409) 
/var/tmp/pbs.5076255.sched01/tmpxe1g82q3/12669a6jj4p.sdf

>  <i_m_source_file_index>  (409) 
36

>  <i_lp_mmshare_version>  (409) 
48012

>  <i_f3d_flags>  (409) 
0

>  <s_epik_input>  (409) 
bjFbY0hdW2NIXVtjSF1jKGMxMiluKFtDSDNdKWMobjIpW0NIXTNbQ0gyXU4oW0NIMl0zKWMobltjSF00KW5jKG40NSlbY0hdW2NIXW41

>  <s_epik_cmdline>  (409) 
J2VwaWtfcHl0aG9uJywgJy1waHQnLCAnMi4wJywgJy1waCcsICc3LjAnLCAnLXRuJywgJzgnLCAnLW1hJywgJzIwMCcsICctaW1hZScsICc8aW5maWxlLm1hZT4nLCAnLW9tYWUnLCAnPG91dGZpbGUubWFlPic=

>  <r_lp_tautomer_probability>  (409) 
1

>  <r_epik_Ionization_Penalty>  (409) 
0.349725

>  <r_epik_Ionization_Penalty_Charging>  (409) 
0

>  <r_epik_Ionization_Penalty_Neutral>  (409) 
0.349725

>  <r_epik_State_Penalty>  (409) 
0.000274169

>  <r_epik_Charging_Adjusted_Penalty>  (409) 
0.000274169

>  <i_epik_Tot_Q>  (409) 
0

>  <i_epik_Tot_abs_Q>  (409) 
0

>  <s_lp_Force_Field>  (409) 
OPLS3e

>  <r_lp_Energy>  (409) 
24.2797

>  <b_lp_Chiralities_Consistent>  (409) 
1

>  <s_lp_Variant>  (409) 
116:0-1

>  <s_i_glide_gridfile>  (409) 
pfpi4k_grid

>  <i_i_glide_lignum>  (409) 
36

>  <i_i_glide_rotatable_bonds>  (409) 
2

>  <r_i_docking_score>  (409) 
-3.77351

>  <r_i_glide_ligand_efficiency>  (409) 
-0.164065

>  <r_i_glide_ligand_efficiency_sa>  (409) 
-0.46658

>  <r_i_glide_ligand_efficiency_ln>  (409) 
-0.912468

>  <r_i_glide_gscore>  (409) 
-3.77351

>  <r_i_glide_lipo>  (409) 
-0.296197

>  <r_i_glide_hbond>  (409) 
-0.16

>  <r_i_glide_metal>  (409) 
-0

>  <r_i_glide_rewards>  (409) 
-1.47768

>  <r_i_glide_evdw>  (409) 
-32.6464

>  <r_i_glide_ecoul>  (409) 
-3.00363

>  <r_i_glide_erotb>  (409) 
0.393676

>  <r_i_glide_esite>  (409) 
-0.150438

>  <r_i_glide_emodel>  (409) 
-44.0944

>  <r_i_glide_energy>  (409) 
-35.65

>  <r_i_glide_einternal>  (409) 
1.08096

>  <r_i_glide_intrahb_reward>  (409) 
-0

>  <i_i_glide_confnum>  (409) 
4

>  <i_i_glide_posenum>  (409) 
1

>  <r_i_glide_eff_state_penalty>  (409) 
0

>  <ligand_id>  (409) 
116

>  <original_smiles>  (409) 
Cn1c(C2CN(c3ncn4nccc4n3)C2)nc2ncccc21

>  <smiles>  (409) 
[H]c1nc2nc(C3([H])C([H])([H])N(c4nc([H])n5nc([H])c([H])c5n4)C3([H])[H])n(C([H])([H])[H])c2c([H])c1[H]

$$$$
116:0:2
     RDKit          3D

 37 41  0  0  1  0  0  0  0  0999 V2000
    5.0488   -0.5631    0.6759 C   0  0  0  0  0  0  0  0  0  0  0  0
    4.2639   -1.5802   -0.0208 N   0  0  0  0  0  0  0  0  0  0  0  0
    3.6439   -2.6392    0.5899 C   0  0  0  0  0  0  0  0  0  0  0  0
    3.5771   -3.0123    2.0303 C   0  0  0  0  0  0  0  0  0  0  0  0
    3.5585   -4.4904    2.3857 C   0  0  0  0  0  0  0  0  0  0  0  0
    2.5923   -4.1313    3.4149 N   0  0  0  0  0  0  0  0  0  0  0  0
    1.5047   -5.0115    3.5941 C   0  0  0  0  0  0  0  0  0  0  0  0
    0.8655   -4.9532    4.8139 N   0  0  0  0  0  0  0  0  0  0  0  0
   -0.0530   -5.8218    5.1078 C   0  0  0  0  0  0  0  0  0  0  0  0
   -0.4262   -6.7543    4.2058 N   0  0  0  0  0  0  0  0  0  0  0  0
   -1.3931   -7.7047    4.3424 N   0  0  0  0  0  0  0  0  0  0  0  0
   -1.3513   -8.3612    3.2050 C   0  0  0  0  0  0  0  0  0  0  0  0
   -0.3987   -7.8330    2.2938 C   0  0  0  0  0  0  0  0  0  0  0  0
    0.1994   -6.8006    2.9601 C   0  0  0  0  0  0  0  0  0  0  0  0
    1.1401   -5.9002    2.6547 N   0  0  0  0  0  0  0  0  0  0  0  0
    2.2600   -2.8641    2.7777 C   0  0  0  0  0  0  0  0  0  0  0  0
    2.9697   -3.3309   -0.3475 N   0  0  0  0  0  0  0  0  0  0  0  0
    3.1820   -2.6633   -1.5499 C   0  0  0  0  0  0  0  0  0  0  0  0
    2.6933   -3.0352   -2.7335 N   0  0  0  0  0  0  0  0  0  0  0  0
    3.0197   -2.2494   -3.7791 C   0  0  0  0  0  0  0  0  0  0  0  0
    3.8263   -1.0896   -3.7068 C   0  0  0  0  0  0  0  0  0  0  0  0
    4.3414   -0.7196   -2.4469 C   0  0  0  0  0  0  0  0  0  0  0  0
    4.0127   -1.5345   -1.3572 C   0  0  0  0  0  0  0  0  0  0  0  0
    5.3677   -0.8868    1.6687 H   0  0  0  0  0  0  0  0  0  0  0  0
    4.4556    0.3505    0.7911 H   0  0  0  0  0  0  0  0  0  0  0  0
    5.9552   -0.3366    0.1058 H   0  0  0  0  0  0  0  0  0  0  0  0
    4.3784   -2.5427    2.5979 H   0  0  0  0  0  0  0  0  0  0  0  0
    3.1705   -5.0939    1.5617 H   0  0  0  0  0  0  0  0  0  0  0  0
    4.5055   -4.8774    2.7644 H   0  0  0  0  0  0  0  0  0  0  0  0
   -0.5621   -5.8188    6.0608 H   0  0  0  0  0  0  0  0  0  0  0  0
   -2.0175   -9.2066    3.0547 H   0  0  0  0  0  0  0  0  0  0  0  0
   -0.1678   -8.1890    1.3012 H   0  0  0  0  0  0  0  0  0  0  0  0
    2.2233   -1.9974    3.4396 H   0  0  0  0  0  0  0  0  0  0  0  0
    1.4092   -2.8924    2.0980 H   0  0  0  0  0  0  0  0  0  0  0  0
    2.6088   -2.5710   -4.7128 H   0  0  0  0  0  0  0  0  0  0  0  0
    4.0291   -0.4962   -4.5831 H   0  0  0  0  0  0  0  0  0  0  0  0
    4.9607    0.1487   -2.3118 H   0  0  0  0  0  0  0  0  0  0  0  0
  1  2  1  0
  1 24  1  0
  1 25  1  0
  1 26  1  0
  2 23  1  0
  2  3  1  0
  3  4  1  0
  3 17  2  0
  4 16  1  0
  4  5  1  0
  4 27  1  0
  5  6  1  0
  5 28  1  0
  5 29  1  0
  6  7  1  0
  6 16  1  0
  7 15  2  0
  7  8  1  0
  8  9  2  0
  9 10  1  0
  9 30  1  0
 10 14  1  0
 10 11  1  0
 11 12  2  0
 12 13  1  0
 12 31  1  0
 13 14  2  0
 13 32  1  0
 14 15  1  0
 16 33  1  0
 16 34  1  0
 17 18  1  0
 18 23  2  0
 18 19  1  0
 19 20  2  0
 20 21  1  0
 20 35  1  0
 21 22  2  0
 21 36  1  0
 22 23  1  0
 22 37  1  0
M  END
>  <i_m_ct_stereo_status>  (410) 
1

>  <s_m_source_file>  (410) 
/var/tmp/pbs.5076255.sched01/tmpxe1g82q3/12669a6jj4p.sdf

>  <i_m_source_file_index>  (410) 
36

>  <i_lp_mmshare_version>  (410) 
48012

>  <i_f3d_flags>  (410) 
0

>  <s_epik_input>  (410) 
bjFbY0hdW2NIXVtjSF1jKGMxMiluKFtDSDNdKWMobjIpW0NIXTNbQ0gyXU4oW0NIMl0zKWMobltjSF00KW5jKG40NSlbY0hdW2NIXW41

>  <s_epik_cmdline>  (410) 
J2VwaWtfcHl0aG9uJywgJy1waHQnLCAnMi4wJywgJy1waCcsICc3LjAnLCAnLXRuJywgJzgnLCAnLW1hJywgJzIwMCcsICctaW1hZScsICc8aW5maWxlLm1hZT4nLCAnLW9tYWUnLCAnPG91dGZpbGUubWFlPic=

>  <r_lp_tautomer_probability>  (410) 
1

>  <r_epik_Ionization_Penalty>  (410) 
0.349725

>  <r_epik_Ionization_Penalty_Charging>  (410) 
0

>  <r_epik_Ionization_Penalty_Neutral>  (410) 
0.349725

>  <r_epik_State_Penalty>  (410) 
0.000274169

>  <r_epik_Charging_Adjusted_Penalty>  (410) 
0.000274169

>  <i_epik_Tot_Q>  (410) 
0

>  <i_epik_Tot_abs_Q>  (410) 
0

>  <s_lp_Force_Field>  (410) 
OPLS3e

>  <r_lp_Energy>  (410) 
24.2797

>  <b_lp_Chiralities_Consistent>  (410) 
1

>  <s_lp_Variant>  (410) 
116:0-1

>  <s_i_glide_gridfile>  (410) 
pfpi4k_grid

>  <i_i_glide_lignum>  (410) 
36

>  <i_i_glide_rotatable_bonds>  (410) 
2

>  <r_i_docking_score>  (410) 
-3.32605

>  <r_i_glide_ligand_efficiency>  (410) 
-0.144611

>  <r_i_glide_ligand_efficiency_sa>  (410) 
-0.411254

>  <r_i_glide_ligand_efficiency_ln>  (410) 
-0.804269

>  <r_i_glide_gscore>  (410) 
-3.32605

>  <r_i_glide_lipo>  (410) 
-0.559109

>  <r_i_glide_hbond>  (410) 
0

>  <r_i_glide_metal>  (410) 
-0

>  <r_i_glide_rewards>  (410) 
-1.32116

>  <r_i_glide_evdw>  (410) 
-31.6385

>  <r_i_glide_ecoul>  (410) 
-0.283535

>  <r_i_glide_erotb>  (410) 
0.393676

>  <r_i_glide_esite>  (410) 
-0.215003

>  <r_i_glide_emodel>  (410) 
-38.5316

>  <r_i_glide_energy>  (410) 
-31.9221

>  <r_i_glide_einternal>  (410) 
2.30379

>  <r_i_glide_intrahb_reward>  (410) 
-0

>  <i_i_glide_confnum>  (410) 
1

>  <i_i_glide_posenum>  (410) 
10

>  <r_i_glide_eff_state_penalty>  (410) 
0

>  <ligand_id>  (410) 
116

>  <original_smiles>  (410) 
Cn1c(C2CN(c3ncn4nccc4n3)C2)nc2ncccc21

>  <smiles>  (410) 
[H]c1nc2nc(C3([H])C([H])([H])N(c4nc([H])n5nc([H])c([H])c5n4)C3([H])[H])n(C([H])([H])[H])c2c([H])c1[H]

$$$$
117:0:0
     RDKit          3D

 20 20  0  0  1  0  0  0  0  0999 V2000
    2.5992    0.2744   -4.7379 C   0  0  0  0  0  0  0  0  0  0  0  0
    3.3564   -0.8460   -4.0654 C   0  0  0  0  0  0  0  0  0  0  0  0
    4.1861   -1.4528   -4.7133 O   0  0  0  0  0  0  0  0  0  0  0  0
    3.0365   -1.1637   -2.8057 N   0  0  0  0  0  0  0  0  0  0  0  0
    3.6425   -2.2132   -2.0812 C   0  0  0  0  0  0  0  0  0  0  0  0
    2.8973   -3.0007   -1.2944 N   0  0  0  0  0  0  0  0  0  0  0  0
    3.6433   -3.9681   -0.6191 C   0  0  0  0  0  0  0  0  0  0  0  0
    2.9662   -4.9261    0.3422 C   0  0  0  0  0  0  0  0  0  0  0  0
    3.8936   -5.9269    0.6905 O   0  0  0  0  0  0  0  0  0  0  0  0
    1.8265   -5.4480   -0.3056 O   0  0  0  0  0  0  0  0  0  0  0  0
    4.9893   -3.9092   -0.9320 C   0  0  0  0  0  0  0  0  0  0  0  0
    5.3671   -2.6384   -2.0663 S   0  0  0  0  0  0  0  0  0  0  0  0
    2.2339   -0.7294   -2.3612 H   0  0  0  0  0  0  0  0  0  0  0  0
    1.8206    0.6394   -4.0838 H   0  0  0  0  0  0  0  0  0  0  0  0
    2.1028   -0.1055   -5.6243 H   0  0  0  0  0  0  0  0  0  0  0  0
    3.2765    1.0801   -5.0131 H   0  0  0  0  0  0  0  0  0  0  0  0
    2.6524   -4.4008    1.2463 H   0  0  0  0  0  0  0  0  0  0  0  0
    4.2388   -6.3196   -0.1016 H   0  0  0  0  0  0  0  0  0  0  0  0
    2.1049   -5.6481   -1.1992 H   0  0  0  0  0  0  0  0  0  0  0  0
    5.7919   -4.5193   -0.5639 H   0  0  0  0  0  0  0  0  0  0  0  0
  1 14  1  0
  1 15  1  0
  1 16  1  0
  1  2  1  0
  2  4  1  0
  2  3  2  0
  4  5  1  0
  4 13  1  0
  5 12  1  0
  5  6  2  0
  6  7  1  0
  7  8  1  0
  7 11  2  0
  8  9  1  0
  8 10  1  0
  8 17  1  0
  9 18  1  0
 10 19  1  0
 11 20  1  0
 11 12  1  0
M  END
>  <i_m_ct_stereo_status>  (411) 
1

>  <s_m_source_file>  (411) 
/var/tmp/pbs.5076255.sched01/tmpxe1g82q3/12669a6jj4p.sdf

>  <i_m_source_file_index>  (411) 
37

>  <i_lp_mmshare_version>  (411) 
48012

>  <i_f3d_flags>  (411) 
0

>  <s_epik_input>  (411) 
W0NIM11DKD1PKS9OPWMxL1tuSF1jKFtjSF1zMSlbQ0hdKFtPSF0pW09IXQ==

>  <s_epik_cmdline>  (411) 
J2VwaWtfcHl0aG9uJywgJy1waHQnLCAnMi4wJywgJy1waCcsICc3LjAnLCAnLXRuJywgJzgnLCAnLW1hJywgJzIwMCcsICctaW1hZScsICc8aW5maWxlLm1hZT4nLCAnLW9tYWUnLCAnPG91dGZpbGUubWFlPic=

>  <r_lp_tautomer_probability>  (411) 
1

>  <r_epik_Ionization_Penalty>  (411) 
0.000314254

>  <r_epik_Ionization_Penalty_Charging>  (411) 
0

>  <r_epik_Ionization_Penalty_Neutral>  (411) 
0.000314254

>  <r_epik_State_Penalty>  (411) 
-0

>  <r_epik_Charging_Adjusted_Penalty>  (411) 
0

>  <i_epik_Tot_Q>  (411) 
0

>  <i_epik_Tot_abs_Q>  (411) 
0

>  <s_epik_Chemistry_Notes>  (411) 
This compound contains an acetal/aminal-like group ( X-CH(R)-Y where X, Y are N, S, or O) that may be acid/base labile, releasing an aldehyde.

>  <s_lp_Force_Field>  (411) 
OPLS3e

>  <r_lp_Energy>  (411) 
9.80012

>  <b_lp_Chiralities_Consistent>  (411) 
1

>  <s_lp_Variant>  (411) 
117:0-1

>  <s_i_glide_gridfile>  (411) 
pfpi4k_grid

>  <i_i_glide_lignum>  (411) 
37

>  <i_i_glide_rotatable_bonds>  (411) 
5

>  <r_i_docking_score>  (411) 
-4.58178

>  <r_i_glide_ligand_efficiency>  (411) 
-0.381815

>  <r_i_glide_ligand_efficiency_sa>  (411) 
-0.874137

>  <r_i_glide_ligand_efficiency_ln>  (411) 
-1.31475

>  <r_i_glide_gscore>  (411) 
-4.58178

>  <r_i_glide_lipo>  (411) 
-0.0702386

>  <r_i_glide_hbond>  (411) 
-0.388496

>  <r_i_glide_metal>  (411) 
-0

>  <r_i_glide_rewards>  (411) 
-2.36513

>  <r_i_glide_evdw>  (411) 
-18.1854

>  <r_i_glide_ecoul>  (411) 
-11.1929

>  <r_i_glide_erotb>  (411) 
0.903363

>  <r_i_glide_esite>  (411) 
-0.073064

>  <r_i_glide_emodel>  (411) 
-35.7118

>  <r_i_glide_energy>  (411) 
-29.3783

>  <r_i_glide_einternal>  (411) 
5.38878

>  <r_i_glide_intrahb_reward>  (411) 
-0

>  <i_i_glide_confnum>  (411) 
3

>  <i_i_glide_posenum>  (411) 
9

>  <r_i_glide_eff_state_penalty>  (411) 
0

>  <ligand_id>  (411) 
117

>  <original_smiles>  (411) 
CC(=O)N=c1[nH]c(C(O)O)cs1

>  <smiles>  (411) 
[H]OC([H])(O[H])c1nc(N([H])C(=O)C([H])([H])[H])sc1[H]

$$$$
117:0:1
     RDKit          3D

 20 20  0  0  1  0  0  0  0  0999 V2000
    0.5378   -3.1942    5.1323 C   0  0  0  0  0  0  0  0  0  0  0  0
   -0.3723   -1.9952    5.3265 C   0  0  0  0  0  0  0  0  0  0  0  0
   -1.3663   -2.0962    6.0544 O   0  0  0  0  0  0  0  0  0  0  0  0
   -0.0704   -0.8771    4.6668 N   0  0  0  0  0  0  0  0  0  0  0  0
   -0.7361    0.3601    4.8393 C   0  0  0  0  0  0  0  0  0  0  0  0
   -0.9362    1.1419    3.7795 N   0  0  0  0  0  0  0  0  0  0  0  0
   -1.5974    2.3322    4.1044 C   0  0  0  0  0  0  0  0  0  0  0  0
   -1.9654    3.2970    3.0162 C   0  0  0  0  0  0  0  0  0  0  0  0
   -1.4112    4.5571    3.3258 O   0  0  0  0  0  0  0  0  0  0  0  0
   -3.3726    3.3401    2.9517 O   0  0  0  0  0  0  0  0  0  0  0  0
   -1.8709    2.4536    5.4568 C   0  0  0  0  0  0  0  0  0  0  0  0
   -1.3227    1.0692    6.3594 S   0  0  0  0  0  0  0  0  0  0  0  0
    0.6832   -0.9036    3.9849 H   0  0  0  0  0  0  0  0  0  0  0  0
    1.3687   -2.9540    4.4653 H   0  0  0  0  0  0  0  0  0  0  0  0
   -0.0297   -4.0211    4.7048 H   0  0  0  0  0  0  0  0  0  0  0  0
    0.9436   -3.4998    6.0983 H   0  0  0  0  0  0  0  0  0  0  0  0
   -1.5472    2.9563    2.0781 H   0  0  0  0  0  0  0  0  0  0  0  0
   -0.7703    4.7095    2.6385 H   0  0  0  0  0  0  0  0  0  0  0  0
   -3.6524    2.4864    2.6419 H   0  0  0  0  0  0  0  0  0  0  0  0
   -2.3751    3.2594    5.9617 H   0  0  0  0  0  0  0  0  0  0  0  0
  1 14  1  0
  1 15  1  0
  1 16  1  0
  1  2  1  0
  2  4  1  0
  2  3  2  0
  4  5  1  0
  4 13  1  0
  5 12  1  0
  5  6  2  0
  6  7  1  0
  7  8  1  0
  7 11  2  0
  8  9  1  0
  8 10  1  0
  8 17  1  0
  9 18  1  0
 10 19  1  0
 11 20  1  0
 11 12  1  0
M  END
>  <i_m_ct_stereo_status>  (412) 
1

>  <s_m_source_file>  (412) 
/var/tmp/pbs.5076255.sched01/tmpxe1g82q3/12669a6jj4p.sdf

>  <i_m_source_file_index>  (412) 
37

>  <i_lp_mmshare_version>  (412) 
48012

>  <i_f3d_flags>  (412) 
0

>  <s_epik_input>  (412) 
W0NIM11DKD1PKS9OPWMxL1tuSF1jKFtjSF1zMSlbQ0hdKFtPSF0pW09IXQ==

>  <s_epik_cmdline>  (412) 
J2VwaWtfcHl0aG9uJywgJy1waHQnLCAnMi4wJywgJy1waCcsICc3LjAnLCAnLXRuJywgJzgnLCAnLW1hJywgJzIwMCcsICctaW1hZScsICc8aW5maWxlLm1hZT4nLCAnLW9tYWUnLCAnPG91dGZpbGUubWFlPic=

>  <r_lp_tautomer_probability>  (412) 
1

>  <r_epik_Ionization_Penalty>  (412) 
0.000314254

>  <r_epik_Ionization_Penalty_Charging>  (412) 
0

>  <r_epik_Ionization_Penalty_Neutral>  (412) 
0.000314254

>  <r_epik_State_Penalty>  (412) 
-0

>  <r_epik_Charging_Adjusted_Penalty>  (412) 
0

>  <i_epik_Tot_Q>  (412) 
0

>  <i_epik_Tot_abs_Q>  (412) 
0

>  <s_epik_Chemistry_Notes>  (412) 
This compound contains an acetal/aminal-like group ( X-CH(R)-Y where X, Y are N, S, or O) that may be acid/base labile, releasing an aldehyde.

>  <s_lp_Force_Field>  (412) 
OPLS3e

>  <r_lp_Energy>  (412) 
9.80012

>  <b_lp_Chiralities_Consistent>  (412) 
1

>  <s_lp_Variant>  (412) 
117:0-1

>  <s_i_glide_gridfile>  (412) 
pfpi4k_grid

>  <i_i_glide_lignum>  (412) 
37

>  <i_i_glide_rotatable_bonds>  (412) 
5

>  <r_i_docking_score>  (412) 
-3.65367

>  <r_i_glide_ligand_efficiency>  (412) 
-0.304472

>  <r_i_glide_ligand_efficiency_sa>  (412) 
-0.697068

>  <r_i_glide_ligand_efficiency_ln>  (412) 
-1.04843

>  <r_i_glide_gscore>  (412) 
-3.65367

>  <r_i_glide_lipo>  (412) 
-0.0333335

>  <r_i_glide_hbond>  (412) 
0

>  <r_i_glide_metal>  (412) 
-0

>  <r_i_glide_rewards>  (412) 
-2.12587

>  <r_i_glide_evdw>  (412) 
-17.1834

>  <r_i_glide_ecoul>  (412) 
-9.5584

>  <r_i_glide_erotb>  (412) 
0.903363

>  <r_i_glide_esite>  (412) 
-0.104895

>  <r_i_glide_emodel>  (412) 
-30.5124

>  <r_i_glide_energy>  (412) 
-26.7418

>  <r_i_glide_einternal>  (412) 
6.25258

>  <r_i_glide_intrahb_reward>  (412) 
-0

>  <i_i_glide_confnum>  (412) 
1

>  <i_i_glide_posenum>  (412) 
8

>  <r_i_glide_eff_state_penalty>  (412) 
0

>  <ligand_id>  (412) 
117

>  <original_smiles>  (412) 
CC(=O)N=c1[nH]c(C(O)O)cs1

>  <smiles>  (412) 
[H]OC([H])(O[H])c1nc(N([H])C(=O)C([H])([H])[H])sc1[H]

$$$$
117:0:2
     RDKit          3D

 20 20  0  0  1  0  0  0  0  0999 V2000
    3.2977   -0.4892    1.0152 C   0  0  0  0  0  0  0  0  0  0  0  0
    2.4267    0.0357    2.1423 C   0  0  0  0  0  0  0  0  0  0  0  0
    2.8898    0.0855    3.2746 O   0  0  0  0  0  0  0  0  0  0  0  0
    1.1812    0.4319    1.8323 N   0  0  0  0  0  0  0  0  0  0  0  0
    0.2262    0.8771    2.7845 C   0  0  0  0  0  0  0  0  0  0  0  0
   -0.6352    1.8357    2.4412 N   0  0  0  0  0  0  0  0  0  0  0  0
   -1.4781    2.2168    3.5023 C   0  0  0  0  0  0  0  0  0  0  0  0
   -2.4810    3.3358    3.3792 C   0  0  0  0  0  0  0  0  0  0  0  0
   -3.4040    2.9467    2.3864 O   0  0  0  0  0  0  0  0  0  0  0  0
   -1.7789    4.5091    3.0390 O   0  0  0  0  0  0  0  0  0  0  0  0
   -1.3005    1.4482    4.6237 C   0  0  0  0  0  0  0  0  0  0  0  0
   -0.0357    0.2598    4.4239 S   0  0  0  0  0  0  0  0  0  0  0  0
    0.9032    0.4209    0.8510 H   0  0  0  0  0  0  0  0  0  0  0  0
    2.7543   -0.4665    0.0753 H   0  0  0  0  0  0  0  0  0  0  0  0
    3.5827   -1.5203    1.2341 H   0  0  0  0  0  0  0  0  0  0  0  0
    4.1882    0.1361    0.9348 H   0  0  0  0  0  0  0  0  0  0  0  0
   -3.0134    3.4815    4.3235 H   0  0  0  0  0  0  0  0  0  0  0  0
   -3.5898    2.0250    2.4895 H   0  0  0  0  0  0  0  0  0  0  0  0
   -1.2029    4.2937    2.3047 H   0  0  0  0  0  0  0  0  0  0  0  0
   -1.8137    1.5102    5.5669 H   0  0  0  0  0  0  0  0  0  0  0  0
  1 14  1  0
  1 15  1  0
  1 16  1  0
  1  2  1  0
  2  4  1  0
  2  3  2  0
  4  5  1  0
  4 13  1  0
  5 12  1  0
  5  6  2  0
  6  7  1  0
  7  8  1  0
  7 11  2  0
  8  9  1  0
  8 10  1  0
  8 17  1  0
  9 18  1  0
 10 19  1  0
 11 20  1  0
 11 12  1  0
M  END
>  <i_m_ct_stereo_status>  (413) 
1

>  <s_m_source_file>  (413) 
/var/tmp/pbs.5076255.sched01/tmpxe1g82q3/12669a6jj4p.sdf

>  <i_m_source_file_index>  (413) 
37

>  <i_lp_mmshare_version>  (413) 
48012

>  <i_f3d_flags>  (413) 
0

>  <s_epik_input>  (413) 
W0NIM11DKD1PKS9OPWMxL1tuSF1jKFtjSF1zMSlbQ0hdKFtPSF0pW09IXQ==

>  <s_epik_cmdline>  (413) 
J2VwaWtfcHl0aG9uJywgJy1waHQnLCAnMi4wJywgJy1waCcsICc3LjAnLCAnLXRuJywgJzgnLCAnLW1hJywgJzIwMCcsICctaW1hZScsICc8aW5maWxlLm1hZT4nLCAnLW9tYWUnLCAnPG91dGZpbGUubWFlPic=

>  <r_lp_tautomer_probability>  (413) 
1

>  <r_epik_Ionization_Penalty>  (413) 
0.000314254

>  <r_epik_Ionization_Penalty_Charging>  (413) 
0

>  <r_epik_Ionization_Penalty_Neutral>  (413) 
0.000314254

>  <r_epik_State_Penalty>  (413) 
-0

>  <r_epik_Charging_Adjusted_Penalty>  (413) 
0

>  <i_epik_Tot_Q>  (413) 
0

>  <i_epik_Tot_abs_Q>  (413) 
0

>  <s_epik_Chemistry_Notes>  (413) 
This compound contains an acetal/aminal-like group ( X-CH(R)-Y where X, Y are N, S, or O) that may be acid/base labile, releasing an aldehyde.

>  <s_lp_Force_Field>  (413) 
OPLS3e

>  <r_lp_Energy>  (413) 
9.80012

>  <b_lp_Chiralities_Consistent>  (413) 
1

>  <s_lp_Variant>  (413) 
117:0-1

>  <s_i_glide_gridfile>  (413) 
pfpi4k_grid

>  <i_i_glide_lignum>  (413) 
37

>  <i_i_glide_rotatable_bonds>  (413) 
5

>  <r_i_docking_score>  (413) 
-3.60851

>  <r_i_glide_ligand_efficiency>  (413) 
-0.300709

>  <r_i_glide_ligand_efficiency_sa>  (413) 
-0.688452

>  <r_i_glide_ligand_efficiency_ln>  (413) 
-1.03547

>  <r_i_glide_gscore>  (413) 
-3.60851

>  <r_i_glide_lipo>  (413) 
0

>  <r_i_glide_hbond>  (413) 
-0.090296

>  <r_i_glide_metal>  (413) 
-0

>  <r_i_glide_rewards>  (413) 
-2.12587

>  <r_i_glide_evdw>  (413) 
-17.7807

>  <r_i_glide_ecoul>  (413) 
-8.34291

>  <r_i_glide_erotb>  (413) 
0.903363

>  <r_i_glide_esite>  (413) 
-0.155231

>  <r_i_glide_emodel>  (413) 
-30.0961

>  <r_i_glide_energy>  (413) 
-26.1236

>  <r_i_glide_einternal>  (413) 
6.05144

>  <r_i_glide_intrahb_reward>  (413) 
-0

>  <i_i_glide_confnum>  (413) 
5

>  <i_i_glide_posenum>  (413) 
31

>  <r_i_glide_eff_state_penalty>  (413) 
0

>  <ligand_id>  (413) 
117

>  <original_smiles>  (413) 
CC(=O)N=c1[nH]c(C(O)O)cs1

>  <smiles>  (413) 
[H]OC([H])(O[H])c1nc(N([H])C(=O)C([H])([H])[H])sc1[H]

$$$$
118:0:0
     RDKit          3D

 80 86  0  0  1  0  0  0  0  0999 V2000
    0.9046   -8.9670    3.0527 C   0  0  0  0  0  0  0  0  0  0  0  0
    1.8227   -7.8655    2.5046 C   0  0  2  0  0  0  0  0  0  0  0  0
    1.2376   -7.1549    1.2771 C   0  0  0  0  0  0  0  0  0  0  0  0
    2.1899   -6.0676    0.7399 C   0  0  1  0  0  0  0  0  0  0  0  0
    2.2642   -4.9370    1.5693 O   0  0  0  0  0  0  0  0  0  0  0  0
    3.4735   -4.3452    1.1848 C   0  0  1  0  0  0  0  0  0  0  0  0
    3.1947   -3.1811    0.2259 C   0  0  0  0  0  0  0  0  0  0  0  0
    2.7480   -2.0523    1.1686 C   0  0  2  0  0  0  0  0  0  0  0  0
    3.1791   -0.7629    0.7478 O   0  0  0  0  0  0  0  0  0  0  0  0
    3.5033    0.0220    1.8864 C   0  0  1  0  0  0  0  0  0  0  0  0
    2.3367    0.9315    2.3879 C   0  0  1  0  0  0  0  0  0  0  0  0
    0.9140    0.3436    2.3349 C   0  0  0  0  0  0  0  0  0  0  0  0
   -0.1453    1.3697    2.7605 C   0  0  0  0  0  0  0  0  0  0  0  0
    0.1283    1.9849    4.1527 C   0  0  2  0  0  0  0  0  0  0  0  0
   -0.9681    3.0151    4.5144 C   0  0  0  0  0  0  0  0  0  0  0  0
   -0.8116    4.3393    3.7627 C   0  0  0  0  0  0  0  0  0  0  0  0
   -1.7844    4.9282    3.2857 O   0  0  0  0  0  0  0  0  0  0  0  0
    0.5948    4.9382    3.7152 C   0  0  0  0  0  0  0  0  0  0  0  0
    1.6582    3.8671    3.3885 C   0  0  0  0  0  0  0  0  0  0  0  0
    1.5705    2.5788    4.2652 C   0  0  1  0  0  0  0  0  0  0  0  0
    1.8712    2.9962    5.7284 C   0  0  0  0  0  0  0  0  0  0  0  0
    2.6365    1.5212    3.7916 C   0  0  1  0  0  0  0  0  0  0  0  0
    2.8858    0.3426    4.7666 C   0  0  0  0  0  0  0  0  0  0  0  0
    4.1070   -0.4966    4.3519 C   0  0  0  0  0  0  0  0  0  0  0  0
    4.1528   -0.9832    2.8718 C   0  0  2  0  0  0  0  0  0  0  0  0
    5.6537   -1.0701    2.5002 C   0  0  0  0  0  0  0  0  0  0  0  0
    3.3952   -2.3142    2.5466 C   0  0  1  0  0  0  0  0  0  0  0  0
    2.3497   -2.5397    3.4732 O   0  0  0  0  0  0  0  0  0  0  0  0
    4.1874   -3.6458    2.3586 C   0  0  1  0  0  0  0  0  0  0  0  0
    4.3651   -4.5309    3.6034 C   0  0  0  0  0  0  0  0  0  0  0  0
    4.3030   -5.2938    0.5760 O   0  0  0  0  0  0  0  0  0  0  0  0
    3.6542   -6.5214    0.6258 C   0  0  1  0  0  0  0  0  0  0  0  0
    4.1274   -7.3185    1.7725 N   0  0  0  0  0  0  0  0  0  0  0  0
    5.4771   -7.8184    1.5775 C   0  0  0  0  0  0  0  0  0  0  0  0
    3.2089   -8.4008    2.1250 C   0  0  0  0  0  0  0  0  0  0  0  0
    0.7315   -9.7640    2.3278 H   0  0  0  0  0  0  0  0  0  0  0  0
   -0.0620   -8.5591    3.3451 H   0  0  0  0  0  0  0  0  0  0  0  0
    1.3483   -9.4172    3.9416 H   0  0  0  0  0  0  0  0  0  0  0  0
    1.9497   -7.1265    3.2961 H   0  0  0  0  0  0  0  0  0  0  0  0
    1.0364   -7.8766    0.4880 H   0  0  0  0  0  0  0  0  0  0  0  0
    0.2713   -6.7147    1.5190 H   0  0  0  0  0  0  0  0  0  0  0  0
    1.8572   -5.7561   -0.2533 H   0  0  0  0  0  0  0  0  0  0  0  0
    4.1279   -2.9154   -0.2775 H   0  0  0  0  0  0  0  0  0  0  0  0
    2.4525   -3.4384   -0.5347 H   0  0  0  0  0  0  0  0  0  0  0  0
    1.6626   -2.0645    1.2503 H   0  0  0  0  0  0  0  0  0  0  0  0
    4.2636    0.7219    1.5489 H   0  0  0  0  0  0  0  0  0  0  0  0
    2.3251    1.7501    1.6719 H   0  0  0  0  0  0  0  0  0  0  0  0
    0.6878    0.0284    1.3148 H   0  0  0  0  0  0  0  0  0  0  0  0
    0.8135   -0.5335    2.9695 H   0  0  0  0  0  0  0  0  0  0  0  0
   -0.2049    2.1438    1.9951 H   0  0  0  0  0  0  0  0  0  0  0  0
   -1.1219    0.8850    2.7640 H   0  0  0  0  0  0  0  0  0  0  0  0
    0.0483    1.1713    4.8769 H   0  0  0  0  0  0  0  0  0  0  0  0
   -1.9541    2.5978    4.3156 H   0  0  0  0  0  0  0  0  0  0  0  0
   -0.9363    3.2291    5.5821 H   0  0  0  0  0  0  0  0  0  0  0  0
    0.6160    5.7379    2.9720 H   0  0  0  0  0  0  0  0  0  0  0  0
    0.8002    5.4073    4.6769 H   0  0  0  0  0  0  0  0  0  0  0  0
    1.5228    3.6116    2.3439 H   0  0  0  0  0  0  0  0  0  0  0  0
    2.6541    4.3125    3.4435 H   0  0  0  0  0  0  0  0  0  0  0  0
    2.9137    3.2990    5.8399 H   0  0  0  0  0  0  0  0  0  0  0  0
    1.6723    2.1900    6.4339 H   0  0  0  0  0  0  0  0  0  0  0  0
    1.2613    3.8337    6.0633 H   0  0  0  0  0  0  0  0  0  0  0  0
    3.5837    2.0597    3.7225 H   0  0  0  0  0  0  0  0  0  0  0  0
    3.0915    0.6972    5.7747 H   0  0  0  0  0  0  0  0  0  0  0  0
    2.0035   -0.2864    4.8625 H   0  0  0  0  0  0  0  0  0  0  0  0
    4.9805    0.1262    4.5521 H   0  0  0  0  0  0  0  0  0  0  0  0
    4.2048   -1.3473    5.0223 H   0  0  0  0  0  0  0  0  0  0  0  0
    6.1744   -1.7929    3.1290 H   0  0  0  0  0  0  0  0  0  0  0  0
    6.1585   -0.1138    2.6443 H   0  0  0  0  0  0  0  0  0  0  0  0
    5.7995   -1.3508    1.4570 H   0  0  0  0  0  0  0  0  0  0  0  0
    1.8038   -1.7683    3.4702 H   0  0  0  0  0  0  0  0  0  0  0  0
    5.1822   -3.4509    1.9709 H   0  0  0  0  0  0  0  0  0  0  0  0
    3.4223   -4.9540    3.9537 H   0  0  0  0  0  0  0  0  0  0  0  0
    4.7997   -3.9538    4.4190 H   0  0  0  0  0  0  0  0  0  0  0  0
    5.0464   -5.3576    3.4003 H   0  0  0  0  0  0  0  0  0  0  0  0
    3.8421   -7.0526   -0.3022 H   0  0  0  0  0  0  0  0  0  0  0  0
    5.8347   -8.3048    2.4852 H   0  0  0  0  0  0  0  0  0  0  0  0
    6.1628   -6.9996    1.3550 H   0  0  0  0  0  0  0  0  0  0  0  0
    5.5270   -8.5426    0.7629 H   0  0  0  0  0  0  0  0  0  0  0  0
    3.6112   -8.9506    2.9797 H   0  0  0  0  0  0  0  0  0  0  0  0
    3.1318   -9.1154    1.3016 H   0  0  0  0  0  0  0  0  0  0  0  0
  1  2  1  0
  1 36  1  0
  1 37  1  0
  1 38  1  0
  2 35  1  0
  2  3  1  0
  2 39  1  1
  3  4  1  0
  3 40  1  0
  3 41  1  0
  4 32  1  0
  4  5  1  0
  4 42  1  6
  6  5  1  1
  6 29  1  0
  6  7  1  0
  6 31  1  0
  7  8  1  0
  7 43  1  0
  7 44  1  0
  8 27  1  0
  8  9  1  0
  8 45  1  1
  9 10  1  0
 10 25  1  0
 10 11  1  0
 10 46  1  6
 11 22  1  0
 11 12  1  0
 11 47  1  6
 12 13  1  0
 12 48  1  0
 12 49  1  0
 13 14  1  0
 13 50  1  0
 13 51  1  0
 14 20  1  0
 14 15  1  0
 14 52  1  1
 15 16  1  0
 15 53  1  0
 15 54  1  0
 16 17  2  0
 16 18  1  0
 18 19  1  0
 18 55  1  0
 18 56  1  0
 19 20  1  0
 19 57  1  0
 19 58  1  0
 20 21  1  1
 20 22  1  0
 21 59  1  0
 21 60  1  0
 21 61  1  0
 22 23  1  0
 22 62  1  6
 23 24  1  0
 23 63  1  0
 23 64  1  0
 24 25  1  0
 24 65  1  0
 24 66  1  0
 25 26  1  6
 25 27  1  0
 26 67  1  0
 26 68  1  0
 26 69  1  0
 27 28  1  1
 27 29  1  0
 28 70  1  0
 29 30  1  0
 29 71  1  6
 30 72  1  0
 30 73  1  0
 30 74  1  0
 31 32  1  0
 32 33  1  0
 32 75  1  6
 33 34  1  0
 33 35  1  0
 34 76  1  0
 34 77  1  0
 34 78  1  0
 35 79  1  0
 35 80  1  0
M  END
>  <i_m_ct_stereo_status>  (414) 
1

>  <s_m_source_file>  (414) 
/var/tmp/pbs.5076255.sched01/tmpxe1g82q3/12669a6jj4p.sdf

>  <i_m_source_file_index>  (414) 
38

>  <i_lp_mmshare_version>  (414) 
48012

>  <i_f3d_flags>  (414) 
0

>  <s_epik_input>  (414) 
W0NIM11bQ0BIXShbQ0gyXTEpW0NIMl1OKFtDSDNdKVtDQEhdKE8yKVtDQEBIXTFPW0NAXTIzW0NIMl1bQ0BIXTRbQ0BAXShbT0hdKShbQ0BIXTNbQ0gzXSlbQ0BAXTUoW0NIM10pW0NAQEhdKE80KVtDQEBIXTZbQ0BIXShbQ0gyXVtDSDJdNSlbQ0BdNyhbQ0gzXSlbQ0BIXShbQ0gyXVtDSDJdNilbQ0gyXUMoPU8pW0NIMl1bQ0gyXTc=

>  <s_epik_cmdline>  (414) 
J2VwaWtfcHl0aG9uJywgJy1waHQnLCAnMi4wJywgJy1waCcsICc3LjAnLCAnLXRuJywgJzgnLCAnLW1hJywgJzIwMCcsICctaW1hZScsICc8aW5maWxlLm1hZT4nLCAnLW9tYWUnLCAnPG91dGZpbGUubWFlPic=

>  <r_lp_tautomer_probability>  (414) 
1

>  <r_epik_Ionization_Penalty>  (414) 
0.119139

>  <r_epik_Ionization_Penalty_Charging>  (414) 
0

>  <r_epik_Ionization_Penalty_Neutral>  (414) 
0.119139

>  <r_epik_State_Penalty>  (414) 
0.108705

>  <r_epik_Charging_Adjusted_Penalty>  (414) 
0.108705

>  <i_epik_Tot_Q>  (414) 
0

>  <i_epik_Tot_abs_Q>  (414) 
0

>  <s_epik_Chemistry_Notes>  (414) 
This compound contains an acetal/aminal-like group ( X-CH(R)-Y where X, Y are N, S, or O) that may be acid/base labile, releasing an aldehyde.

>  <s_lp_Force_Field>  (414) 
OPLS3e

>  <r_lp_Energy>  (414) 
55.192

>  <b_lp_Chiralities_Consistent>  (414) 
1

>  <s_lp_Variant>  (414) 
118:0-1

>  <s_i_glide_gridfile>  (414) 
pfpi4k_grid

>  <i_i_glide_lignum>  (414) 
38

>  <i_i_glide_rotatable_bonds>  (414) 
1

>  <r_i_docking_score>  (414) 
-2.53227

>  <r_i_glide_ligand_efficiency>  (414) 
-0.0723504

>  <r_i_glide_ligand_efficiency_sa>  (414) 
-0.236663

>  <r_i_glide_ligand_efficiency_ln>  (414) 
-0.555888

>  <r_i_glide_gscore>  (414) 
-2.53227

>  <r_i_glide_lipo>  (414) 
-0.23465

>  <r_i_glide_hbond>  (414) 
-0.16

>  <r_i_glide_metal>  (414) 
-0

>  <r_i_glide_rewards>  (414) 
-0.172719

>  <r_i_glide_evdw>  (414) 
-25.5237

>  <r_i_glide_ecoul>  (414) 
-3.92474

>  <r_i_glide_erotb>  (414) 
0

>  <r_i_glide_esite>  (414) 
-0.1

>  <r_i_glide_emodel>  (414) 
-34.1884

>  <r_i_glide_energy>  (414) 
-29.4484

>  <r_i_glide_einternal>  (414) 
0.0156173

>  <r_i_glide_intrahb_reward>  (414) 
-0

>  <i_i_glide_confnum>  (414) 
2

>  <i_i_glide_posenum>  (414) 
1

>  <r_i_glide_eff_state_penalty>  (414) 
0

>  <ligand_id>  (414) 
118

>  <original_smiles>  (414) 
CC1CC2OC3(CC4OC5C6CCC7CC(=O)CCC7(C)C6CCC5(C)C4(O)C3C)OC2N(C)C1

>  <smiles>  (414) 
[H]OC12C([H])(OC3([H])C4([H])C([H])([H])C([H])([H])C5([H])C([H])([H])C(=O)C([H])([H])C([H])([H])C5(C([H])([H])[H])C4([H])C([H])([H])C([H])([H])C31C([H])([H])[H])C([H])([H])C1(OC3([H])N(C([H])([H])[H])C([H])([H])C([H])(C([H])([H])[H])C([H])([H])C3([H])O1)C2([H])C([H])([H])[H]

$$$$
118:0:1
     RDKit          3D

 80 86  0  0  1  0  0  0  0  0999 V2000
    0.8888   -8.9686    3.0490 C   0  0  0  0  0  0  0  0  0  0  0  0
    1.8093   -7.8654    2.5073 C   0  0  2  0  0  0  0  0  0  0  0  0
    1.2322   -7.1544    1.2759 C   0  0  0  0  0  0  0  0  0  0  0  0
    2.1871   -6.0678    0.7480 C   0  0  1  0  0  0  0  0  0  0  0  0
    2.2609   -4.9390    1.5824 O   0  0  0  0  0  0  0  0  0  0  0  0
    3.4714   -4.3474    1.2006 C   0  0  1  0  0  0  0  0  0  0  0  0
    3.1977   -3.1813    0.2404 C   0  0  0  0  0  0  0  0  0  0  0  0
    2.7471   -2.0513    1.1804 C   0  0  2  0  0  0  0  0  0  0  0  0
    3.1878   -0.7647    0.7619 O   0  0  0  0  0  0  0  0  0  0  0  0
    3.5012    0.0183    1.9049 C   0  0  1  0  0  0  0  0  0  0  0  0
    2.3335    0.9298    2.3990 C   0  0  1  0  0  0  0  0  0  0  0  0
    0.9110    0.3414    2.3398 C   0  0  0  0  0  0  0  0  0  0  0  0
   -0.1503    1.3678    2.7585 C   0  0  0  0  0  0  0  0  0  0  0  0
    0.1166    1.9825    4.1515 C   0  0  2  0  0  0  0  0  0  0  0  0
   -0.9812    3.0130    4.5097 C   0  0  0  0  0  0  0  0  0  0  0  0
   -0.8185    4.3371    3.7610 C   0  0  0  0  0  0  0  0  0  0  0  0
   -1.7865    4.9265    3.2828 O   0  0  0  0  0  0  0  0  0  0  0  0
    0.5865    4.9375    3.7212 C   0  0  0  0  0  0  0  0  0  0  0  0
    1.6522    3.8653    3.3998 C   0  0  0  0  0  0  0  0  0  0  0  0
    1.5578    2.5758    4.2735 C   0  0  1  0  0  0  0  0  0  0  0  0
    1.8496    2.9914    5.7395 C   0  0  0  0  0  0  0  0  0  0  0  0
    2.6258    1.5182    3.8051 C   0  0  1  0  0  0  0  0  0  0  0  0
    2.8700    0.3381    4.7802 C   0  0  0  0  0  0  0  0  0  0  0  0
    4.0938   -0.5003    4.3743 C   0  0  0  0  0  0  0  0  0  0  0  0
    4.1448   -0.9865    2.8942 C   0  0  2  0  0  0  0  0  0  0  0  0
    5.6484   -1.0735    2.5291 C   0  0  0  0  0  0  0  0  0  0  0  0
    3.3834   -2.3143    2.5611 C   0  0  1  0  0  0  0  0  0  0  0  0
    2.3280   -2.5413    3.4782 O   0  0  0  0  0  0  0  0  0  0  0  0
    4.1790   -3.6466    2.3777 C   0  0  1  0  0  0  0  0  0  0  0  0
    4.3485   -4.5343    3.6223 C   0  0  0  0  0  0  0  0  0  0  0  0
    4.3033   -5.2952    0.5926 O   0  0  0  0  0  0  0  0  0  0  0  0
    3.6518   -6.5218    0.6397 C   0  0  1  0  0  0  0  0  0  0  0  0
    4.1198   -7.3198    1.7877 N   0  0  0  0  0  0  0  0  0  0  0  0
    5.4710   -7.8213    1.5986 C   0  0  0  0  0  0  0  0  0  0  0  0
    3.1987   -8.4018    2.1361 C   0  0  0  0  0  0  0  0  0  0  0  0
    0.7204   -9.7630    2.3206 H   0  0  0  0  0  0  0  0  0  0  0  0
   -0.0791   -8.5600    3.3349 H   0  0  0  0  0  0  0  0  0  0  0  0
    1.3272   -9.4203    3.9394 H   0  0  0  0  0  0  0  0  0  0  0  0
    1.9340   -7.1291    3.3038 H   0  0  0  0  0  0  0  0  0  0  0  0
    1.0372   -7.8711    0.4887 H   0  0  0  0  0  0  0  0  0  0  0  0
    0.2659   -6.7130    1.5164 H   0  0  0  0  0  0  0  0  0  0  0  0
    1.8599   -5.7527   -0.2449 H   0  0  0  0  0  0  0  0  0  0  0  0
    4.1341   -2.9154   -0.2571 H   0  0  0  0  0  0  0  0  0  0  0  0
    2.4602   -3.4363   -0.5241 H   0  0  0  0  0  0  0  0  0  0  0  0
    1.6624   -2.0619    1.2618 H   0  0  0  0  0  0  0  0  0  0  0  0
    4.2637    0.7169    1.5729 H   0  0  0  0  0  0  0  0  0  0  0  0
    2.3255    1.7462    1.6811 H   0  0  0  0  0  0  0  0  0  0  0  0
    0.6906    0.0262    1.3186 H   0  0  0  0  0  0  0  0  0  0  0  0
    0.8169   -0.5402    2.9709 H   0  0  0  0  0  0  0  0  0  0  0  0
   -0.2050    2.1432    1.9950 H   0  0  0  0  0  0  0  0  0  0  0  0
   -1.1270    0.8834    2.7566 H   0  0  0  0  0  0  0  0  0  0  0  0
    0.0291    1.1688    4.8752 H   0  0  0  0  0  0  0  0  0  0  0  0
   -1.9679    2.5992    4.3026 H   0  0  0  0  0  0  0  0  0  0  0  0
   -0.9567    3.2265    5.5781 H   0  0  0  0  0  0  0  0  0  0  0  0
    0.6154    5.7354    2.9765 H   0  0  0  0  0  0  0  0  0  0  0  0
    0.7904    5.4068    4.6842 H   0  0  0  0  0  0  0  0  0  0  0  0
    1.5228    3.6094    2.3542 H   0  0  0  0  0  0  0  0  0  0  0  0
    2.6484    4.3073    3.4612 H   0  0  0  0  0  0  0  0  0  0  0  0
    2.8913    3.2937    5.8561 H   0  0  0  0  0  0  0  0  0  0  0  0
    1.6458    2.1851    6.4430 H   0  0  0  0  0  0  0  0  0  0  0  0
    1.2381    3.8290    6.0710 H   0  0  0  0  0  0  0  0  0  0  0  0
    3.5729    2.0564    3.7415 H   0  0  0  0  0  0  0  0  0  0  0  0
    3.0645    0.6904    5.7908 H   0  0  0  0  0  0  0  0  0  0  0  0
    1.9874   -0.2935    4.8629 H   0  0  0  0  0  0  0  0  0  0  0  0
    4.9658    0.1234    4.5776 H   0  0  0  0  0  0  0  0  0  0  0  0
    4.1891   -1.3484    5.0482 H   0  0  0  0  0  0  0  0  0  0  0  0
    6.1660   -1.7956    3.1586 H   0  0  0  0  0  0  0  0  0  0  0  0
    6.1513   -0.1156    2.6746 H   0  0  0  0  0  0  0  0  0  0  0  0
    5.7988   -1.3531    1.4853 H   0  0  0  0  0  0  0  0  0  0  0  0
    2.7182   -2.7876    4.3021 H   0  0  0  0  0  0  0  0  0  0  0  0
    5.1765   -3.4556    1.9957 H   0  0  0  0  0  0  0  0  0  0  0  0
    3.4060   -4.9639    3.9671 H   0  0  0  0  0  0  0  0  0  0  0  0
    4.7835   -3.9627    4.4423 H   0  0  0  0  0  0  0  0  0  0  0  0
    5.0315   -5.3621    3.4215 H   0  0  0  0  0  0  0  0  0  0  0  0
    3.8433   -7.0542   -0.2876 H   0  0  0  0  0  0  0  0  0  0  0  0
    5.8228   -8.3085    2.5074 H   0  0  0  0  0  0  0  0  0  0  0  0
    6.1579   -7.0032    1.3807 H   0  0  0  0  0  0  0  0  0  0  0  0
    5.5249   -8.5444    0.7840 H   0  0  0  0  0  0  0  0  0  0  0  0
    3.5965   -8.9536    2.9909 H   0  0  0  0  0  0  0  0  0  0  0  0
    3.1239   -9.1152    1.3096 H   0  0  0  0  0  0  0  0  0  0  0  0
  1  2  1  0
  1 36  1  0
  1 37  1  0
  1 38  1  0
  2 35  1  0
  2  3  1  0
  2 39  1  1
  3  4  1  0
  3 40  1  0
  3 41  1  0
  4 32  1  0
  4  5  1  0
  4 42  1  6
  6  5  1  1
  6 29  1  0
  6  7  1  0
  6 31  1  0
  7  8  1  0
  7 43  1  0
  7 44  1  0
  8 27  1  0
  8  9  1  0
  8 45  1  1
  9 10  1  0
 10 25  1  0
 10 11  1  0
 10 46  1  6
 11 22  1  0
 11 12  1  0
 11 47  1  6
 12 13  1  0
 12 48  1  0
 12 49  1  0
 13 14  1  0
 13 50  1  0
 13 51  1  0
 14 20  1  0
 14 15  1  0
 14 52  1  1
 15 16  1  0
 15 53  1  0
 15 54  1  0
 16 17  2  0
 16 18  1  0
 18 19  1  0
 18 55  1  0
 18 56  1  0
 19 20  1  0
 19 57  1  0
 19 58  1  0
 20 21  1  1
 20 22  1  0
 21 59  1  0
 21 60  1  0
 21 61  1  0
 22 23  1  0
 22 62  1  6
 23 24  1  0
 23 63  1  0
 23 64  1  0
 24 25  1  0
 24 65  1  0
 24 66  1  0
 25 26  1  6
 25 27  1  0
 26 67  1  0
 26 68  1  0
 26 69  1  0
 27 28  1  1
 27 29  1  0
 28 70  1  0
 29 30  1  0
 29 71  1  6
 30 72  1  0
 30 73  1  0
 30 74  1  0
 31 32  1  0
 32 33  1  0
 32 75  1  6
 33 34  1  0
 33 35  1  0
 34 76  1  0
 34 77  1  0
 34 78  1  0
 35 79  1  0
 35 80  1  0
M  END
>  <i_m_ct_stereo_status>  (415) 
1

>  <s_m_source_file>  (415) 
/var/tmp/pbs.5076255.sched01/tmpxe1g82q3/12669a6jj4p.sdf

>  <i_m_source_file_index>  (415) 
38

>  <i_lp_mmshare_version>  (415) 
48012

>  <i_f3d_flags>  (415) 
0

>  <s_epik_input>  (415) 
W0NIM11bQ0BIXShbQ0gyXTEpW0NIMl1OKFtDSDNdKVtDQEhdKE8yKVtDQEBIXTFPW0NAXTIzW0NIMl1bQ0BIXTRbQ0BAXShbT0hdKShbQ0BIXTNbQ0gzXSlbQ0BAXTUoW0NIM10pW0NAQEhdKE80KVtDQEBIXTZbQ0BIXShbQ0gyXVtDSDJdNSlbQ0BdNyhbQ0gzXSlbQ0BIXShbQ0gyXVtDSDJdNilbQ0gyXUMoPU8pW0NIMl1bQ0gyXTc=

>  <s_epik_cmdline>  (415) 
J2VwaWtfcHl0aG9uJywgJy1waHQnLCAnMi4wJywgJy1waCcsICc3LjAnLCAnLXRuJywgJzgnLCAnLW1hJywgJzIwMCcsICctaW1hZScsICc8aW5maWxlLm1hZT4nLCAnLW9tYWUnLCAnPG91dGZpbGUubWFlPic=

>  <r_lp_tautomer_probability>  (415) 
1

>  <r_epik_Ionization_Penalty>  (415) 
0.119139

>  <r_epik_Ionization_Penalty_Charging>  (415) 
0

>  <r_epik_Ionization_Penalty_Neutral>  (415) 
0.119139

>  <r_epik_State_Penalty>  (415) 
0.108705

>  <r_epik_Charging_Adjusted_Penalty>  (415) 
0.108705

>  <i_epik_Tot_Q>  (415) 
0

>  <i_epik_Tot_abs_Q>  (415) 
0

>  <s_epik_Chemistry_Notes>  (415) 
This compound contains an acetal/aminal-like group ( X-CH(R)-Y where X, Y are N, S, or O) that may be acid/base labile, releasing an aldehyde.

>  <s_lp_Force_Field>  (415) 
OPLS3e

>  <r_lp_Energy>  (415) 
55.192

>  <b_lp_Chiralities_Consistent>  (415) 
1

>  <s_lp_Variant>  (415) 
118:0-1

>  <s_i_glide_gridfile>  (415) 
pfpi4k_grid

>  <i_i_glide_lignum>  (415) 
38

>  <i_i_glide_rotatable_bonds>  (415) 
1

>  <r_i_docking_score>  (415) 
-2.35809

>  <r_i_glide_ligand_efficiency>  (415) 
-0.0673739

>  <r_i_glide_ligand_efficiency_sa>  (415) 
-0.220384

>  <r_i_glide_ligand_efficiency_ln>  (415) 
-0.517652

>  <r_i_glide_gscore>  (415) 
-2.35809

>  <r_i_glide_lipo>  (415) 
-0.228741

>  <r_i_glide_hbond>  (415) 
-0.16

>  <r_i_glide_metal>  (415) 
-0

>  <r_i_glide_rewards>  (415) 
-0.172705

>  <r_i_glide_evdw>  (415) 
-25.5411

>  <r_i_glide_ecoul>  (415) 
-2.79723

>  <r_i_glide_erotb>  (415) 
0

>  <r_i_glide_esite>  (415) 
-0.1

>  <r_i_glide_emodel>  (415) 
-32.7423

>  <r_i_glide_energy>  (415) 
-28.3383

>  <r_i_glide_einternal>  (415) 
0.023427

>  <r_i_glide_intrahb_reward>  (415) 
-0

>  <i_i_glide_confnum>  (415) 
2

>  <i_i_glide_posenum>  (415) 
28

>  <r_i_glide_eff_state_penalty>  (415) 
0

>  <ligand_id>  (415) 
118

>  <original_smiles>  (415) 
CC1CC2OC3(CC4OC5C6CCC7CC(=O)CCC7(C)C6CCC5(C)C4(O)C3C)OC2N(C)C1

>  <smiles>  (415) 
[H]OC12C([H])(OC3([H])C4([H])C([H])([H])C([H])([H])C5([H])C([H])([H])C(=O)C([H])([H])C([H])([H])C5(C([H])([H])[H])C4([H])C([H])([H])C([H])([H])C31C([H])([H])[H])C([H])([H])C1(OC3([H])N(C([H])([H])[H])C([H])([H])C([H])(C([H])([H])[H])C([H])([H])C3([H])O1)C2([H])C([H])([H])[H]

$$$$
118:0:2
     RDKit          3D

 80 86  0  0  1  0  0  0  0  0999 V2000
    0.6492    4.6143    3.7978 C   0  0  0  0  0  0  0  0  0  0  0  0
    0.2319    3.3373    4.5433 C   0  0  2  0  0  0  0  0  0  0  0  0
   -0.6905    2.4324    3.7158 C   0  0  0  0  0  0  0  0  0  0  0  0
   -1.0769    1.1613    4.4960 C   0  0  1  0  0  0  0  0  0  0  0  0
   -0.0264    0.2377    4.6718 O   0  0  0  0  0  0  0  0  0  0  0  0
   -0.4618   -0.5243    5.7592 C   0  0  1  0  0  0  0  0  0  0  0  0
   -1.0536   -1.8451    5.2556 C   0  0  0  0  0  0  0  0  0  0  0  0
    0.1880   -2.6887    4.9188 C   0  0  2  0  0  0  0  0  0  0  0  0
    0.0225   -4.0757    5.1998 O   0  0  0  0  0  0  0  0  0  0  0  0
    1.2494   -4.6067    5.6927 C   0  0  1  0  0  0  0  0  0  0  0  0
    2.1329   -5.2694    4.5867 C   0  0  1  0  0  0  0  0  0  0  0  0
    2.1734   -4.5783    3.2090 C   0  0  0  0  0  0  0  0  0  0  0  0
    2.9925   -5.3821    2.1885 C   0  0  0  0  0  0  0  0  0  0  0  0
    4.4287   -5.6921    2.6731 C   0  0  2  0  0  0  0  0  0  0  0  0
    5.2075   -6.5060    1.6095 C   0  0  0  0  0  0  0  0  0  0  0  0
    4.7890   -7.9775    1.5593 C   0  0  0  0  0  0  0  0  0  0  0  0
    4.6155   -8.5532    0.4875 O   0  0  0  0  0  0  0  0  0  0  0  0
    4.6469   -8.7004    2.8993 C   0  0  0  0  0  0  0  0  0  0  0  0
    3.8913   -7.8330    3.9310 C   0  0  0  0  0  0  0  0  0  0  0  0
    4.4429   -6.3771    4.0758 C   0  0  1  0  0  0  0  0  0  0  0  0
    5.8963   -6.4777    4.6114 C   0  0  0  0  0  0  0  0  0  0  0  0
    3.5710   -5.5512    5.0967 C   0  0  1  0  0  0  0  0  0  0  0  0
    4.1826   -4.2088    5.5719 C   0  0  0  0  0  0  0  0  0  0  0  0
    3.3907   -3.5976    6.7417 C   0  0  0  0  0  0  0  0  0  0  0  0
    1.8506   -3.4661    6.5524 C   0  0  2  0  0  0  0  0  0  0  0  0
    1.2353   -3.6002    7.9695 C   0  0  0  0  0  0  0  0  0  0  0  0
    1.3414   -2.1820    5.8127 C   0  0  1  0  0  0  0  0  0  0  0  0
    2.3348   -1.6539    4.9525 O   0  0  0  0  0  0  0  0  0  0  0  0
    0.7156   -1.0046    6.6339 C   0  0  1  0  0  0  0  0  0  0  0  0
    1.6697    0.1212    7.0711 C   0  0  0  0  0  0  0  0  0  0  0  0
   -1.4229    0.1818    6.4964 O   0  0  0  0  0  0  0  0  0  0  0  0
   -1.5427    1.4491    5.9317 C   0  0  1  0  0  0  0  0  0  0  0  0
   -0.7037    2.4239    6.6514 N   0  0  0  0  0  0  0  0  0  0  0  0
   -1.2312    2.7448    7.9685 C   0  0  0  0  0  0  0  0  0  0  0  0
   -0.4735    3.6396    5.8704 C   0  0  0  0  0  0  0  0  0  0  0  0
   -0.2023    5.2381    3.5306 H   0  0  0  0  0  0  0  0  0  0  0  0
    1.1785    4.3674    2.8779 H   0  0  0  0  0  0  0  0  0  0  0  0
    1.3238    5.2091    4.4120 H   0  0  0  0  0  0  0  0  0  0  0  0
    1.1448    2.7810    4.7640 H   0  0  0  0  0  0  0  0  0  0  0  0
   -1.5937    2.9759    3.4426 H   0  0  0  0  0  0  0  0  0  0  0  0
   -0.2064    2.1564    2.7779 H   0  0  0  0  0  0  0  0  0  0  0  0
   -1.8972    0.6618    3.9756 H   0  0  0  0  0  0  0  0  0  0  0  0
   -1.6218   -2.3089    6.0659 H   0  0  0  0  0  0  0  0  0  0  0  0
   -1.7183   -1.6748    4.4113 H   0  0  0  0  0  0  0  0  0  0  0  0
    0.4215   -2.5555    3.8639 H   0  0  0  0  0  0  0  0  0  0  0  0
    0.9863   -5.4312    6.3586 H   0  0  0  0  0  0  0  0  0  0  0  0
    1.6448   -6.2258    4.4076 H   0  0  0  0  0  0  0  0  0  0  0  0
    1.1591   -4.4669    2.8277 H   0  0  0  0  0  0  0  0  0  0  0  0
    2.5905   -3.5761    3.2789 H   0  0  0  0  0  0  0  0  0  0  0  0
    2.4610   -6.3026    1.9492 H   0  0  0  0  0  0  0  0  0  0  0  0
    3.0446   -4.8193    1.2567 H   0  0  0  0  0  0  0  0  0  0  0  0
    4.9442   -4.7334    2.7627 H   0  0  0  0  0  0  0  0  0  0  0  0
    5.0708   -6.0666    0.6211 H   0  0  0  0  0  0  0  0  0  0  0  0
    6.2766   -6.4732    1.8146 H   0  0  0  0  0  0  0  0  0  0  0  0
    4.1271   -9.6477    2.7431 H   0  0  0  0  0  0  0  0  0  0  0  0
    5.6418   -8.9571    3.2619 H   0  0  0  0  0  0  0  0  0  0  0  0
    2.8512   -7.8225    3.6146 H   0  0  0  0  0  0  0  0  0  0  0  0
    3.8918   -8.3394    4.8970 H   0  0  0  0  0  0  0  0  0  0  0  0
    5.9093   -6.8406    5.6405 H   0  0  0  0  0  0  0  0  0  0  0  0
    6.4121   -5.5191    4.5826 H   0  0  0  0  0  0  0  0  0  0  0  0
    6.5187   -7.1570    4.0304 H   0  0  0  0  0  0  0  0  0  0  0  0
    3.4848   -6.1735    5.9906 H   0  0  0  0  0  0  0  0  0  0  0  0
    5.1996   -4.3419    5.9327 H   0  0  0  0  0  0  0  0  0  0  0  0
    4.2606   -3.4947    4.7553 H   0  0  0  0  0  0  0  0  0  0  0  0
    3.5936   -4.2347    7.6047 H   0  0  0  0  0  0  0  0  0  0  0  0
    3.8152   -2.6271    6.9997 H   0  0  0  0  0  0  0  0  0  0  0  0
    1.5901   -2.8149    8.6392 H   0  0  0  0  0  0  0  0  0  0  0  0
    1.5125   -4.5504    8.4323 H   0  0  0  0  0  0  0  0  0  0  0  0
    0.1463   -3.5755    7.9451 H   0  0  0  0  0  0  0  0  0  0  0  0
    1.9374   -0.9549    4.4496 H   0  0  0  0  0  0  0  0  0  0  0  0
    0.2326   -1.3717    7.5359 H   0  0  0  0  0  0  0  0  0  0  0  0
    2.0583    0.6949    6.2295 H   0  0  0  0  0  0  0  0  0  0  0  0
    2.5163   -0.2940    7.6133 H   0  0  0  0  0  0  0  0  0  0  0  0
    1.1708    0.8160    7.7453 H   0  0  0  0  0  0  0  0  0  0  0  0
   -2.5773    1.7856    5.9520 H   0  0  0  0  0  0  0  0  0  0  0  0
   -0.5379    3.3927    8.5052 H   0  0  0  0  0  0  0  0  0  0  0  0
   -1.3572    1.8420    8.5666 H   0  0  0  0  0  0  0  0  0  0  0  0
   -2.1935    3.2561    7.9126 H   0  0  0  0  0  0  0  0  0  0  0  0
    0.1474    4.3286    6.4460 H   0  0  0  0  0  0  0  0  0  0  0  0
   -1.4224    4.1505    5.6850 H   0  0  0  0  0  0  0  0  0  0  0  0
  1  2  1  0
  1 36  1  0
  1 37  1  0
  1 38  1  0
  2 35  1  0
  2  3  1  0
  2 39  1  1
  3  4  1  0
  3 40  1  0
  3 41  1  0
  4 32  1  0
  4  5  1  0
  4 42  1  6
  6  5  1  6
  6 29  1  0
  6  7  1  0
  6 31  1  0
  7  8  1  0
  7 43  1  0
  7 44  1  0
  8 27  1  0
  8  9  1  0
  8 45  1  6
  9 10  1  0
 10 25  1  0
 10 11  1  0
 10 46  1  1
 11 22  1  0
 11 12  1  0
 11 47  1  6
 12 13  1  0
 12 48  1  0
 12 49  1  0
 13 14  1  0
 13 50  1  0
 13 51  1  0
 14 20  1  0
 14 15  1  0
 14 52  1  1
 15 16  1  0
 15 53  1  0
 15 54  1  0
 16 17  2  0
 16 18  1  0
 18 19  1  0
 18 55  1  0
 18 56  1  0
 19 20  1  0
 19 57  1  0
 19 58  1  0
 20 21  1  1
 20 22  1  0
 21 59  1  0
 21 60  1  0
 21 61  1  0
 22 23  1  0
 22 62  1  1
 23 24  1  0
 23 63  1  0
 23 64  1  0
 24 25  1  0
 24 65  1  0
 24 66  1  0
 25 26  1  1
 25 27  1  0
 26 67  1  0
 26 68  1  0
 26 69  1  0
 27 28  1  6
 27 29  1  0
 28 70  1  0
 29 30  1  0
 29 71  1  1
 30 72  1  0
 30 73  1  0
 30 74  1  0
 31 32  1  0
 32 33  1  0
 32 75  1  6
 33 34  1  0
 33 35  1  0
 34 76  1  0
 34 77  1  0
 34 78  1  0
 35 79  1  0
 35 80  1  0
M  END
>  <i_m_ct_stereo_status>  (416) 
1

>  <s_m_source_file>  (416) 
/var/tmp/pbs.5076255.sched01/tmpxe1g82q3/12669a6jj4p.sdf

>  <i_m_source_file_index>  (416) 
38

>  <i_lp_mmshare_version>  (416) 
48012

>  <i_f3d_flags>  (416) 
0

>  <s_epik_input>  (416) 
W0NIM11bQ0BIXShbQ0gyXTEpW0NIMl1OKFtDSDNdKVtDQEhdKE8yKVtDQEBIXTFPW0NAXTIzW0NIMl1bQ0BIXTRbQ0BAXShbT0hdKShbQ0BIXTNbQ0gzXSlbQ0BAXTUoW0NIM10pW0NAQEhdKE80KVtDQEBIXTZbQ0BIXShbQ0gyXVtDSDJdNSlbQ0BdNyhbQ0gzXSlbQ0BIXShbQ0gyXVtDSDJdNilbQ0gyXUMoPU8pW0NIMl1bQ0gyXTc=

>  <s_epik_cmdline>  (416) 
J2VwaWtfcHl0aG9uJywgJy1waHQnLCAnMi4wJywgJy1waCcsICc3LjAnLCAnLXRuJywgJzgnLCAnLW1hJywgJzIwMCcsICctaW1hZScsICc8aW5maWxlLm1hZT4nLCAnLW9tYWUnLCAnPG91dGZpbGUubWFlPic=

>  <r_lp_tautomer_probability>  (416) 
1

>  <r_epik_Ionization_Penalty>  (416) 
0.119139

>  <r_epik_Ionization_Penalty_Charging>  (416) 
0

>  <r_epik_Ionization_Penalty_Neutral>  (416) 
0.119139

>  <r_epik_State_Penalty>  (416) 
0.108705

>  <r_epik_Charging_Adjusted_Penalty>  (416) 
0.108705

>  <i_epik_Tot_Q>  (416) 
0

>  <i_epik_Tot_abs_Q>  (416) 
0

>  <s_epik_Chemistry_Notes>  (416) 
This compound contains an acetal/aminal-like group ( X-CH(R)-Y where X, Y are N, S, or O) that may be acid/base labile, releasing an aldehyde.

>  <s_lp_Force_Field>  (416) 
OPLS3e

>  <r_lp_Energy>  (416) 
55.192

>  <b_lp_Chiralities_Consistent>  (416) 
1

>  <s_lp_Variant>  (416) 
118:0-1

>  <s_i_glide_gridfile>  (416) 
pfpi4k_grid

>  <i_i_glide_lignum>  (416) 
38

>  <i_i_glide_rotatable_bonds>  (416) 
1

>  <r_i_docking_score>  (416) 
-2.21347

>  <r_i_glide_ligand_efficiency>  (416) 
-0.0632421

>  <r_i_glide_ligand_efficiency_sa>  (416) 
-0.206869

>  <r_i_glide_ligand_efficiency_ln>  (416) 
-0.485906

>  <r_i_glide_gscore>  (416) 
-2.21347

>  <r_i_glide_lipo>  (416) 
-0.0800715

>  <r_i_glide_hbond>  (416) 
-0.16

>  <r_i_glide_metal>  (416) 
-0

>  <r_i_glide_rewards>  (416) 
-0.641517

>  <r_i_glide_evdw>  (416) 
-19.0599

>  <r_i_glide_ecoul>  (416) 
-2.11136

>  <r_i_glide_erotb>  (416) 
0

>  <r_i_glide_esite>  (416) 
-0.0621827

>  <r_i_glide_emodel>  (416) 
-30.3054

>  <r_i_glide_energy>  (416) 
-21.1713

>  <r_i_glide_einternal>  (416) 
0.0181526

>  <r_i_glide_intrahb_reward>  (416) 
-0.5

>  <i_i_glide_confnum>  (416) 
1

>  <i_i_glide_posenum>  (416) 
3

>  <r_i_glide_eff_state_penalty>  (416) 
0

>  <ligand_id>  (416) 
118

>  <original_smiles>  (416) 
CC1CC2OC3(CC4OC5C6CCC7CC(=O)CCC7(C)C6CCC5(C)C4(O)C3C)OC2N(C)C1

>  <smiles>  (416) 
[H]OC12C([H])(OC3([H])C4([H])C([H])([H])C([H])([H])C5([H])C([H])([H])C(=O)C([H])([H])C([H])([H])C5(C([H])([H])[H])C4([H])C([H])([H])C([H])([H])C31C([H])([H])[H])C([H])([H])C1(OC3([H])N(C([H])([H])[H])C([H])([H])C([H])(C([H])([H])[H])C([H])([H])C3([H])O1)C2([H])C([H])([H])[H]

$$$$
118:1:0
     RDKit          3D

 81 87  0  0  1  0  0  0  0  0999 V2000
    1.9938    3.9034    4.0277 C   0  0  0  0  0  0  0  0  0  0  0  0
    2.0343    2.4040    3.6948 C   0  0  2  0  0  0  0  0  0  0  0  0
    1.5593    2.1386    2.2758 C   0  0  0  0  0  0  0  0  0  0  0  0
    1.6222    0.6432    1.9030 C   0  0  1  0  0  0  0  0  0  0  0  0
    2.9105    0.0778    1.8610 O   0  0  0  0  0  0  0  0  0  0  0  0
    2.7319   -1.2898    2.1411 C   0  0  1  0  0  0  0  0  0  0  0  0
    2.9859   -2.1486    0.8986 C   0  0  0  0  0  0  0  0  0  0  0  0
    3.5423   -3.4540    1.4649 C   0  0  2  0  0  0  0  0  0  0  0  0
    2.5530   -4.2685    2.0876 O   0  0  0  0  0  0  0  0  0  0  0  0
    3.0503   -4.8241    3.3116 C   0  0  1  0  0  0  0  0  0  0  0  0
    2.8144   -6.3637    3.3632 C   0  0  1  0  0  0  0  0  0  0  0  0
    2.6309   -7.0420    1.9852 C   0  0  0  0  0  0  0  0  0  0  0  0
    2.2965   -8.5311    2.1239 C   0  0  0  0  0  0  0  0  0  0  0  0
    3.3498   -9.3082    2.9460 C   0  0  2  0  0  0  0  0  0  0  0  0
    2.9679  -10.8032    3.0508 C   0  0  0  0  0  0  0  0  0  0  0  0
    1.8469  -11.0721    4.0647 C   0  0  0  0  0  0  0  0  0  0  0  0
    0.9215  -11.8208    3.8129 O   0  0  0  0  0  0  0  0  0  0  0  0
    1.9786  -10.3739    5.4218 C   0  0  0  0  0  0  0  0  0  0  0  0
    2.3643   -8.8913    5.2521 C   0  0  0  0  0  0  0  0  0  0  0  0
    3.6117   -8.6489    4.3473 C   0  0  1  0  0  0  0  0  0  0  0  0
    4.8296   -9.3212    5.0320 C   0  0  0  0  0  0  0  0  0  0  0  0
    3.8922   -7.1114    4.1883 C   0  0  1  0  0  0  0  0  0  0  0  0
    5.3175   -6.7707    3.6616 C   0  0  0  0  0  0  0  0  0  0  0  0
    5.4626   -5.4041    2.9489 C   0  0  0  0  0  0  0  0  0  0  0  0
    4.5059   -4.3091    3.4920 C   0  0  2  0  0  0  0  0  0  0  0  0
    4.8959   -3.9699    4.9527 C   0  0  0  0  0  0  0  0  0  0  0  0
    4.4591   -3.0362    2.6038 C   0  0  1  0  0  0  0  0  0  0  0  0
    5.7362   -2.6944    2.0942 O   0  0  0  0  0  0  0  0  0  0  0  0
    3.7466   -1.7763    3.2078 C   0  0  1  0  0  0  0  0  0  0  0  0
    4.6882   -0.6540    3.7125 C   0  0  0  0  0  0  0  0  0  0  0  0
    1.4204   -1.5090    2.5923 O   0  0  0  0  0  0  0  0  0  0  0  0
    0.8438   -0.2768    2.8413 C   0  0  1  0  0  0  0  0  0  0  0  0
    1.2934    0.1265    4.3128 N   0  0  2  0  0  0  0  0  0  0  0  0
    0.5839   -0.7017    5.3389 C   0  0  0  0  0  0  0  0  0  0  0  0
    1.1637    1.5857    4.6423 C   0  0  0  0  0  0  0  0  0  0  0  0
    0.9852    4.3094    3.9295 H   0  0  0  0  0  0  0  0  0  0  0  0
    2.6416    4.4598    3.3528 H   0  0  0  0  0  0  0  0  0  0  0  0
    2.3400    4.0902    5.0475 H   0  0  0  0  0  0  0  0  0  0  0  0
    3.0778    2.0902    3.7778 H   0  0  0  0  0  0  0  0  0  0  0  0
    0.5454    2.5164    2.1202 H   0  0  0  0  0  0  0  0  0  0  0  0
    2.2015    2.6918    1.5991 H   0  0  0  0  0  0  0  0  0  0  0  0
    1.1912    0.5410    0.9184 H   0  0  0  0  0  0  0  0  0  0  0  0
    2.0980   -2.2885    0.2844 H   0  0  0  0  0  0  0  0  0  0  0  0
    3.7497   -1.6681    0.2930 H   0  0  0  0  0  0  0  0  0  0  0  0
    4.0622   -4.0371    0.7001 H   0  0  0  0  0  0  0  0  0  0  0  0
    2.4478   -4.3795    4.1039 H   0  0  0  0  0  0  0  0  0  0  0  0
    1.8565   -6.4757    3.8659 H   0  0  0  0  0  0  0  0  0  0  0  0
    1.8135   -6.5602    1.4453 H   0  0  0  0  0  0  0  0  0  0  0  0
    3.5187   -6.9254    1.3661 H   0  0  0  0  0  0  0  0  0  0  0  0
    1.3055   -8.6399    2.5684 H   0  0  0  0  0  0  0  0  0  0  0  0
    2.2203   -8.9746    1.1305 H   0  0  0  0  0  0  0  0  0  0  0  0
    4.2748   -9.2779    2.3700 H   0  0  0  0  0  0  0  0  0  0  0  0
    2.6586  -11.1824    2.0830 H   0  0  0  0  0  0  0  0  0  0  0  0
    3.8274  -11.4023    3.3427 H   0  0  0  0  0  0  0  0  0  0  0  0
    1.0331  -10.4693    5.9600 H   0  0  0  0  0  0  0  0  0  0  0  0
    2.7128  -10.9095    6.0181 H   0  0  0  0  0  0  0  0  0  0  0  0
    1.4921   -8.3927    4.8410 H   0  0  0  0  0  0  0  0  0  0  0  0
    2.5215   -8.4457    6.2415 H   0  0  0  0  0  0  0  0  0  0  0  0
    5.0504   -8.8409    5.9880 H   0  0  0  0  0  0  0  0  0  0  0  0
    5.7306   -9.2798    4.4219 H   0  0  0  0  0  0  0  0  0  0  0  0
    4.6663  -10.3781    5.2388 H   0  0  0  0  0  0  0  0  0  0  0  0
    3.8360   -6.6970    5.2053 H   0  0  0  0  0  0  0  0  0  0  0  0
    5.9981   -6.7830    4.5032 H   0  0  0  0  0  0  0  0  0  0  0  0
    5.6817   -7.5507    2.9794 H   0  0  0  0  0  0  0  0  0  0  0  0
    6.5050   -5.0770    3.0092 H   0  0  0  0  0  0  0  0  0  0  0  0
    5.2635   -5.5598    1.8959 H   0  0  0  0  0  0  0  0  0  0  0  0
    5.8541   -3.4499    4.9845 H   0  0  0  0  0  0  0  0  0  0  0  0
    5.0071   -4.8574    5.5721 H   0  0  0  0  0  0  0  0  0  0  0  0
    4.1663   -3.3397    5.4581 H   0  0  0  0  0  0  0  0  0  0  0  0
    6.0900   -3.4590    1.6569 H   0  0  0  0  0  0  0  0  0  0  0  0
    3.1339   -2.0847    4.0532 H   0  0  0  0  0  0  0  0  0  0  0  0
    5.2437   -0.1859    2.8951 H   0  0  0  0  0  0  0  0  0  0  0  0
    5.4136   -1.0520    4.4184 H   0  0  0  0  0  0  0  0  0  0  0  0
    4.1355    0.1297    4.2260 H   0  0  0  0  0  0  0  0  0  0  0  0
   -0.2424   -0.2620    2.6819 H   0  0  0  0  0  0  0  0  0  0  0  0
   -0.4836   -0.4863    5.2990 H   0  0  0  0  0  0  0  0  0  0  0  0
    0.9506   -0.5051    6.3378 H   0  0  0  0  0  0  0  0  0  0  0  0
    0.7266   -1.7618    5.1152 H   0  0  0  0  0  0  0  0  0  0  0  0
    1.4846    1.7508    5.6593 H   0  0  0  0  0  0  0  0  0  0  0  0
    0.1196    1.8729    4.5530 H   0  0  0  0  0  0  0  0  0  0  0  0
    2.2789   -0.0707    4.4085 H   0  0  0  0  0  0  0  0  0  0  0  0
  1  2  1  0
  1 36  1  0
  1 37  1  0
  1 38  1  0
  2 35  1  0
  2  3  1  0
  2 39  1  6
  3  4  1  0
  3 40  1  0
  3 41  1  0
  4 32  1  0
  4  5  1  0
  4 42  1  6
  6  5  1  6
  6 29  1  0
  6  7  1  0
  6 31  1  0
  7  8  1  0
  7 43  1  0
  7 44  1  0
  8 27  1  0
  8  9  1  0
  8 45  1  6
  9 10  1  0
 10 25  1  0
 10 11  1  0
 10 46  1  1
 11 22  1  0
 11 12  1  0
 11 47  1  1
 12 13  1  0
 12 48  1  0
 12 49  1  0
 13 14  1  0
 13 50  1  0
 13 51  1  0
 14 20  1  0
 14 15  1  0
 14 52  1  6
 15 16  1  0
 15 53  1  0
 15 54  1  0
 16 17  2  0
 16 18  1  0
 18 19  1  0
 18 55  1  0
 18 56  1  0
 19 20  1  0
 19 57  1  0
 19 58  1  0
 20 21  1  1
 20 22  1  0
 21 59  1  0
 21 60  1  0
 21 61  1  0
 22 23  1  0
 22 62  1  1
 23 24  1  0
 23 63  1  0
 23 64  1  0
 24 25  1  0
 24 65  1  0
 24 66  1  0
 25 26  1  1
 25 27  1  0
 26 67  1  0
 26 68  1  0
 26 69  1  0
 27 28  1  6
 27 29  1  0
 28 70  1  0
 29 30  1  0
 29 71  1  1
 30 72  1  0
 30 73  1  0
 30 74  1  0
 31 32  1  0
 32 33  1  0
 32 75  1  1
 33 34  1  0
 33 35  1  0
 33 81  1  6
 34 76  1  0
 34 77  1  0
 34 78  1  0
 35 79  1  0
 35 80  1  0
M  CHG  1  33   1
M  END
>  <i_m_ct_stereo_status>  (417) 
1

>  <s_m_source_file>  (417) 
/var/tmp/pbs.5076255.sched01/tmpxe1g82q3/12669a6jj4p.sdf

>  <i_m_source_file_index>  (417) 
39

>  <i_lp_mmshare_version>  (417) 
48012

>  <i_f3d_flags>  (417) 
0

>  <s_epik_input>  (417) 
W0NIM11bQ0BIXShbQ0gyXTEpW0NIMl1OKFtDSDNdKVtDQEhdKE8yKVtDQEBIXTFPW0NAXTIzW0NIMl1bQ0BIXTRbQ0BAXShbT0hdKShbQ0BIXTNbQ0gzXSlbQ0BAXTUoW0NIM10pW0NAQEhdKE80KVtDQEBIXTZbQ0BIXShbQ0gyXVtDSDJdNSlbQ0BdNyhbQ0gzXSlbQ0BIXShbQ0gyXVtDSDJdNilbQ0gyXUMoPU8pW0NIMl1bQ0gyXTc=

>  <s_epik_cmdline>  (417) 
J2VwaWtfcHl0aG9uJywgJy1waHQnLCAnMi4wJywgJy1waCcsICc3LjAnLCAnLXRuJywgJzgnLCAnLW1hJywgJzIwMCcsICctaW1hZScsICc8aW5maWxlLm1hZT4nLCAnLW9tYWUnLCAnPG91dGZpbGUubWFlPic=

>  <r_lp_tautomer_probability>  (417) 
1

>  <r_epik_Ionization_Penalty>  (417) 
1.00894

>  <r_epik_Ionization_Penalty_Charging>  (417) 
1.00894

>  <r_epik_Ionization_Penalty_Neutral>  (417) 
3.52703e-08

>  <r_epik_State_Penalty>  (417) 
1.05819

>  <r_epik_Charging_Adjusted_Penalty>  (417) 
2.06713

>  <i_epik_Tot_Q>  (417) 
1

>  <i_epik_Tot_abs_Q>  (417) 
1

>  <s_epik_Chemistry_Notes>  (417) 
This compound contains an acetal/aminal-like group ( X-CH(R)-Y where X, Y are N, S, or O) that may be acid/base labile, releasing an aldehyde.

>  <s_lp_Force_Field>  (417) 
OPLS3e

>  <r_lp_Energy>  (417) 
44.165

>  <b_lp_Chiralities_Consistent>  (417) 
1

>  <s_lp_Variant>  (417) 
118:0-2

>  <s_i_glide_gridfile>  (417) 
pfpi4k_grid

>  <i_i_glide_lignum>  (417) 
39

>  <i_i_glide_rotatable_bonds>  (417) 
1

>  <r_i_docking_score>  (417) 
-1.61686

>  <r_i_glide_ligand_efficiency>  (417) 
-0.0461961

>  <r_i_glide_ligand_efficiency_sa>  (417) 
-0.151111

>  <r_i_glide_ligand_efficiency_ln>  (417) 
-0.354938

>  <r_i_glide_gscore>  (417) 
-1.61686

>  <r_i_glide_lipo>  (417) 
-0.114975

>  <r_i_glide_hbond>  (417) 
0

>  <r_i_glide_metal>  (417) 
-0

>  <r_i_glide_rewards>  (417) 
-0.0926303

>  <r_i_glide_evdw>  (417) 
-23.0256

>  <r_i_glide_ecoul>  (417) 
-1.34435

>  <r_i_glide_erotb>  (417) 
0

>  <r_i_glide_esite>  (417) 
-0.0563279

>  <r_i_glide_emodel>  (417) 
-26.8281

>  <r_i_glide_energy>  (417) 
-24.3699

>  <r_i_glide_einternal>  (417) 
0.0133933

>  <r_i_glide_intrahb_reward>  (417) 
-0

>  <i_i_glide_confnum>  (417) 
1

>  <i_i_glide_posenum>  (417) 
17

>  <r_i_glide_eff_state_penalty>  (417) 
0

>  <ligand_id>  (417) 
118

>  <original_smiles>  (417) 
CC1CC2OC3(CC4OC5C6CCC7CC(=O)CCC7(C)C6CCC5(C)C4(O)C3C)OC2N(C)C1

>  <smiles>  (417) 
[H]OC12C([H])(OC3([H])C4([H])C([H])([H])C([H])([H])C5([H])C([H])([H])C(=O)C([H])([H])C([H])([H])C5(C([H])([H])[H])C4([H])C([H])([H])C([H])([H])C31C([H])([H])[H])C([H])([H])C1(OC3([H])C([H])([H])C([H])(C([H])([H])[H])C([H])([H])[N+]([H])(C([H])([H])[H])C3([H])O1)C2([H])C([H])([H])[H]

$$$$
118:1:1
     RDKit          3D

 81 87  0  0  1  0  0  0  0  0999 V2000
    0.7728    6.0142    4.4444 C   0  0  0  0  0  0  0  0  0  0  0  0
    0.9985    4.5100    4.2579 C   0  0  2  0  0  0  0  0  0  0  0  0
    2.0780    4.2331    3.2093 C   0  0  0  0  0  0  0  0  0  0  0  0
    2.3279    2.7219    3.0327 C   0  0  1  0  0  0  0  0  0  0  0  0
    2.8979    2.0707    4.1419 O   0  0  0  0  0  0  0  0  0  0  0  0
    2.4745    0.7332    4.0236 C   0  0  1  0  0  0  0  0  0  0  0  0
    3.6482   -0.1849    3.6617 C   0  0  0  0  0  0  0  0  0  0  0  0
    3.3104   -1.5083    4.3586 C   0  0  2  0  0  0  0  0  0  0  0  0
    2.2673   -2.2310    3.7047 O   0  0  0  0  0  0  0  0  0  0  0  0
    1.3476   -2.7820    4.6554 C   0  0  1  0  0  0  0  0  0  0  0  0
    1.1081   -4.3011    4.3909 C   0  0  1  0  0  0  0  0  0  0  0  0
    2.2253   -5.0063    3.5935 C   0  0  0  0  0  0  0  0  0  0  0  0
    1.8666   -6.4661    3.2796 C   0  0  0  0  0  0  0  0  0  0  0  0
    1.5363   -7.2903    4.5455 C   0  0  2  0  0  0  0  0  0  0  0  0
    1.1865   -8.7548    4.1725 C   0  0  0  0  0  0  0  0  0  0  0  0
   -0.2243   -8.9023    3.6107 C   0  0  0  0  0  0  0  0  0  0  0  0
   -0.4577   -9.5999    2.6229 O   0  0  0  0  0  0  0  0  0  0  0  0
   -1.3466   -8.1777    4.3426 C   0  0  0  0  0  0  0  0  0  0  0  0
   -0.9378   -6.7312    4.6881 C   0  0  0  0  0  0  0  0  0  0  0  0
    0.4334   -6.6068    5.4225 C   0  0  1  0  0  0  0  0  0  0  0  0
    0.3038   -7.3338    6.7865 C   0  0  0  0  0  0  0  0  0  0  0  0
    0.7834   -5.0915    5.6838 C   0  0  1  0  0  0  0  0  0  0  0  0
    1.8998   -4.8712    6.7501 C   0  0  0  0  0  0  0  0  0  0  0  0
    2.6792   -3.5415    6.6390 C   0  0  0  0  0  0  0  0  0  0  0  0
    1.8450   -2.3665    6.0648 C   0  0  2  0  0  0  0  0  0  0  0  0
    0.7197   -2.0074    7.0707 C   0  0  0  0  0  0  0  0  0  0  0  0
    2.6981   -1.1218    5.6982 C   0  0  1  0  0  0  0  0  0  0  0  0
    3.7185   -0.8961    6.6650 O   0  0  0  0  0  0  0  0  0  0  0  0
    1.9245    0.2051    5.3789 C   0  0  1  0  0  0  0  0  0  0  0  0
    1.9440    1.2721    6.5043 C   0  0  0  0  0  0  0  0  0  0  0  0
    1.4736    0.6104    3.0392 O   0  0  0  0  0  0  0  0  0  0  0  0
    1.0906    1.8872    2.6684 C   0  0  1  0  0  0  0  0  0  0  0  0
   -0.0250    2.3166    3.7393 N   0  0  2  0  0  0  0  0  0  0  0  0
   -1.2836    1.5722    3.5105 C   0  0  0  0  0  0  0  0  0  0  0  0
   -0.2676    3.7697    3.8407 C   0  0  0  0  0  0  0  0  0  0  0  0
    0.4491    6.4920    3.5158 H   0  0  0  0  0  0  0  0  0  0  0  0
    1.6923    6.5105    4.7623 H   0  0  0  0  0  0  0  0  0  0  0  0
    0.0194    6.2101    5.2114 H   0  0  0  0  0  0  0  0  0  0  0  0
    1.3514    4.1225    5.2190 H   0  0  0  0  0  0  0  0  0  0  0  0
    1.8147    4.6865    2.2492 H   0  0  0  0  0  0  0  0  0  0  0  0
    3.0123    4.6996    3.5142 H   0  0  0  0  0  0  0  0  0  0  0  0
    3.0110    2.5943    2.2005 H   0  0  0  0  0  0  0  0  0  0  0  0
    3.8058   -0.2679    2.5830 H   0  0  0  0  0  0  0  0  0  0  0  0
    4.5593    0.2145    4.1096 H   0  0  0  0  0  0  0  0  0  0  0  0
    4.1826   -2.1574    4.4702 H   0  0  0  0  0  0  0  0  0  0  0  0
    0.4017   -2.2707    4.4789 H   0  0  0  0  0  0  0  0  0  0  0  0
    0.2345   -4.3277    3.7456 H   0  0  0  0  0  0  0  0  0  0  0  0
    2.3890   -4.4846    2.6469 H   0  0  0  0  0  0  0  0  0  0  0  0
    3.1739   -4.9738    4.1283 H   0  0  0  0  0  0  0  0  0  0  0  0
    1.0346   -6.4899    2.5758 H   0  0  0  0  0  0  0  0  0  0  0  0
    2.7049   -6.9275    2.7613 H   0  0  0  0  0  0  0  0  0  0  0  0
    2.4535   -7.3402    5.1303 H   0  0  0  0  0  0  0  0  0  0  0  0
    1.9007   -9.1464    3.4509 H   0  0  0  0  0  0  0  0  0  0  0  0
    1.2639   -9.3982    5.0472 H   0  0  0  0  0  0  0  0  0  0  0  0
   -2.2441   -8.1862    3.7230 H   0  0  0  0  0  0  0  0  0  0  0  0
   -1.5923   -8.7369    5.2417 H   0  0  0  0  0  0  0  0  0  0  0  0
   -0.9028   -6.2040    3.7426 H   0  0  0  0  0  0  0  0  0  0  0  0
   -1.7319   -6.2598    5.2737 H   0  0  0  0  0  0  0  0  0  0  0  0
   -0.4112   -6.8238    7.4359 H   0  0  0  0  0  0  0  0  0  0  0  0
    1.2474   -7.3828    7.3262 H   0  0  0  0  0  0  0  0  0  0  0  0
   -0.0226   -8.3694    6.6849 H   0  0  0  0  0  0  0  0  0  0  0  0
   -0.1291   -4.6443    6.0919 H   0  0  0  0  0  0  0  0  0  0  0  0
    1.4347   -4.9075    7.7300 H   0  0  0  0  0  0  0  0  0  0  0  0
    2.6209   -5.6924    6.7425 H   0  0  0  0  0  0  0  0  0  0  0  0
    3.1049   -3.2835    7.6115 H   0  0  0  0  0  0  0  0  0  0  0  0
    3.5330   -3.7155    5.9930 H   0  0  0  0  0  0  0  0  0  0  0  0
    1.1394   -1.5593    7.9731 H   0  0  0  0  0  0  0  0  0  0  0  0
    0.1617   -2.8813    7.3959 H   0  0  0  0  0  0  0  0  0  0  0  0
   -0.0115   -1.3121    6.6643 H   0  0  0  0  0  0  0  0  0  0  0  0
    4.2981   -0.2294    6.3453 H   0  0  0  0  0  0  0  0  0  0  0  0
    0.8808   -0.0351    5.1867 H   0  0  0  0  0  0  0  0  0  0  0  0
    2.9442    1.6801    6.6742 H   0  0  0  0  0  0  0  0  0  0  0  0
    1.6022    0.8468    7.4472 H   0  0  0  0  0  0  0  0  0  0  0  0
    1.2848    2.1069    6.2742 H   0  0  0  0  0  0  0  0  0  0  0  0
    0.7534    1.9818    1.6300 H   0  0  0  0  0  0  0  0  0  0  0  0
   -1.7165    1.8505    2.5482 H   0  0  0  0  0  0  0  0  0  0  0  0
   -2.0311    1.7690    4.2818 H   0  0  0  0  0  0  0  0  0  0  0  0
   -1.1051    0.5011    3.4913 H   0  0  0  0  0  0  0  0  0  0  0  0
   -1.0455    3.9581    4.5853 H   0  0  0  0  0  0  0  0  0  0  0  0
   -0.6352    4.1438    2.8814 H   0  0  0  0  0  0  0  0  0  0  0  0
    0.3068    2.0417    4.6625 H   0  0  0  0  0  0  0  0  0  0  0  0
  1  2  1  0
  1 36  1  0
  1 37  1  0
  1 38  1  0
  2 35  1  0
  2  3  1  0
  2 39  1  1
  3  4  1  0
  3 40  1  0
  3 41  1  0
  4 32  1  0
  4  5  1  0
  4 42  1  6
  6  5  1  1
  6 29  1  0
  6  7  1  0
  6 31  1  0
  7  8  1  0
  7 43  1  0
  7 44  1  0
  8 27  1  0
  8  9  1  0
  8 45  1  1
  9 10  1  0
 10 25  1  0
 10 11  1  0
 10 46  1  6
 11 22  1  0
 11 12  1  0
 11 47  1  6
 12 13  1  0
 12 48  1  0
 12 49  1  0
 13 14  1  0
 13 50  1  0
 13 51  1  0
 14 20  1  0
 14 15  1  0
 14 52  1  1
 15 16  1  0
 15 53  1  0
 15 54  1  0
 16 17  2  0
 16 18  1  0
 18 19  1  0
 18 55  1  0
 18 56  1  0
 19 20  1  0
 19 57  1  0
 19 58  1  0
 20 21  1  1
 20 22  1  0
 21 59  1  0
 21 60  1  0
 21 61  1  0
 22 23  1  0
 22 62  1  1
 23 24  1  0
 23 63  1  0
 23 64  1  0
 24 25  1  0
 24 65  1  0
 24 66  1  0
 25 26  1  1
 25 27  1  0
 26 67  1  0
 26 68  1  0
 26 69  1  0
 27 28  1  1
 27 29  1  0
 28 70  1  0
 29 30  1  0
 29 71  1  6
 30 72  1  0
 30 73  1  0
 30 74  1  0
 31 32  1  0
 32 33  1  0
 32 75  1  6
 33 34  1  0
 33 35  1  0
 33 81  1  1
 34 76  1  0
 34 77  1  0
 34 78  1  0
 35 79  1  0
 35 80  1  0
M  CHG  1  33   1
M  END
>  <i_m_ct_stereo_status>  (418) 
1

>  <s_m_source_file>  (418) 
/var/tmp/pbs.5076255.sched01/tmpxe1g82q3/12669a6jj4p.sdf

>  <i_m_source_file_index>  (418) 
39

>  <i_lp_mmshare_version>  (418) 
48012

>  <i_f3d_flags>  (418) 
0

>  <s_epik_input>  (418) 
W0NIM11bQ0BIXShbQ0gyXTEpW0NIMl1OKFtDSDNdKVtDQEhdKE8yKVtDQEBIXTFPW0NAXTIzW0NIMl1bQ0BIXTRbQ0BAXShbT0hdKShbQ0BIXTNbQ0gzXSlbQ0BAXTUoW0NIM10pW0NAQEhdKE80KVtDQEBIXTZbQ0BIXShbQ0gyXVtDSDJdNSlbQ0BdNyhbQ0gzXSlbQ0BIXShbQ0gyXVtDSDJdNilbQ0gyXUMoPU8pW0NIMl1bQ0gyXTc=

>  <s_epik_cmdline>  (418) 
J2VwaWtfcHl0aG9uJywgJy1waHQnLCAnMi4wJywgJy1waCcsICc3LjAnLCAnLXRuJywgJzgnLCAnLW1hJywgJzIwMCcsICctaW1hZScsICc8aW5maWxlLm1hZT4nLCAnLW9tYWUnLCAnPG91dGZpbGUubWFlPic=

>  <r_lp_tautomer_probability>  (418) 
1

>  <r_epik_Ionization_Penalty>  (418) 
1.00894

>  <r_epik_Ionization_Penalty_Charging>  (418) 
1.00894

>  <r_epik_Ionization_Penalty_Neutral>  (418) 
3.52703e-08

>  <r_epik_State_Penalty>  (418) 
1.05819

>  <r_epik_Charging_Adjusted_Penalty>  (418) 
2.06713

>  <i_epik_Tot_Q>  (418) 
1

>  <i_epik_Tot_abs_Q>  (418) 
1

>  <s_epik_Chemistry_Notes>  (418) 
This compound contains an acetal/aminal-like group ( X-CH(R)-Y where X, Y are N, S, or O) that may be acid/base labile, releasing an aldehyde.

>  <s_lp_Force_Field>  (418) 
OPLS3e

>  <r_lp_Energy>  (418) 
44.165

>  <b_lp_Chiralities_Consistent>  (418) 
1

>  <s_lp_Variant>  (418) 
118:0-2

>  <s_i_glide_gridfile>  (418) 
pfpi4k_grid

>  <i_i_glide_lignum>  (418) 
39

>  <i_i_glide_rotatable_bonds>  (418) 
1

>  <r_i_docking_score>  (418) 
-1.56406

>  <r_i_glide_ligand_efficiency>  (418) 
-0.0446874

>  <r_i_glide_ligand_efficiency_sa>  (418) 
-0.146176

>  <r_i_glide_ligand_efficiency_ln>  (418) 
-0.343346

>  <r_i_glide_gscore>  (418) 
-1.56406

>  <r_i_glide_lipo>  (418) 
-0.0192114

>  <r_i_glide_hbond>  (418) 
0

>  <r_i_glide_metal>  (418) 
-0

>  <r_i_glide_rewards>  (418) 
-0.077187

>  <r_i_glide_evdw>  (418) 
-23.3069

>  <r_i_glide_ecoul>  (418) 
-1.00759

>  <r_i_glide_erotb>  (418) 
0

>  <r_i_glide_esite>  (418) 
-0.151179

>  <r_i_glide_emodel>  (418) 
-26.6819

>  <r_i_glide_energy>  (418) 
-24.3145

>  <r_i_glide_einternal>  (418) 
0.0130796

>  <r_i_glide_intrahb_reward>  (418) 
-0

>  <i_i_glide_confnum>  (418) 
2

>  <i_i_glide_posenum>  (418) 
18

>  <r_i_glide_eff_state_penalty>  (418) 
0

>  <ligand_id>  (418) 
118

>  <original_smiles>  (418) 
CC1CC2OC3(CC4OC5C6CCC7CC(=O)CCC7(C)C6CCC5(C)C4(O)C3C)OC2N(C)C1

>  <smiles>  (418) 
[H]OC12C([H])(OC3([H])C4([H])C([H])([H])C([H])([H])C5([H])C([H])([H])C(=O)C([H])([H])C([H])([H])C5(C([H])([H])[H])C4([H])C([H])([H])C([H])([H])C31C([H])([H])[H])C([H])([H])C1(OC3([H])C([H])([H])C([H])(C([H])([H])[H])C([H])([H])[N+]([H])(C([H])([H])[H])C3([H])O1)C2([H])C([H])([H])[H]

$$$$
118:1:2
     RDKit          3D

 81 87  0  0  1  0  0  0  0  0999 V2000
    0.7771    6.0234    4.4574 C   0  0  0  0  0  0  0  0  0  0  0  0
    1.0030    4.5152    4.2652 C   0  0  2  0  0  0  0  0  0  0  0  0
    2.0795    4.2477    3.2159 C   0  0  0  0  0  0  0  0  0  0  0  0
    2.3356    2.7332    3.0334 C   0  0  1  0  0  0  0  0  0  0  0  0
    2.9027    2.0849    4.1437 O   0  0  0  0  0  0  0  0  0  0  0  0
    2.4767    0.7416    4.0207 C   0  0  1  0  0  0  0  0  0  0  0  0
    3.6521   -0.1714    3.6538 C   0  0  0  0  0  0  0  0  0  0  0  0
    3.3117   -1.4990    4.3451 C   0  0  2  0  0  0  0  0  0  0  0  0
    2.2733   -2.2244    3.6911 O   0  0  0  0  0  0  0  0  0  0  0  0
    1.3500   -2.7766    4.6381 C   0  0  1  0  0  0  0  0  0  0  0  0
    1.1100   -4.2914    4.3689 C   0  0  1  0  0  0  0  0  0  0  0  0
    2.2284   -4.9964    3.5678 C   0  0  0  0  0  0  0  0  0  0  0  0
    1.8701   -6.4521    3.2499 C   0  0  0  0  0  0  0  0  0  0  0  0
    1.5400   -7.2819    4.5104 C   0  0  2  0  0  0  0  0  0  0  0  0
    1.1899   -8.7439    4.1345 C   0  0  0  0  0  0  0  0  0  0  0  0
   -0.2223   -8.8905    3.5667 C   0  0  0  0  0  0  0  0  0  0  0  0
   -0.4536   -9.5852    2.5817 O   0  0  0  0  0  0  0  0  0  0  0  0
   -1.3437   -8.1661    4.3041 C   0  0  0  0  0  0  0  0  0  0  0  0
   -0.9325   -6.7255    4.6588 C   0  0  0  0  0  0  0  0  0  0  0  0
    0.4344   -6.5982    5.3915 C   0  0  1  0  0  0  0  0  0  0  0  0
    0.3058   -7.3318    6.7513 C   0  0  0  0  0  0  0  0  0  0  0  0
    0.7852   -5.0888    5.6557 C   0  0  1  0  0  0  0  0  0  0  0  0
    1.8968   -4.8715    6.7252 C   0  0  0  0  0  0  0  0  0  0  0  0
    2.6814   -3.5425    6.6192 C   0  0  0  0  0  0  0  0  0  0  0  0
    1.8453   -2.3643    6.0506 C   0  0  2  0  0  0  0  0  0  0  0  0
    0.7222   -2.0088    7.0561 C   0  0  0  0  0  0  0  0  0  0  0  0
    2.7016   -1.1182    5.6861 C   0  0  1  0  0  0  0  0  0  0  0  0
    3.7200   -0.8900    6.6454 O   0  0  0  0  0  0  0  0  0  0  0  0
    1.9300    0.2102    5.3700 C   0  0  1  0  0  0  0  0  0  0  0  0
    1.9476    1.2713    6.5008 C   0  0  0  0  0  0  0  0  0  0  0  0
    1.4754    0.6192    3.0334 O   0  0  0  0  0  0  0  0  0  0  0  0
    1.0914    1.9005    2.6725 C   0  0  1  0  0  0  0  0  0  0  0  0
   -0.0013    2.3182    3.7349 N   0  0  2  0  0  0  0  0  0  0  0  0
   -1.2860    1.5856    3.5054 C   0  0  0  0  0  0  0  0  0  0  0  0
   -0.2686    3.7911    3.8446 C   0  0  0  0  0  0  0  0  0  0  0  0
    0.4535    6.5037    3.5309 H   0  0  0  0  0  0  0  0  0  0  0  0
    1.6963    6.5170    4.7765 H   0  0  0  0  0  0  0  0  0  0  0  0
    0.0219    6.2169    5.2237 H   0  0  0  0  0  0  0  0  0  0  0  0
    1.3563    4.1292    5.2246 H   0  0  0  0  0  0  0  0  0  0  0  0
    1.8150    4.7040    2.2565 H   0  0  0  0  0  0  0  0  0  0  0  0
    3.0152    4.7107    3.5214 H   0  0  0  0  0  0  0  0  0  0  0  0
    3.0147    2.6104    2.2047 H   0  0  0  0  0  0  0  0  0  0  0  0
    3.8132   -0.2525    2.5726 H   0  0  0  0  0  0  0  0  0  0  0  0
    4.5599    0.2227    4.1092 H   0  0  0  0  0  0  0  0  0  0  0  0
    4.1894   -2.1475    4.4533 H   0  0  0  0  0  0  0  0  0  0  0  0
    0.4061   -2.2618    4.4613 H   0  0  0  0  0  0  0  0  0  0  0  0
    0.2395   -4.3148    3.7217 H   0  0  0  0  0  0  0  0  0  0  0  0
    2.3911   -4.4697    2.6237 H   0  0  0  0  0  0  0  0  0  0  0  0
    3.1762   -4.9638    4.1037 H   0  0  0  0  0  0  0  0  0  0  0  0
    1.0378   -6.4741    2.5452 H   0  0  0  0  0  0  0  0  0  0  0  0
    2.7074   -6.9130    2.7291 H   0  0  0  0  0  0  0  0  0  0  0  0
    2.4557   -7.3326    5.0966 H   0  0  0  0  0  0  0  0  0  0  0  0
    1.9040   -9.1330    3.4104 H   0  0  0  0  0  0  0  0  0  0  0  0
    1.2638   -9.3915    5.0065 H   0  0  0  0  0  0  0  0  0  0  0  0
   -2.2403   -8.1726    3.6809 H   0  0  0  0  0  0  0  0  0  0  0  0
   -1.5929   -8.7321    5.1975 H   0  0  0  0  0  0  0  0  0  0  0  0
   -0.9004   -6.1914    3.7191 H   0  0  0  0  0  0  0  0  0  0  0  0
   -1.7320   -6.2587    5.2481 H   0  0  0  0  0  0  0  0  0  0  0  0
   -0.4079   -6.8223    7.4038 H   0  0  0  0  0  0  0  0  0  0  0  0
    1.2490   -7.3854    7.2911 H   0  0  0  0  0  0  0  0  0  0  0  0
   -0.0239   -8.3663    6.6459 H   0  0  0  0  0  0  0  0  0  0  0  0
   -0.1322   -4.6393    6.0691 H   0  0  0  0  0  0  0  0  0  0  0  0
    1.4347   -4.9075    7.7013 H   0  0  0  0  0  0  0  0  0  0  0  0
    2.6232   -5.6974    6.7179 H   0  0  0  0  0  0  0  0  0  0  0  0
    3.0998   -3.2914    7.5988 H   0  0  0  0  0  0  0  0  0  0  0  0
    3.5326   -3.7171    5.9753 H   0  0  0  0  0  0  0  0  0  0  0  0
    1.1408   -1.5623    7.9589 H   0  0  0  0  0  0  0  0  0  0  0  0
    0.1606   -2.8823    7.3768 H   0  0  0  0  0  0  0  0  0  0  0  0
   -0.0065   -1.3100    6.6520 H   0  0  0  0  0  0  0  0  0  0  0  0
    4.2520   -1.6748    6.7100 H   0  0  0  0  0  0  0  0  0  0  0  0
    0.8852   -0.0288    5.1770 H   0  0  0  0  0  0  0  0  0  0  0  0
    2.9503    1.6729    6.6711 H   0  0  0  0  0  0  0  0  0  0  0  0
    1.6030    0.8459    7.4426 H   0  0  0  0  0  0  0  0  0  0  0  0
    1.2935    2.1092    6.2714 H   0  0  0  0  0  0  0  0  0  0  0  0
    0.7561    1.9996    1.6211 H   0  0  0  0  0  0  0  0  0  0  0  0
   -1.7076    1.8655    2.5469 H   0  0  0  0  0  0  0  0  0  0  0  0
   -2.0251    1.7756    4.2725 H   0  0  0  0  0  0  0  0  0  0  0  0
   -1.1005    0.5168    3.4809 H   0  0  0  0  0  0  0  0  0  0  0  0
   -1.0369    3.9670    4.5841 H   0  0  0  0  0  0  0  0  0  0  0  0
   -0.6274    4.1565    2.8850 H   0  0  0  0  0  0  0  0  0  0  0  0
    0.3087    2.0549    4.6596 H   0  0  0  0  0  0  0  0  0  0  0  0
  1  2  1  0
  1 36  1  0
  1 37  1  0
  1 38  1  0
  2 35  1  0
  2  3  1  0
  2 39  1  1
  3  4  1  0
  3 40  1  0
  3 41  1  0
  4 32  1  0
  4  5  1  0
  4 42  1  6
  6  5  1  1
  6 29  1  0
  6  7  1  0
  6 31  1  0
  7  8  1  0
  7 43  1  0
  7 44  1  0
  8 27  1  0
  8  9  1  0
  8 45  1  1
  9 10  1  0
 10 25  1  0
 10 11  1  0
 10 46  1  6
 11 22  1  0
 11 12  1  0
 11 47  1  6
 12 13  1  0
 12 48  1  0
 12 49  1  0
 13 14  1  0
 13 50  1  0
 13 51  1  0
 14 20  1  0
 14 15  1  0
 14 52  1  1
 15 16  1  0
 15 53  1  0
 15 54  1  0
 16 17  2  0
 16 18  1  0
 18 19  1  0
 18 55  1  0
 18 56  1  0
 19 20  1  0
 19 57  1  0
 19 58  1  0
 20 21  1  1
 20 22  1  0
 21 59  1  0
 21 60  1  0
 21 61  1  0
 22 23  1  0
 22 62  1  1
 23 24  1  0
 23 63  1  0
 23 64  1  0
 24 25  1  0
 24 65  1  0
 24 66  1  0
 25 26  1  1
 25 27  1  0
 26 67  1  0
 26 68  1  0
 26 69  1  0
 27 28  1  1
 27 29  1  0
 28 70  1  0
 29 30  1  0
 29 71  1  6
 30 72  1  0
 30 73  1  0
 30 74  1  0
 31 32  1  0
 32 33  1  0
 32 75  1  6
 33 34  1  0
 33 35  1  0
 33 81  1  1
 34 76  1  0
 34 77  1  0
 34 78  1  0
 35 79  1  0
 35 80  1  0
M  CHG  1  33   1
M  END
>  <i_m_ct_stereo_status>  (419) 
1

>  <s_m_source_file>  (419) 
/var/tmp/pbs.5076255.sched01/tmpxe1g82q3/12669a6jj4p.sdf

>  <i_m_source_file_index>  (419) 
39

>  <i_lp_mmshare_version>  (419) 
48012

>  <i_f3d_flags>  (419) 
0

>  <s_epik_input>  (419) 
W0NIM11bQ0BIXShbQ0gyXTEpW0NIMl1OKFtDSDNdKVtDQEhdKE8yKVtDQEBIXTFPW0NAXTIzW0NIMl1bQ0BIXTRbQ0BAXShbT0hdKShbQ0BIXTNbQ0gzXSlbQ0BAXTUoW0NIM10pW0NAQEhdKE80KVtDQEBIXTZbQ0BIXShbQ0gyXVtDSDJdNSlbQ0BdNyhbQ0gzXSlbQ0BIXShbQ0gyXVtDSDJdNilbQ0gyXUMoPU8pW0NIMl1bQ0gyXTc=

>  <s_epik_cmdline>  (419) 
J2VwaWtfcHl0aG9uJywgJy1waHQnLCAnMi4wJywgJy1waCcsICc3LjAnLCAnLXRuJywgJzgnLCAnLW1hJywgJzIwMCcsICctaW1hZScsICc8aW5maWxlLm1hZT4nLCAnLW9tYWUnLCAnPG91dGZpbGUubWFlPic=

>  <r_lp_tautomer_probability>  (419) 
1

>  <r_epik_Ionization_Penalty>  (419) 
1.00894

>  <r_epik_Ionization_Penalty_Charging>  (419) 
1.00894

>  <r_epik_Ionization_Penalty_Neutral>  (419) 
3.52703e-08

>  <r_epik_State_Penalty>  (419) 
1.05819

>  <r_epik_Charging_Adjusted_Penalty>  (419) 
2.06713

>  <i_epik_Tot_Q>  (419) 
1

>  <i_epik_Tot_abs_Q>  (419) 
1

>  <s_epik_Chemistry_Notes>  (419) 
This compound contains an acetal/aminal-like group ( X-CH(R)-Y where X, Y are N, S, or O) that may be acid/base labile, releasing an aldehyde.

>  <s_lp_Force_Field>  (419) 
OPLS3e

>  <r_lp_Energy>  (419) 
44.165

>  <b_lp_Chiralities_Consistent>  (419) 
1

>  <s_lp_Variant>  (419) 
118:0-2

>  <s_i_glide_gridfile>  (419) 
pfpi4k_grid

>  <i_i_glide_lignum>  (419) 
39

>  <i_i_glide_rotatable_bonds>  (419) 
1

>  <r_i_docking_score>  (419) 
-1.55214

>  <r_i_glide_ligand_efficiency>  (419) 
-0.0443468

>  <r_i_glide_ligand_efficiency_sa>  (419) 
-0.145061

>  <r_i_glide_ligand_efficiency_ln>  (419) 
-0.340729

>  <r_i_glide_gscore>  (419) 
-1.55214

>  <r_i_glide_lipo>  (419) 
-0.0187805

>  <r_i_glide_hbond>  (419) 
0

>  <r_i_glide_metal>  (419) 
-0

>  <r_i_glide_rewards>  (419) 
-0.077187

>  <r_i_glide_evdw>  (419) 
-23.3269

>  <r_i_glide_ecoul>  (419) 
-0.927754

>  <r_i_glide_erotb>  (419) 
0

>  <r_i_glide_esite>  (419) 
-0.150664

>  <r_i_glide_emodel>  (419) 
-26.5666

>  <r_i_glide_energy>  (419) 
-24.2546

>  <r_i_glide_einternal>  (419) 
0.0177117

>  <r_i_glide_intrahb_reward>  (419) 
-0

>  <i_i_glide_confnum>  (419) 
1

>  <i_i_glide_posenum>  (419) 
33

>  <r_i_glide_eff_state_penalty>  (419) 
0

>  <ligand_id>  (419) 
118

>  <original_smiles>  (419) 
CC1CC2OC3(CC4OC5C6CCC7CC(=O)CCC7(C)C6CCC5(C)C4(O)C3C)OC2N(C)C1

>  <smiles>  (419) 
[H]OC12C([H])(OC3([H])C4([H])C([H])([H])C([H])([H])C5([H])C([H])([H])C(=O)C([H])([H])C([H])([H])C5(C([H])([H])[H])C4([H])C([H])([H])C([H])([H])C31C([H])([H])[H])C([H])([H])C1(OC3([H])C([H])([H])C([H])(C([H])([H])[H])C([H])([H])[N+]([H])(C([H])([H])[H])C3([H])O1)C2([H])C([H])([H])[H]

$$$$
119:0:0
     RDKit          3D

 72 76  0  0  1  0  0  0  0  0999 V2000
   -0.6245    4.4856    9.0715 C   0  0  0  0  0  0  0  0  0  0  0  0
   -0.1781    3.3578    8.4703 C   0  0  0  0  0  0  0  0  0  0  0  0
   -0.9566    2.1033    8.8313 C   0  0  0  0  0  0  0  0  0  0  0  0
   -0.2144    1.2332    9.8270 C   0  0  0  0  0  0  0  0  0  0  0  0
    0.7764    0.3615    9.0887 C   0  0  0  0  0  0  0  0  0  0  0  0
    2.1266    0.9982    8.6889 C   0  0  1  0  0  0  0  0  0  0  0  0
    2.9277   -0.0878    7.8972 C   0  0  1  0  0  0  0  0  0  0  0  0
    2.5740   -0.1378    6.4002 C   0  0  1  0  0  0  0  0  0  0  0  0
    1.2599   -0.5579    6.0908 O   0  0  0  0  0  0  0  0  0  0  0  0
    3.0697    1.1299    5.6414 C   0  0  2  0  0  0  0  0  0  0  0  0
    3.8652    0.5711    4.4188 C   0  0  0  0  0  0  0  0  0  0  0  0
    4.1383    1.8592    6.5164 C   0  0  1  0  0  0  0  0  0  0  0  0
    3.6280    2.8133    7.6016 C   0  0  0  0  0  0  0  0  0  0  0  0
    2.2231    2.5124    8.1977 C   0  0  1  0  0  0  0  0  0  0  0  0
    1.0333    3.2726    7.4573 C   0  0  2  0  0  0  0  0  0  0  0  0
    1.4579    4.7615    7.1465 C   0  0  0  0  0  0  0  0  0  0  0  0
    2.0854    5.4775    8.2002 O   0  0  0  0  0  0  0  0  0  0  0  0
    0.6877    2.5359    6.0673 C   0  0  2  0  0  0  0  0  0  0  0  0
    1.9039    2.0778    5.1220 C   0  0  1  0  0  0  0  0  0  0  0  0
    2.4106    3.2085    4.1808 C   0  0  0  0  0  0  0  0  0  0  0  0
    1.2958    3.8572    3.3611 C   0  0  0  0  0  0  0  0  0  0  0  0
    0.0758    4.2617    4.1884 C   0  0  1  0  0  0  0  0  0  0  0  0
   -0.9181    4.7058    3.2814 O   0  0  0  0  0  0  0  0  0  0  0  0
   -0.4705    3.1369    5.1326 C   0  0  0  0  0  0  0  0  0  0  0  0
   -1.0971    1.9927    4.2811 C   0  0  0  0  0  0  0  0  0  0  0  0
   -1.6804    3.7248    5.8999 C   0  0  0  0  0  0  0  0  0  0  0  0
    5.0460    0.9366    7.1238 O   0  0  0  0  0  0  0  0  0  0  0  0
    4.4921   -0.0275    8.0256 C   0  0  0  0  0  0  0  0  0  0  0  0
    5.0102    0.2821    9.4492 C   0  0  0  0  0  0  0  0  0  0  0  0
    5.1578   -1.3651    7.6149 C   0  0  0  0  0  0  0  0  0  0  0  0
   -0.2118    5.4701    8.9347 H   0  0  0  0  0  0  0  0  0  0  0  0
   -1.4529    4.4440    9.7654 H   0  0  0  0  0  0  0  0  0  0  0  0
   -1.8975    2.3886    9.3075 H   0  0  0  0  0  0  0  0  0  0  0  0
   -1.2624    1.5381    7.9559 H   0  0  0  0  0  0  0  0  0  0  0  0
    0.2492    1.8120   10.6283 H   0  0  0  0  0  0  0  0  0  0  0  0
   -0.9417    0.5792   10.3154 H   0  0  0  0  0  0  0  0  0  0  0  0
    0.9947   -0.4835    9.7429 H   0  0  0  0  0  0  0  0  0  0  0  0
    0.2677   -0.0818    8.2392 H   0  0  0  0  0  0  0  0  0  0  0  0
    2.5975    1.0484    9.6659 H   0  0  0  0  0  0  0  0  0  0  0  0
    2.6513   -1.0530    8.3242 H   0  0  0  0  0  0  0  0  0  0  0  0
    3.1035   -1.0025    6.0158 H   0  0  0  0  0  0  0  0  0  0  0  0
    1.2003   -0.6837    5.1545 H   0  0  0  0  0  0  0  0  0  0  0  0
    4.4486    1.3335    3.9057 H   0  0  0  0  0  0  0  0  0  0  0  0
    3.2153    0.0850    3.6882 H   0  0  0  0  0  0  0  0  0  0  0  0
    4.6120   -0.1621    4.7289 H   0  0  0  0  0  0  0  0  0  0  0  0
    4.7613    2.4622    5.8556 H   0  0  0  0  0  0  0  0  0  0  0  0
    4.3594    2.8504    8.4054 H   0  0  0  0  0  0  0  0  0  0  0  0
    3.7211    3.8089    7.1897 H   0  0  0  0  0  0  0  0  0  0  0  0
    2.2501    3.0509    9.1496 H   0  0  0  0  0  0  0  0  0  0  0  0
    2.1085    4.8384    6.2872 H   0  0  0  0  0  0  0  0  0  0  0  0
    0.5889    5.3518    6.8707 H   0  0  0  0  0  0  0  0  0  0  0  0
    2.8497    5.0036    8.4912 H   0  0  0  0  0  0  0  0  0  0  0  0
    0.2544    1.6115    6.4237 H   0  0  0  0  0  0  0  0  0  0  0  0
    1.4308    1.4011    4.4150 H   0  0  0  0  0  0  0  0  0  0  0  0
    3.0047    3.9476    4.7096 H   0  0  0  0  0  0  0  0  0  0  0  0
    3.0940    2.8204    3.4341 H   0  0  0  0  0  0  0  0  0  0  0  0
    1.6933    4.7356    2.8530 H   0  0  0  0  0  0  0  0  0  0  0  0
    1.0035    3.1667    2.5741 H   0  0  0  0  0  0  0  0  0  0  0  0
    0.3395    5.1462    4.7590 H   0  0  0  0  0  0  0  0  0  0  0  0
   -0.5895    4.5588    2.3898 H   0  0  0  0  0  0  0  0  0  0  0  0
   -2.0182    2.3109    3.7916 H   0  0  0  0  0  0  0  0  0  0  0  0
   -1.3481    1.1283    4.8939 H   0  0  0  0  0  0  0  0  0  0  0  0
   -0.4425    1.6540    3.4779 H   0  0  0  0  0  0  0  0  0  0  0  0
   -2.4702    4.0432    5.2211 H   0  0  0  0  0  0  0  0  0  0  0  0
   -1.3895    4.6086    6.4615 H   0  0  0  0  0  0  0  0  0  0  0  0
   -2.1416    3.0075    6.5734 H   0  0  0  0  0  0  0  0  0  0  0  0
    4.6046   -0.4235   10.1739 H   0  0  0  0  0  0  0  0  0  0  0  0
    4.7590    1.2857    9.7886 H   0  0  0  0  0  0  0  0  0  0  0  0
    6.0977    0.2134    9.4910 H   0  0  0  0  0  0  0  0  0  0  0  0
    4.7393   -2.2027    8.1725 H   0  0  0  0  0  0  0  0  0  0  0  0
    6.2312   -1.3448    7.8062 H   0  0  0  0  0  0  0  0  0  0  0  0
    5.0551   -1.5840    6.5528 H   0  0  0  0  0  0  0  0  0  0  0  0
  1  2  2  0
  1 31  1  0
  1 32  1  0
  2 15  1  0
  2  3  1  0
  3  4  1  0
  3 33  1  0
  3 34  1  0
  4  5  1  0
  4 35  1  0
  4 36  1  0
  5  6  1  0
  5 37  1  0
  5 38  1  0
  6 14  1  0
  6  7  1  0
  6 39  1  1
  7 28  1  0
  7  8  1  0
  7 40  1  1
  8  9  1  0
  8 10  1  0
  8 41  1  6
  9 42  1  0
 10 19  1  0
 10 11  1  6
 10 12  1  0
 11 43  1  0
 11 44  1  0
 11 45  1  0
 12 13  1  0
 12 27  1  0
 12 46  1  6
 13 14  1  0
 13 47  1  0
 13 48  1  0
 14 15  1  0
 14 49  1  1
 15 16  1  6
 15 18  1  0
 16 17  1  0
 16 50  1  0
 16 51  1  0
 17 52  1  0
 18 24  1  0
 18 19  1  0
 18 53  1  1
 19 20  1  0
 19 54  1  6
 20 21  1  0
 20 55  1  0
 20 56  1  0
 21 22  1  0
 21 57  1  0
 21 58  1  0
 22 23  1  0
 22 24  1  0
 22 59  1  1
 23 60  1  0
 24 25  1  0
 24 26  1  0
 25 61  1  0
 25 62  1  0
 25 63  1  0
 26 64  1  0
 26 65  1  0
 26 66  1  0
 27 28  1  0
 28 29  1  0
 28 30  1  0
 29 67  1  0
 29 68  1  0
 29 69  1  0
 30 70  1  0
 30 71  1  0
 30 72  1  0
M  END
>  <i_m_ct_stereo_status>  (420) 
1

>  <s_m_source_file>  (420) 
/var/tmp/pbs.5076255.sched01/tmpxe1g82q3/12669a6jj4p.sdf

>  <i_m_source_file_index>  (420) 
40

>  <i_lp_mmshare_version>  (420) 
48012

>  <i_f3d_flags>  (420) 
0

>  <s_epik_input>  (420) 
W0NIM11DMShbQ0gzXSlbQ0BIXShbT0hdKVtDSDJdW0NIMl1bQ0BASF0yW0NASF0xW0NAQF0zKFtDSDJdW09IXSlDKD1bQ0gyXSlbQ0gyXVtDSDJdW0NIMl1bQ0BASF0oW0NAQEhdKFtDQEhdNFtPSF0pQyhPNSkoW0NIM10pW0NIM10pW0NASF0zW0NIMl1bQ0BASF01W0NAXTI0W0NIM10=

>  <s_epik_cmdline>  (420) 
J2VwaWtfcHl0aG9uJywgJy1waHQnLCAnMi4wJywgJy1waCcsICc3LjAnLCAnLXRuJywgJzgnLCAnLW1hJywgJzIwMCcsICctaW1hZScsICc8aW5maWxlLm1hZT4nLCAnLW9tYWUnLCAnPG91dGZpbGUubWFlPic=

>  <r_lp_tautomer_probability>  (420) 
1

>  <r_epik_Ionization_Penalty>  (420) 
2.66652e-06

>  <r_epik_Ionization_Penalty_Charging>  (420) 
0

>  <r_epik_Ionization_Penalty_Neutral>  (420) 
2.66652e-06

>  <r_epik_State_Penalty>  (420) 
-0

>  <r_epik_Charging_Adjusted_Penalty>  (420) 
0

>  <i_epik_Tot_Q>  (420) 
0

>  <i_epik_Tot_abs_Q>  (420) 
0

>  <s_lp_Force_Field>  (420) 
OPLS3e

>  <r_lp_Energy>  (420) 
110.727

>  <b_lp_Chiralities_Consistent>  (420) 
1

>  <s_lp_Variant>  (420) 
119:0-1

>  <s_i_glide_gridfile>  (420) 
pfpi4k_grid

>  <i_i_glide_lignum>  (420) 
40

>  <i_i_glide_rotatable_bonds>  (420) 
4

>  <r_i_docking_score>  (420) 
-2.2742

>  <r_i_glide_ligand_efficiency>  (420) 
-0.0758066

>  <r_i_glide_ligand_efficiency_sa>  (420) 
-0.235549

>  <r_i_glide_ligand_efficiency_ln>  (420) 
-0.516722

>  <r_i_glide_gscore>  (420) 
-2.2742

>  <r_i_glide_lipo>  (420) 
-0.00641751

>  <r_i_glide_hbond>  (420) 
-0.209594

>  <r_i_glide_metal>  (420) 
-0

>  <r_i_glide_rewards>  (420) 
-0.554937

>  <r_i_glide_evdw>  (420) 
-12.5945

>  <r_i_glide_ecoul>  (420) 
-6.57586

>  <r_i_glide_erotb>  (420) 
0.112854

>  <r_i_glide_esite>  (420) 
0

>  <r_i_glide_emodel>  (420) 
-21.6276

>  <r_i_glide_energy>  (420) 
-19.1703

>  <r_i_glide_einternal>  (420) 
1.74376

>  <r_i_glide_intrahb_reward>  (420) 
-0

>  <i_i_glide_confnum>  (420) 
1

>  <i_i_glide_posenum>  (420) 
6

>  <r_i_glide_eff_state_penalty>  (420) 
0

>  <ligand_id>  (420) 
119

>  <original_smiles>  (420) 
C=C1CCCC2C3C(O)C4(C)C(CC2C1(CO)C1C4CCC(O)C1(C)C)OC3(C)C

>  <smiles>  (420) 
[H]OC([H])([H])C12C(=C([H])[H])C([H])([H])C([H])([H])C([H])([H])C3([H])C4([H])C([H])(O[H])C(C([H])([H])[H])(C([H])(OC4(C([H])([H])[H])C([H])([H])[H])C([H])([H])C31[H])C1([H])C([H])([H])C([H])([H])C([H])(O[H])C(C([H])([H])[H])(C([H])([H])[H])C12[H]

$$$$
119:0:1
     RDKit          3D

 72 76  0  0  1  0  0  0  0  0999 V2000
    3.8404   -1.3706    3.9965 C   0  0  0  0  0  0  0  0  0  0  0  0
    2.8469   -0.4480    4.0041 C   0  0  0  0  0  0  0  0  0  0  0  0
    2.0560   -0.3882    2.7024 C   0  0  0  0  0  0  0  0  0  0  0  0
    2.4655    0.7826    1.8274 C   0  0  0  0  0  0  0  0  0  0  0  0
    1.7618    2.0327    2.3018 C   0  0  0  0  0  0  0  0  0  0  0  0
    2.3471    2.7646    3.5345 C   0  0  1  0  0  0  0  0  0  0  0  0
    1.3953    3.9781    3.8410 C   0  0  1  0  0  0  0  0  0  0  0  0
    0.1812    3.5944    4.7158 C   0  0  1  0  0  0  0  0  0  0  0  0
   -0.7484    2.7138    4.1168 O   0  0  0  0  0  0  0  0  0  0  0  0
    0.6097    3.2512    6.1784 C   0  0  2  0  0  0  0  0  0  0  0  0
   -0.3143    4.1307    7.0801 C   0  0  0  0  0  0  0  0  0  0  0  0
    2.0593    3.7954    6.4237 C   0  0  1  0  0  0  0  0  0  0  0  0
    3.2468    2.9461    5.9494 C   0  0  0  0  0  0  0  0  0  0  0  0
    2.9762    1.9708    4.7728 C   0  0  1  0  0  0  0  0  0  0  0  0
    2.5115    0.5089    5.2212 C   0  0  2  0  0  0  0  0  0  0  0  0
    3.4256   -0.0295    6.4019 C   0  0  0  0  0  0  0  0  0  0  0  0
    3.2095    0.3828    7.7070 O   0  0  0  0  0  0  0  0  0  0  0  0
    0.9557    0.5231    5.6316 C   0  0  2  0  0  0  0  0  0  0  0  0
    0.4122    1.7237    6.5659 C   0  0  1  0  0  0  0  0  0  0  0  0
    0.5858    1.4775    8.0949 C   0  0  0  0  0  0  0  0  0  0  0  0
    0.1041    0.0872    8.5294 C   0  0  0  0  0  0  0  0  0  0  0  0
    0.5281   -1.0867    7.6243 C   0  0  1  0  0  0  0  0  0  0  0  0
   -0.0990   -2.2624    8.1209 O   0  0  0  0  0  0  0  0  0  0  0  0
    0.2742   -0.8561    6.0972 C   0  0  0  0  0  0  0  0  0  0  0  0
   -1.2565   -0.8018    5.8003 C   0  0  0  0  0  0  0  0  0  0  0  0
    0.7618   -2.1287    5.3515 C   0  0  0  0  0  0  0  0  0  0  0  0
    2.2189    5.1090    5.8832 O   0  0  0  0  0  0  0  0  0  0  0  0
    2.0661    5.2540    4.4694 C   0  0  0  0  0  0  0  0  0  0  0  0
    3.4383    5.6172    3.8603 C   0  0  0  0  0  0  0  0  0  0  0  0
    1.1728    6.5047    4.3155 C   0  0  0  0  0  0  0  0  0  0  0  0
    4.5166   -1.5623    4.8108 H   0  0  0  0  0  0  0  0  0  0  0  0
    4.0112   -1.9948    3.1336 H   0  0  0  0  0  0  0  0  0  0  0  0
    2.2465   -1.2860    2.1085 H   0  0  0  0  0  0  0  0  0  0  0  0
    0.9775   -0.4084    2.8535 H   0  0  0  0  0  0  0  0  0  0  0  0
    3.5471    0.9119    1.7630 H   0  0  0  0  0  0  0  0  0  0  0  0
    2.1192    0.5665    0.8161 H   0  0  0  0  0  0  0  0  0  0  0  0
    1.7795    2.7370    1.4693 H   0  0  0  0  0  0  0  0  0  0  0  0
    0.7091    1.7931    2.4266 H   0  0  0  0  0  0  0  0  0  0  0  0
    3.2274    3.2104    3.0719 H   0  0  0  0  0  0  0  0  0  0  0  0
    1.0093    4.3194    2.8787 H   0  0  0  0  0  0  0  0  0  0  0  0
   -0.4405    4.4863    4.7351 H   0  0  0  0  0  0  0  0  0  0  0  0
   -0.8392    2.9546    3.2048 H   0  0  0  0  0  0  0  0  0  0  0  0
    0.0029    4.1559    8.1208 H   0  0  0  0  0  0  0  0  0  0  0  0
   -1.3545    3.8013    7.0478 H   0  0  0  0  0  0  0  0  0  0  0  0
   -0.2936    5.1776    6.7823 H   0  0  0  0  0  0  0  0  0  0  0  0
    2.1903    3.9282    7.4953 H   0  0  0  0  0  0  0  0  0  0  0  0
    4.0756    3.6048    5.6942 H   0  0  0  0  0  0  0  0  0  0  0  0
    3.6693    2.4685    6.8186 H   0  0  0  0  0  0  0  0  0  0  0  0
    3.9850    1.7627    4.4150 H   0  0  0  0  0  0  0  0  0  0  0  0
    3.3438   -1.1134    6.4796 H   0  0  0  0  0  0  0  0  0  0  0  0
    4.4730    0.1860    6.1461 H   0  0  0  0  0  0  0  0  0  0  0  0
    3.0815    1.3361    7.7097 H   0  0  0  0  0  0  0  0  0  0  0  0
    0.4847    0.7009    4.6709 H   0  0  0  0  0  0  0  0  0  0  0  0
   -0.6662    1.6526    6.4389 H   0  0  0  0  0  0  0  0  0  0  0  0
    1.5953    1.6767    8.4277 H   0  0  0  0  0  0  0  0  0  0  0  0
   -0.0780    2.1464    8.6614 H   0  0  0  0  0  0  0  0  0  0  0  0
    0.4390   -0.1157    9.5457 H   0  0  0  0  0  0  0  0  0  0  0  0
   -0.9825    0.1346    8.5969 H   0  0  0  0  0  0  0  0  0  0  0  0
    1.5706   -1.3306    7.7973 H   0  0  0  0  0  0  0  0  0  0  0  0
    0.3286   -3.0164    7.7592 H   0  0  0  0  0  0  0  0  0  0  0  0
   -1.7330   -1.7781    5.9146 H   0  0  0  0  0  0  0  0  0  0  0  0
   -1.4580   -0.4720    4.7787 H   0  0  0  0  0  0  0  0  0  0  0  0
   -1.7945   -0.1238    6.4568 H   0  0  0  0  0  0  0  0  0  0  0  0
    0.2030   -3.0174    5.6494 H   0  0  0  0  0  0  0  0  0  0  0  0
    1.7988   -2.3600    5.5698 H   0  0  0  0  0  0  0  0  0  0  0  0
    0.6409   -2.0611    4.2732 H   0  0  0  0  0  0  0  0  0  0  0  0
    3.3743    5.7195    2.7758 H   0  0  0  0  0  0  0  0  0  0  0  0
    4.2038    4.8821    4.0752 H   0  0  0  0  0  0  0  0  0  0  0  0
    3.8115    6.5593    4.2624 H   0  0  0  0  0  0  0  0  0  0  0  0
    0.8965    6.6507    3.2753 H   0  0  0  0  0  0  0  0  0  0  0  0
    1.6827    7.4080    4.6495 H   0  0  0  0  0  0  0  0  0  0  0  0
    0.2568    6.4575    4.8988 H   0  0  0  0  0  0  0  0  0  0  0  0
  1  2  2  0
  1 31  1  0
  1 32  1  0
  2 15  1  0
  2  3  1  0
  3  4  1  0
  3 33  1  0
  3 34  1  0
  4  5  1  0
  4 35  1  0
  4 36  1  0
  5  6  1  0
  5 37  1  0
  5 38  1  0
  6 14  1  0
  6  7  1  0
  6 39  1  6
  7 28  1  0
  7  8  1  0
  7 40  1  6
  8  9  1  0
  8 10  1  0
  8 41  1  1
  9 42  1  0
 10 19  1  0
 10 11  1  1
 10 12  1  0
 11 43  1  0
 11 44  1  0
 11 45  1  0
 12 13  1  0
 12 27  1  0
 12 46  1  1
 13 14  1  0
 13 47  1  0
 13 48  1  0
 14 15  1  0
 14 49  1  6
 15 16  1  1
 15 18  1  0
 16 17  1  0
 16 50  1  0
 16 51  1  0
 17 52  1  0
 18 24  1  0
 18 19  1  0
 18 53  1  6
 19 20  1  0
 19 54  1  1
 20 21  1  0
 20 55  1  0
 20 56  1  0
 21 22  1  0
 21 57  1  0
 21 58  1  0
 22 23  1  0
 22 24  1  0
 22 59  1  6
 23 60  1  0
 24 25  1  0
 24 26  1  0
 25 61  1  0
 25 62  1  0
 25 63  1  0
 26 64  1  0
 26 65  1  0
 26 66  1  0
 27 28  1  0
 28 29  1  0
 28 30  1  0
 29 67  1  0
 29 68  1  0
 29 69  1  0
 30 70  1  0
 30 71  1  0
 30 72  1  0
M  END
>  <i_m_ct_stereo_status>  (421) 
1

>  <s_m_source_file>  (421) 
/var/tmp/pbs.5076255.sched01/tmpxe1g82q3/12669a6jj4p.sdf

>  <i_m_source_file_index>  (421) 
40

>  <i_lp_mmshare_version>  (421) 
48012

>  <i_f3d_flags>  (421) 
0

>  <s_epik_input>  (421) 
W0NIM11DMShbQ0gzXSlbQ0BIXShbT0hdKVtDSDJdW0NIMl1bQ0BASF0yW0NASF0xW0NAQF0zKFtDSDJdW09IXSlDKD1bQ0gyXSlbQ0gyXVtDSDJdW0NIMl1bQ0BASF0oW0NAQEhdKFtDQEhdNFtPSF0pQyhPNSkoW0NIM10pW0NIM10pW0NASF0zW0NIMl1bQ0BASF01W0NAXTI0W0NIM10=

>  <s_epik_cmdline>  (421) 
J2VwaWtfcHl0aG9uJywgJy1waHQnLCAnMi4wJywgJy1waCcsICc3LjAnLCAnLXRuJywgJzgnLCAnLW1hJywgJzIwMCcsICctaW1hZScsICc8aW5maWxlLm1hZT4nLCAnLW9tYWUnLCAnPG91dGZpbGUubWFlPic=

>  <r_lp_tautomer_probability>  (421) 
1

>  <r_epik_Ionization_Penalty>  (421) 
2.66652e-06

>  <r_epik_Ionization_Penalty_Charging>  (421) 
0

>  <r_epik_Ionization_Penalty_Neutral>  (421) 
2.66652e-06

>  <r_epik_State_Penalty>  (421) 
-0

>  <r_epik_Charging_Adjusted_Penalty>  (421) 
0

>  <i_epik_Tot_Q>  (421) 
0

>  <i_epik_Tot_abs_Q>  (421) 
0

>  <s_lp_Force_Field>  (421) 
OPLS3e

>  <r_lp_Energy>  (421) 
110.727

>  <b_lp_Chiralities_Consistent>  (421) 
1

>  <s_lp_Variant>  (421) 
119:0-1

>  <s_i_glide_gridfile>  (421) 
pfpi4k_grid

>  <i_i_glide_lignum>  (421) 
40

>  <i_i_glide_rotatable_bonds>  (421) 
4

>  <r_i_docking_score>  (421) 
-2.0793

>  <r_i_glide_ligand_efficiency>  (421) 
-0.06931

>  <r_i_glide_ligand_efficiency_sa>  (421) 
-0.215362

>  <r_i_glide_ligand_efficiency_ln>  (421) 
-0.472439

>  <r_i_glide_gscore>  (421) 
-2.0793

>  <r_i_glide_lipo>  (421) 
-0.0374653

>  <r_i_glide_hbond>  (421) 
-0.124903

>  <r_i_glide_metal>  (421) 
-0

>  <r_i_glide_rewards>  (421) 
-0.554937

>  <r_i_glide_evdw>  (421) 
-16.4858

>  <r_i_glide_ecoul>  (421) 
-4.33707

>  <r_i_glide_erotb>  (421) 
0.112854

>  <r_i_glide_esite>  (421) 
0

>  <r_i_glide_emodel>  (421) 
-19.3449

>  <r_i_glide_energy>  (421) 
-20.8228

>  <r_i_glide_einternal>  (421) 
8.12196

>  <r_i_glide_intrahb_reward>  (421) 
-0

>  <i_i_glide_confnum>  (421) 
2

>  <i_i_glide_posenum>  (421) 
37

>  <r_i_glide_eff_state_penalty>  (421) 
0

>  <ligand_id>  (421) 
119

>  <original_smiles>  (421) 
C=C1CCCC2C3C(O)C4(C)C(CC2C1(CO)C1C4CCC(O)C1(C)C)OC3(C)C

>  <smiles>  (421) 
[H]OC([H])([H])C12C(=C([H])[H])C([H])([H])C([H])([H])C([H])([H])C3([H])C4([H])C([H])(O[H])C(C([H])([H])[H])(C([H])(OC4(C([H])([H])[H])C([H])([H])[H])C([H])([H])C31[H])C1([H])C([H])([H])C([H])([H])C([H])(O[H])C(C([H])([H])[H])(C([H])([H])[H])C12[H]

$$$$
119:0:2
     RDKit          3D

 72 76  0  0  1  0  0  0  0  0999 V2000
    4.8697   -1.2123    3.8728 C   0  0  0  0  0  0  0  0  0  0  0  0
    3.6639   -0.5927    3.9132 C   0  0  0  0  0  0  0  0  0  0  0  0
    2.7660   -0.8956    2.7255 C   0  0  0  0  0  0  0  0  0  0  0  0
    2.7230    0.2424    1.7269 C   0  0  0  0  0  0  0  0  0  0  0  0
    1.7180    1.2752    2.1783 C   0  0  0  0  0  0  0  0  0  0  0  0
    2.1678    2.2767    3.2664 C   0  0  1  0  0  0  0  0  0  0  0  0
    0.9336    3.1827    3.5926 C   0  0  1  0  0  0  0  0  0  0  0  0
   -0.0149    2.5695    4.6424 C   0  0  1  0  0  0  0  0  0  0  0  0
   -0.6991    1.3980    4.2525 O   0  0  0  0  0  0  0  0  0  0  0  0
    0.6369    2.5282    6.0578 C   0  0  2  0  0  0  0  0  0  0  0  0
   -0.4211    3.1890    6.9955 C   0  0  0  0  0  0  0  0  0  0  0  0
    1.8632    3.4956    6.0859 C   0  0  1  0  0  0  0  0  0  0  0  0
    3.1952    2.9593    5.5508 C   0  0  0  0  0  0  0  0  0  0  0  0
    3.1236    1.8463    4.4678 C   0  0  1  0  0  0  0  0  0  0  0  0
    3.1648    0.3693    5.0621 C   0  0  2  0  0  0  0  0  0  0  0  0
    4.2418    0.2772    6.2130 C   0  0  0  0  0  0  0  0  0  0  0  0
    5.5010    0.8781    5.9423 O   0  0  0  0  0  0  0  0  0  0  0  0
    1.7297   -0.0263    5.6701 C   0  0  2  0  0  0  0  0  0  0  0  0
    0.9598    1.0584    6.5776 C   0  0  1  0  0  0  0  0  0  0  0  0
    1.3936    1.0249    8.0704 C   0  0  0  0  0  0  0  0  0  0  0  0
    1.3080   -0.3676    8.6933 C   0  0  0  0  0  0  0  0  0  0  0  0
    1.9679   -1.4584    7.8481 C   0  0  1  0  0  0  0  0  0  0  0  0
    1.6600   -2.6892    8.4764 O   0  0  0  0  0  0  0  0  0  0  0  0
    1.5379   -1.4715    6.3442 C   0  0  0  0  0  0  0  0  0  0  0  0
    0.0456   -1.8930    6.2295 C   0  0  0  0  0  0  0  0  0  0  0  0
    2.3084   -2.6255    5.6529 C   0  0  0  0  0  0  0  0  0  0  0  0
    1.5757    4.7264    5.4162 O   0  0  0  0  0  0  0  0  0  0  0  0
    1.2489    4.6592    4.0243 C   0  0  0  0  0  0  0  0  0  0  0  0
    2.3830    5.3353    3.2181 C   0  0  0  0  0  0  0  0  0  0  0  0
    0.0147    5.5805    3.8782 C   0  0  0  0  0  0  0  0  0  0  0  0
    5.6359   -1.1263    4.6261 H   0  0  0  0  0  0  0  0  0  0  0  0
    5.1339   -1.8425    3.0360 H   0  0  0  0  0  0  0  0  0  0  0  0
    3.1504   -1.7686    2.1947 H   0  0  0  0  0  0  0  0  0  0  0  0
    1.7650   -1.1941    3.0286 H   0  0  0  0  0  0  0  0  0  0  0  0
    3.7091    0.6750    1.5373 H   0  0  0  0  0  0  0  0  0  0  0  0
    2.3769   -0.1627    0.7764 H   0  0  0  0  0  0  0  0  0  0  0  0
    1.4389    1.8516    1.2942 H   0  0  0  0  0  0  0  0  0  0  0  0
    0.8045    0.7545    2.4480 H   0  0  0  0  0  0  0  0  0  0  0  0
    2.8282    2.9010    2.6683 H   0  0  0  0  0  0  0  0  0  0  0  0
    0.3578    3.2725    2.6725 H   0  0  0  0  0  0  0  0  0  0  0  0
   -0.8711    3.2351    4.6728 H   0  0  0  0  0  0  0  0  0  0  0  0
   -0.0573    0.7867    3.9220 H   0  0  0  0  0  0  0  0  0  0  0  0
   -0.0364    3.4177    7.9881 H   0  0  0  0  0  0  0  0  0  0  0  0
   -1.3123    2.5705    7.1066 H   0  0  0  0  0  0  0  0  0  0  0  0
   -0.7451    4.1565    6.6114 H   0  0  0  0  0  0  0  0  0  0  0  0
    2.0508    3.7800    7.1228 H   0  0  0  0  0  0  0  0  0  0  0  0
    3.7776    3.7912    5.1631 H   0  0  0  0  0  0  0  0  0  0  0  0
    3.7776    2.6816    6.4208 H   0  0  0  0  0  0  0  0  0  0  0  0
    4.1108    1.9058    4.0027 H   0  0  0  0  0  0  0  0  0  0  0  0
    3.8951    0.6961    7.1434 H   0  0  0  0  0  0  0  0  0  0  0  0
    4.4532   -0.7614    6.4585 H   0  0  0  0  0  0  0  0  0  0  0  0
    5.3732    1.7900    5.7329 H   0  0  0  0  0  0  0  0  0  0  0  0
    1.1327   -0.1005    4.7720 H   0  0  0  0  0  0  0  0  0  0  0  0
   -0.0529    0.6663    6.6290 H   0  0  0  0  0  0  0  0  0  0  0  0
    2.3655    1.4789    8.2260 H   0  0  0  0  0  0  0  0  0  0  0  0
    0.7346    1.6270    8.6852 H   0  0  0  0  0  0  0  0  0  0  0  0
    1.7758   -0.3438    9.6760 H   0  0  0  0  0  0  0  0  0  0  0  0
    0.2648   -0.6164    8.8705 H   0  0  0  0  0  0  0  0  0  0  0  0
    3.0429   -1.3522    7.9449 H   0  0  0  0  0  0  0  0  0  0  0  0
    2.1956   -3.3612    8.0873 H   0  0  0  0  0  0  0  0  0  0  0  0
   -0.0974   -2.9432    6.4860 H   0  0  0  0  0  0  0  0  0  0  0  0
   -0.3324   -1.7696    5.2155 H   0  0  0  0  0  0  0  0  0  0  0  0
   -0.6065   -1.3385    6.8967 H   0  0  0  0  0  0  0  0  0  0  0  0
    2.0578   -3.5945    6.0885 H   0  0  0  0  0  0  0  0  0  0  0  0
    3.3869   -2.5328    5.7555 H   0  0  0  0  0  0  0  0  0  0  0  0
    2.0551   -2.7172    4.5990 H   0  0  0  0  0  0  0  0  0  0  0  0
    2.1767    5.2979    2.1475 H   0  0  0  0  0  0  0  0  0  0  0  0
    3.3602    4.8882    3.3796 H   0  0  0  0  0  0  0  0  0  0  0  0
    2.4844    6.3862    3.4940 H   0  0  0  0  0  0  0  0  0  0  0  0
   -0.3909    5.5351    2.8686 H   0  0  0  0  0  0  0  0  0  0  0  0
    0.2736    6.6219    4.0755 H   0  0  0  0  0  0  0  0  0  0  0  0
   -0.7810    5.3349    4.5751 H   0  0  0  0  0  0  0  0  0  0  0  0
  1  2  2  0
  1 31  1  0
  1 32  1  0
  2 15  1  0
  2  3  1  0
  3  4  1  0
  3 33  1  0
  3 34  1  0
  4  5  1  0
  4 35  1  0
  4 36  1  0
  5  6  1  0
  5 37  1  0
  5 38  1  0
  6 14  1  0
  6  7  1  0
  6 39  1  6
  7 28  1  0
  7  8  1  0
  7 40  1  6
  8  9  1  0
  8 10  1  0
  8 41  1  1
  9 42  1  0
 10 19  1  0
 10 11  1  1
 10 12  1  0
 11 43  1  0
 11 44  1  0
 11 45  1  0
 12 13  1  0
 12 27  1  0
 12 46  1  1
 13 14  1  0
 13 47  1  0
 13 48  1  0
 14 15  1  0
 14 49  1  6
 15 16  1  1
 15 18  1  0
 16 17  1  0
 16 50  1  0
 16 51  1  0
 17 52  1  0
 18 24  1  0
 18 19  1  0
 18 53  1  6
 19 20  1  0
 19 54  1  1
 20 21  1  0
 20 55  1  0
 20 56  1  0
 21 22  1  0
 21 57  1  0
 21 58  1  0
 22 23  1  0
 22 24  1  0
 22 59  1  6
 23 60  1  0
 24 25  1  0
 24 26  1  0
 25 61  1  0
 25 62  1  0
 25 63  1  0
 26 64  1  0
 26 65  1  0
 26 66  1  0
 27 28  1  0
 28 29  1  0
 28 30  1  0
 29 67  1  0
 29 68  1  0
 29 69  1  0
 30 70  1  0
 30 71  1  0
 30 72  1  0
M  END
>  <i_m_ct_stereo_status>  (422) 
1

>  <s_m_source_file>  (422) 
/var/tmp/pbs.5076255.sched01/tmpxe1g82q3/12669a6jj4p.sdf

>  <i_m_source_file_index>  (422) 
40

>  <i_lp_mmshare_version>  (422) 
48012

>  <i_f3d_flags>  (422) 
0

>  <s_epik_input>  (422) 
W0NIM11DMShbQ0gzXSlbQ0BIXShbT0hdKVtDSDJdW0NIMl1bQ0BASF0yW0NASF0xW0NAQF0zKFtDSDJdW09IXSlDKD1bQ0gyXSlbQ0gyXVtDSDJdW0NIMl1bQ0BASF0oW0NAQEhdKFtDQEhdNFtPSF0pQyhPNSkoW0NIM10pW0NIM10pW0NASF0zW0NIMl1bQ0BASF01W0NAXTI0W0NIM10=

>  <s_epik_cmdline>  (422) 
J2VwaWtfcHl0aG9uJywgJy1waHQnLCAnMi4wJywgJy1waCcsICc3LjAnLCAnLXRuJywgJzgnLCAnLW1hJywgJzIwMCcsICctaW1hZScsICc8aW5maWxlLm1hZT4nLCAnLW9tYWUnLCAnPG91dGZpbGUubWFlPic=

>  <r_lp_tautomer_probability>  (422) 
1

>  <r_epik_Ionization_Penalty>  (422) 
2.66652e-06

>  <r_epik_Ionization_Penalty_Charging>  (422) 
0

>  <r_epik_Ionization_Penalty_Neutral>  (422) 
2.66652e-06

>  <r_epik_State_Penalty>  (422) 
-0

>  <r_epik_Charging_Adjusted_Penalty>  (422) 
0

>  <i_epik_Tot_Q>  (422) 
0

>  <i_epik_Tot_abs_Q>  (422) 
0

>  <s_lp_Force_Field>  (422) 
OPLS3e

>  <r_lp_Energy>  (422) 
110.727

>  <b_lp_Chiralities_Consistent>  (422) 
1

>  <s_lp_Variant>  (422) 
119:0-1

>  <s_i_glide_gridfile>  (422) 
pfpi4k_grid

>  <i_i_glide_lignum>  (422) 
40

>  <i_i_glide_rotatable_bonds>  (422) 
4

>  <r_i_docking_score>  (422) 
-1.56278

>  <r_i_glide_ligand_efficiency>  (422) 
-0.0520928

>  <r_i_glide_ligand_efficiency_sa>  (422) 
-0.161864

>  <r_i_glide_ligand_efficiency_ln>  (422) 
-0.355081

>  <r_i_glide_gscore>  (422) 
-1.56278

>  <r_i_glide_lipo>  (422) 
-0.0678445

>  <r_i_glide_hbond>  (422) 
0

>  <r_i_glide_metal>  (422) 
-0

>  <r_i_glide_rewards>  (422) 
-0.554937

>  <r_i_glide_evdw>  (422) 
-17.3384

>  <r_i_glide_ecoul>  (422) 
-1.23957

>  <r_i_glide_erotb>  (422) 
0.112854

>  <r_i_glide_esite>  (422) 
0

>  <r_i_glide_emodel>  (422) 
-20.5776

>  <r_i_glide_energy>  (422) 
-18.578

>  <r_i_glide_einternal>  (422) 
0.527027

>  <r_i_glide_intrahb_reward>  (422) 
-0

>  <i_i_glide_confnum>  (422) 
1

>  <i_i_glide_posenum>  (422) 
7

>  <r_i_glide_eff_state_penalty>  (422) 
0

>  <ligand_id>  (422) 
119

>  <original_smiles>  (422) 
C=C1CCCC2C3C(O)C4(C)C(CC2C1(CO)C1C4CCC(O)C1(C)C)OC3(C)C

>  <smiles>  (422) 
[H]OC([H])([H])C12C(=C([H])[H])C([H])([H])C([H])([H])C([H])([H])C3([H])C4([H])C([H])(O[H])C(C([H])([H])[H])(C([H])(OC4(C([H])([H])[H])C([H])([H])[H])C([H])([H])C31[H])C1([H])C([H])([H])C([H])([H])C([H])(O[H])C(C([H])([H])[H])(C([H])([H])[H])C12[H]

$$$$
120:0:0
     RDKit          3D

 48 52  0  0  1  0  0  0  0  0999 V2000
    2.2072   -2.5478   -3.4885 C   0  0  0  0  0  0  0  0  0  0  0  0
    3.4767   -2.8613   -2.8862 N   0  0  0  0  0  0  0  0  0  0  0  0
    3.7260   -3.3746   -1.6312 C   0  0  0  0  0  0  0  0  0  0  0  0
    5.0777   -3.4713   -1.5416 C   0  0  0  0  0  0  0  0  0  0  0  0
    5.8331   -3.9888   -0.4280 C   0  0  0  0  0  0  0  0  0  0  0  0
    5.3798   -4.9151    0.4182 N   0  0  0  0  0  0  0  0  0  0  0  0
    6.3188   -5.2723    1.3955 C   0  0  0  0  0  0  0  0  0  0  0  0
    6.0112   -6.2550    2.4687 C   0  0  0  0  0  0  0  0  0  0  0  0
    6.6991   -6.3948    3.4684 O   0  0  0  0  0  0  0  0  0  0  0  0
    4.9045   -6.9651    2.2215 N   0  0  0  0  0  0  0  0  0  0  0  0
    4.2782   -7.9087    3.1357 C   0  0  2  0  0  0  0  0  0  0  0  0
    3.4164   -8.9399    2.3678 C   0  0  1  0  0  0  0  0  0  0  0  0
    2.8112   -9.9485    3.3686 C   0  0  0  0  0  0  0  0  0  0  0  0
    1.9291   -9.1969    4.3848 C   0  0  1  0  0  0  0  0  0  0  0  0
    2.7874   -8.1643    5.1446 C   0  0  0  0  0  0  0  0  0  0  0  0
    3.3741   -7.1526    4.1420 C   0  0  2  0  0  0  0  0  0  0  0  0
    2.2203   -6.4271    3.3980 C   0  0  0  0  0  0  0  0  0  0  0  0
    1.3601   -7.4644    2.6192 C   0  0  2  0  0  0  0  0  0  0  0  0
    0.2183   -6.7536    1.8515 C   0  0  0  0  0  0  0  0  0  0  0  0
   -0.9005   -6.6668    2.4103 O   0  0  0  0  0  0  0  0  0  0  0  0
    0.4650   -6.2534    0.7272 O   0  0  0  0  0  0  0  0  0  0  0  0
    0.7852   -8.4876    3.6370 C   0  0  0  0  0  0  0  0  0  0  0  0
    2.2748   -8.2229    1.6211 C   0  0  0  0  0  0  0  0  0  0  0  0
    7.5033   -4.5869    1.2658 C   0  0  0  0  0  0  0  0  0  0  0  0
    7.4881   -3.4802   -0.0852 S   0  0  0  0  0  0  0  0  0  0  0  0
    5.5854   -3.0393   -2.7902 C   0  0  0  0  0  0  0  0  0  0  0  0
    4.6090   -2.6455   -3.5980 N   0  0  0  0  0  0  0  0  0  0  0  0
    1.4152   -2.6650   -2.7490 H   0  0  0  0  0  0  0  0  0  0  0  0
    2.0146   -3.2201   -4.3246 H   0  0  0  0  0  0  0  0  0  0  0  0
    2.2204   -1.5161   -3.8431 H   0  0  0  0  0  0  0  0  0  0  0  0
    2.9473   -3.6330   -0.9294 H   0  0  0  0  0  0  0  0  0  0  0  0
    4.4059   -6.7197    1.3801 H   0  0  0  0  0  0  0  0  0  0  0  0
    5.0668   -8.4470    3.6651 H   0  0  0  0  0  0  0  0  0  0  0  0
    4.0325   -9.4835    1.6475 H   0  0  0  0  0  0  0  0  0  0  0  0
    2.2172  -10.6953    2.8401 H   0  0  0  0  0  0  0  0  0  0  0  0
    3.6014  -10.4922    3.8872 H   0  0  0  0  0  0  0  0  0  0  0  0
    1.5017   -9.9054    5.0958 H   0  0  0  0  0  0  0  0  0  0  0  0
    2.1944   -7.6450    5.8973 H   0  0  0  0  0  0  0  0  0  0  0  0
    3.5924   -8.6728    5.6788 H   0  0  0  0  0  0  0  0  0  0  0  0
    3.9709   -6.4226    4.6929 H   0  0  0  0  0  0  0  0  0  0  0  0
    1.6140   -5.8737    4.1158 H   0  0  0  0  0  0  0  0  0  0  0  0
    2.6235   -5.6750    2.7178 H   0  0  0  0  0  0  0  0  0  0  0  0
    0.1785   -9.2249    3.1079 H   0  0  0  0  0  0  0  0  0  0  0  0
    0.1284   -8.0030    4.3610 H   0  0  0  0  0  0  0  0  0  0  0  0
    2.6954   -7.5332    0.8858 H   0  0  0  0  0  0  0  0  0  0  0  0
    1.6971   -8.9494    1.0523 H   0  0  0  0  0  0  0  0  0  0  0  0
    8.3609   -4.6646    1.9060 H   0  0  0  0  0  0  0  0  0  0  0  0
    6.6097   -2.9968   -3.1325 H   0  0  0  0  0  0  0  0  0  0  0  0
  1  2  1  0
  1 28  1  0
  1 29  1  0
  1 30  1  0
  2 27  1  0
  2  3  1  0
  3  4  2  0
  3 31  1  0
  4  5  1  0
  4 26  1  0
  5 25  1  0
  5  6  2  0
  6  7  1  0
  7  8  1  0
  7 24  2  0
  8  9  2  0
  8 10  1  0
 10 11  1  0
 10 32  1  0
 11 16  1  0
 11 12  1  0
 11 33  1  1
 12 23  1  0
 12 13  1  0
 12 34  1  6
 13 14  1  0
 13 35  1  0
 13 36  1  0
 14 22  1  0
 14 15  1  0
 14 37  1  1
 15 16  1  0
 15 38  1  0
 15 39  1  0
 16 17  1  0
 16 40  1  1
 17 18  1  0
 17 41  1  0
 17 42  1  0
 18 19  1  6
 18 22  1  0
 18 23  1  0
 19 20  2  0
 19 21  1  0
 22 43  1  0
 22 44  1  0
 23 45  1  0
 23 46  1  0
 24 25  1  0
 24 47  1  0
 26 27  2  0
 26 48  1  0
M  CHG  1  21  -1
M  END
>  <i_m_ct_stereo_status>  (423) 
1

>  <s_m_source_file>  (423) 
/var/tmp/pbs.5076255.sched01/tmpxe1g82q3/12669a6jj4p.sdf

>  <i_m_source_file_index>  (423) 
41

>  <i_lp_mmshare_version>  (423) 
48012

>  <i_f3d_flags>  (423) 
0

>  <s_epik_input>  (423) 
W0NIM11uMVtjSF1jKFtjSF1uMSktYzJuYyhbY0hdczIpQyg9TylbTkhdW0NASF0oW0NASF0oW0NIMl0zKVtDSDJdW0NAQEhdKFtDSDJdNClbQ0gyXTUpW0NASF00W0NIMl1bQ0BAXTM1Qyg9TylbT0hd

>  <s_epik_cmdline>  (423) 
J2VwaWtfcHl0aG9uJywgJy1waHQnLCAnMi4wJywgJy1waCcsICc3LjAnLCAnLXRuJywgJzgnLCAnLW1hJywgJzIwMCcsICctaW1hZScsICc8aW5maWxlLm1hZT4nLCAnLW9tYWUnLCAnPG91dGZpbGUubWFlPic=

>  <r_lp_tautomer_probability>  (423) 
1

>  <r_epik_Ionization_Penalty>  (423) 
0.00603311

>  <r_epik_Ionization_Penalty_Charging>  (423) 
0.00602962

>  <r_epik_Ionization_Penalty_Neutral>  (423) 
3.48501e-06

>  <r_epik_State_Penalty>  (423) 
0.00443989

>  <r_epik_Charging_Adjusted_Penalty>  (423) 
0.0104695

>  <i_epik_Tot_Q>  (423) 
-1

>  <i_epik_Tot_abs_Q>  (423) 
1

>  <s_lp_Force_Field>  (423) 
OPLS3e

>  <r_lp_Energy>  (423) 
21.7338

>  <b_lp_Chiralities_Consistent>  (423) 
1

>  <s_lp_Variant>  (423) 
120:0-1

>  <s_i_glide_gridfile>  (423) 
pfpi4k_grid

>  <i_i_glide_lignum>  (423) 
41

>  <i_i_glide_rotatable_bonds>  (423) 
5

>  <r_i_docking_score>  (423) 
-4.62309

>  <r_i_glide_ligand_efficiency>  (423) 
-0.171225

>  <r_i_glide_ligand_efficiency_sa>  (423) 
-0.513676

>  <r_i_glide_ligand_efficiency_ln>  (423) 
-1.07618

>  <r_i_glide_gscore>  (423) 
-4.62309

>  <r_i_glide_lipo>  (423) 
-0.920143

>  <r_i_glide_hbond>  (423) 
-0.4

>  <r_i_glide_metal>  (423) 
-0

>  <r_i_glide_rewards>  (423) 
-0.800734

>  <r_i_glide_evdw>  (423) 
-28.1709

>  <r_i_glide_ecoul>  (423) 
-10.1052

>  <r_i_glide_erotb>  (423) 
0.52371

>  <r_i_glide_esite>  (423) 
-0.101593

>  <r_i_glide_emodel>  (423) 
-52.209

>  <r_i_glide_energy>  (423) 
-38.2761

>  <r_i_glide_einternal>  (423) 
2.75076

>  <r_i_glide_intrahb_reward>  (423) 
-0

>  <i_i_glide_confnum>  (423) 
6

>  <i_i_glide_posenum>  (423) 
22

>  <r_i_glide_eff_state_penalty>  (423) 
0

>  <ligand_id>  (423) 
120

>  <original_smiles>  (423) 
Cn1cc(-c2nc(C(=O)NC3C4CC5CC3CC(C(=O)O)(C5)C4)cs2)cn1

>  <smiles>  (423) 
[H]c1nn(C([H])([H])[H])c([H])c1-c1nc(C(=O)N([H])C2([H])C3([H])C([H])([H])C4([H])C([H])([H])C2([H])C([H])([H])C(C(=O)[O-])(C4([H])[H])C3([H])[H])c([H])s1

$$$$
120:0:1
     RDKit          3D

 48 52  0  0  1  0  0  0  0  0999 V2000
    3.6688   -1.7570   -1.8978 C   0  0  0  0  0  0  0  0  0  0  0  0
    4.8310   -2.3803   -1.3091 N   0  0  0  0  0  0  0  0  0  0  0  0
    4.8872   -3.5012   -0.5150 C   0  0  0  0  0  0  0  0  0  0  0  0
    6.2026   -3.6807   -0.2229 C   0  0  0  0  0  0  0  0  0  0  0  0
    6.7721   -4.7296    0.5946 C   0  0  0  0  0  0  0  0  0  0  0  0
    6.0577   -5.6727    1.2095 N   0  0  0  0  0  0  0  0  0  0  0  0
    6.8491   -6.5667    1.9345 C   0  0  0  0  0  0  0  0  0  0  0  0
    6.2667   -7.6826    2.7241 C   0  0  0  0  0  0  0  0  0  0  0  0
    6.9369   -8.4203    3.4480 O   0  0  0  0  0  0  0  0  0  0  0  0
    4.9452   -7.7905    2.5769 N   0  0  0  0  0  0  0  0  0  0  0  0
    4.0549   -8.6852    3.3047 C   0  0  2  0  0  0  0  0  0  0  0  0
    3.1218   -9.4518    2.3434 C   0  0  1  0  0  0  0  0  0  0  0  0
    2.2453  -10.4249    3.1658 C   0  0  0  0  0  0  0  0  0  0  0  0
    1.4004   -9.6253    4.1765 C   0  0  1  0  0  0  0  0  0  0  0  0
    2.3351   -8.8446    5.1236 C   0  0  0  0  0  0  0  0  0  0  0  0
    3.1981   -7.8683    4.2986 C   0  0  2  0  0  0  0  0  0  0  0  0
    2.2807   -6.8736    3.5425 C   0  0  0  0  0  0  0  0  0  0  0  0
    1.3486   -7.6540    2.5762 C   0  0  2  0  0  0  0  0  0  0  0  0
    0.4553   -6.6637    1.8000 C   0  0  0  0  0  0  0  0  0  0  0  0
   -0.7684   -6.6562    2.0656 O   0  0  0  0  0  0  0  0  0  0  0  0
    0.9916   -5.8928    0.9654 O   0  0  0  0  0  0  0  0  0  0  0  0
    0.4896   -8.6497    3.4094 C   0  0  0  0  0  0  0  0  0  0  0  0
    2.2206   -8.4603    1.5780 C   0  0  0  0  0  0  0  0  0  0  0  0
    8.1906   -6.2839    1.8417 C   0  0  0  0  0  0  0  0  0  0  0  0
    8.5053   -4.8830    0.8583 S   0  0  0  0  0  0  0  0  0  0  0  0
    6.9057   -2.6425   -0.8830 C   0  0  0  0  0  0  0  0  0  0  0  0
    6.0633   -1.8528   -1.5299 N   0  0  0  0  0  0  0  0  0  0  0  0
    2.7578   -2.2348   -1.5257 H   0  0  0  0  0  0  0  0  0  0  0  0
    3.7006   -1.8643   -2.9845 H   0  0  0  0  0  0  0  0  0  0  0  0
    3.6400   -0.6963   -1.6375 H   0  0  0  0  0  0  0  0  0  0  0  0
    4.0139   -4.0659   -0.2279 H   0  0  0  0  0  0  0  0  0  0  0  0
    4.5230   -7.1180    1.9514 H   0  0  0  0  0  0  0  0  0  0  0  0
    4.6457   -9.4201    3.8548 H   0  0  0  0  0  0  0  0  0  0  0  0
    3.7115  -10.0282    1.6294 H   0  0  0  0  0  0  0  0  0  0  0  0
    1.5924  -10.9971    2.5076 H   0  0  0  0  0  0  0  0  0  0  0  0
    2.8685  -11.1508    3.6892 H   0  0  0  0  0  0  0  0  0  0  0  0
    0.7825  -10.3071    4.7606 H   0  0  0  0  0  0  0  0  0  0  0  0
    1.7604   -8.2974    5.8704 H   0  0  0  0  0  0  0  0  0  0  0  0
    2.9741   -9.5402    5.6692 H   0  0  0  0  0  0  0  0  0  0  0  0
    3.8520   -7.3154    4.9750 H   0  0  0  0  0  0  0  0  0  0  0  0
    1.6973   -6.2921    4.2584 H   0  0  0  0  0  0  0  0  0  0  0  0
    2.8773   -6.1455    2.9913 H   0  0  0  0  0  0  0  0  0  0  0  0
   -0.1704   -9.2153    2.7504 H   0  0  0  0  0  0  0  0  0  0  0  0
   -0.1524   -8.1261    4.1193 H   0  0  0  0  0  0  0  0  0  0  0  0
    2.8236   -7.7930    0.9610 H   0  0  0  0  0  0  0  0  0  0  0  0
    1.5899   -9.0081    0.8838 H   0  0  0  0  0  0  0  0  0  0  0  0
    9.0010   -6.8307    2.3018 H   0  0  0  0  0  0  0  0  0  0  0  0
    7.9640   -2.4346   -0.9005 H   0  0  0  0  0  0  0  0  0  0  0  0
  1  2  1  0
  1 28  1  0
  1 29  1  0
  1 30  1  0
  2 27  1  0
  2  3  1  0
  3  4  2  0
  3 31  1  0
  4  5  1  0
  4 26  1  0
  5 25  1  0
  5  6  2  0
  6  7  1  0
  7  8  1  0
  7 24  2  0
  8  9  2  0
  8 10  1  0
 10 11  1  0
 10 32  1  0
 11 16  1  0
 11 12  1  0
 11 33  1  1
 12 23  1  0
 12 13  1  0
 12 34  1  6
 13 14  1  0
 13 35  1  0
 13 36  1  0
 14 22  1  0
 14 15  1  0
 14 37  1  1
 15 16  1  0
 15 38  1  0
 15 39  1  0
 16 17  1  0
 16 40  1  1
 17 18  1  0
 17 41  1  0
 17 42  1  0
 18 19  1  6
 18 22  1  0
 18 23  1  0
 19 20  2  0
 19 21  1  0
 22 43  1  0
 22 44  1  0
 23 45  1  0
 23 46  1  0
 24 25  1  0
 24 47  1  0
 26 27  2  0
 26 48  1  0
M  CHG  1  21  -1
M  END
>  <i_m_ct_stereo_status>  (424) 
1

>  <s_m_source_file>  (424) 
/var/tmp/pbs.5076255.sched01/tmpxe1g82q3/12669a6jj4p.sdf

>  <i_m_source_file_index>  (424) 
41

>  <i_lp_mmshare_version>  (424) 
48012

>  <i_f3d_flags>  (424) 
0

>  <s_epik_input>  (424) 
W0NIM11uMVtjSF1jKFtjSF1uMSktYzJuYyhbY0hdczIpQyg9TylbTkhdW0NASF0oW0NASF0oW0NIMl0zKVtDSDJdW0NAQEhdKFtDSDJdNClbQ0gyXTUpW0NASF00W0NIMl1bQ0BAXTM1Qyg9TylbT0hd

>  <s_epik_cmdline>  (424) 
J2VwaWtfcHl0aG9uJywgJy1waHQnLCAnMi4wJywgJy1waCcsICc3LjAnLCAnLXRuJywgJzgnLCAnLW1hJywgJzIwMCcsICctaW1hZScsICc8aW5maWxlLm1hZT4nLCAnLW9tYWUnLCAnPG91dGZpbGUubWFlPic=

>  <r_lp_tautomer_probability>  (424) 
1

>  <r_epik_Ionization_Penalty>  (424) 
0.00603311

>  <r_epik_Ionization_Penalty_Charging>  (424) 
0.00602962

>  <r_epik_Ionization_Penalty_Neutral>  (424) 
3.48501e-06

>  <r_epik_State_Penalty>  (424) 
0.00443989

>  <r_epik_Charging_Adjusted_Penalty>  (424) 
0.0104695

>  <i_epik_Tot_Q>  (424) 
-1

>  <i_epik_Tot_abs_Q>  (424) 
1

>  <s_lp_Force_Field>  (424) 
OPLS3e

>  <r_lp_Energy>  (424) 
21.7338

>  <b_lp_Chiralities_Consistent>  (424) 
1

>  <s_lp_Variant>  (424) 
120:0-1

>  <s_i_glide_gridfile>  (424) 
pfpi4k_grid

>  <i_i_glide_lignum>  (424) 
41

>  <i_i_glide_rotatable_bonds>  (424) 
5

>  <r_i_docking_score>  (424) 
-3.90883

>  <r_i_glide_ligand_efficiency>  (424) 
-0.144772

>  <r_i_glide_ligand_efficiency_sa>  (424) 
-0.434315

>  <r_i_glide_ligand_efficiency_ln>  (424) 
-0.909912

>  <r_i_glide_gscore>  (424) 
-3.90883

>  <r_i_glide_lipo>  (424) 
-0.337736

>  <r_i_glide_hbond>  (424) 
-0.511766

>  <r_i_glide_metal>  (424) 
-0

>  <r_i_glide_rewards>  (424) 
-0.808677

>  <r_i_glide_evdw>  (424) 
-25.3397

>  <r_i_glide_ecoul>  (424) 
-9.25083

>  <r_i_glide_erotb>  (424) 
0.52371

>  <r_i_glide_esite>  (424) 
-0.119755

>  <r_i_glide_emodel>  (424) 
-46.5353

>  <r_i_glide_energy>  (424) 
-34.5905

>  <r_i_glide_einternal>  (424) 
2.10443

>  <r_i_glide_intrahb_reward>  (424) 
-0

>  <i_i_glide_confnum>  (424) 
6

>  <i_i_glide_posenum>  (424) 
1

>  <r_i_glide_eff_state_penalty>  (424) 
0

>  <ligand_id>  (424) 
120

>  <original_smiles>  (424) 
Cn1cc(-c2nc(C(=O)NC3C4CC5CC3CC(C(=O)O)(C5)C4)cs2)cn1

>  <smiles>  (424) 
[H]c1nn(C([H])([H])[H])c([H])c1-c1nc(C(=O)N([H])C2([H])C3([H])C([H])([H])C4([H])C([H])([H])C2([H])C([H])([H])C(C(=O)[O-])(C4([H])[H])C3([H])[H])c([H])s1

$$$$
120:0:2
     RDKit          3D

 48 52  0  0  1  0  0  0  0  0999 V2000
    3.1002   -0.4601   -3.7696 C   0  0  0  0  0  0  0  0  0  0  0  0
    3.6696   -1.6094   -3.1032 N   0  0  0  0  0  0  0  0  0  0  0  0
    3.3885   -2.1098   -1.8457 C   0  0  0  0  0  0  0  0  0  0  0  0
    4.2100   -3.1788   -1.6761 C   0  0  0  0  0  0  0  0  0  0  0  0
    4.2429   -4.0327   -0.5212 C   0  0  0  0  0  0  0  0  0  0  0  0
    3.1525   -4.4869    0.0938 N   0  0  0  0  0  0  0  0  0  0  0  0
    3.4715   -5.3479    1.1435 C   0  0  0  0  0  0  0  0  0  0  0  0
    2.4124   -6.0681    1.8796 C   0  0  0  0  0  0  0  0  0  0  0  0
    1.3530   -6.3966    1.3458 O   0  0  0  0  0  0  0  0  0  0  0  0
    2.7099   -6.2865    3.1576 N   0  0  0  0  0  0  0  0  0  0  0  0
    1.9841   -7.1393    4.0911 C   0  0  2  0  0  0  0  0  0  0  0  0
    0.4894   -6.7474    4.2500 C   0  0  1  0  0  0  0  0  0  0  0  0
   -0.2065   -7.7707    5.1631 C   0  0  0  0  0  0  0  0  0  0  0  0
    0.4546   -7.7337    6.5514 C   0  0  1  0  0  0  0  0  0  0  0  0
    1.9438   -8.1118    6.4106 C   0  0  0  0  0  0  0  0  0  0  0  0
    2.6465   -7.0903    5.4946 C   0  0  2  0  0  0  0  0  0  0  0  0
    2.5296   -5.6762    6.1143 C   0  0  0  0  0  0  0  0  0  0  0  0
    1.0342   -5.2700    6.2479 C   0  0  2  0  0  0  0  0  0  0  0  0
    0.8613   -3.8403    6.8344 C   0  0  0  0  0  0  0  0  0  0  0  0
   -0.2892   -3.4779    7.1678 O   0  0  0  0  0  0  0  0  0  0  0  0
    1.8710   -3.1002    6.9209 O   0  0  0  0  0  0  0  0  0  0  0  0
    0.3141   -6.3137    7.1466 C   0  0  0  0  0  0  0  0  0  0  0  0
    0.3811   -5.3234    4.8442 C   0  0  0  0  0  0  0  0  0  0  0  0
    4.8208   -5.4780    1.3598 C   0  0  0  0  0  0  0  0  0  0  0  0
    5.7496   -4.5984    0.1853 S   0  0  0  0  0  0  0  0  0  0  0  0
    4.9502   -3.2943   -2.8741 C   0  0  0  0  0  0  0  0  0  0  0  0
    4.6074   -2.3486   -3.7419 N   0  0  0  0  0  0  0  0  0  0  0  0
    2.4451    0.0856   -3.0911 H   0  0  0  0  0  0  0  0  0  0  0  0
    2.5250   -0.7819   -4.6413 H   0  0  0  0  0  0  0  0  0  0  0  0
    3.9005    0.2112   -4.0863 H   0  0  0  0  0  0  0  0  0  0  0  0
    2.6328   -1.6855   -1.1927 H   0  0  0  0  0  0  0  0  0  0  0  0
    3.5225   -5.8140    3.5157 H   0  0  0  0  0  0  0  0  0  0  0  0
    2.0493   -8.1563    3.6904 H   0  0  0  0  0  0  0  0  0  0  0  0
   -0.0619   -6.7894    3.3114 H   0  0  0  0  0  0  0  0  0  0  0  0
   -1.2710   -7.5453    5.2287 H   0  0  0  0  0  0  0  0  0  0  0  0
   -0.1371   -8.7720    4.7304 H   0  0  0  0  0  0  0  0  0  0  0  0
   -0.0389   -8.4602    7.1978 H   0  0  0  0  0  0  0  0  0  0  0  0
    2.4261   -8.1262    7.3863 H   0  0  0  0  0  0  0  0  0  0  0  0
    2.0398   -9.1192    5.9951 H   0  0  0  0  0  0  0  0  0  0  0  0
    3.6998   -7.3621    5.4097 H   0  0  0  0  0  0  0  0  0  0  0  0
    3.0208   -5.6685    7.0882 H   0  0  0  0  0  0  0  0  0  0  0  0
    3.0691   -4.9636    5.4894 H   0  0  0  0  0  0  0  0  0  0  0  0
   -0.7454   -6.0692    7.2296 H   0  0  0  0  0  0  0  0  0  0  0  0
    0.7216   -6.2981    8.1565 H   0  0  0  0  0  0  0  0  0  0  0  0
    0.8293   -4.5861    4.1749 H   0  0  0  0  0  0  0  0  0  0  0  0
   -0.6626   -5.0556    4.9247 H   0  0  0  0  0  0  0  0  0  0  0  0
    5.3262   -6.0859    2.0895 H   0  0  0  0  0  0  0  0  0  0  0  0
    5.6819   -4.0358   -3.1489 H   0  0  0  0  0  0  0  0  0  0  0  0
  1  2  1  0
  1 28  1  0
  1 29  1  0
  1 30  1  0
  2 27  1  0
  2  3  1  0
  3  4  2  0
  3 31  1  0
  4  5  1  0
  4 26  1  0
  5 25  1  0
  5  6  2  0
  6  7  1  0
  7  8  1  0
  7 24  2  0
  8  9  2  0
  8 10  1  0
 10 11  1  0
 10 32  1  0
 11 16  1  0
 11 12  1  0
 11 33  1  6
 12 23  1  0
 12 13  1  0
 12 34  1  6
 13 14  1  0
 13 35  1  0
 13 36  1  0
 14 22  1  0
 14 15  1  0
 14 37  1  1
 15 16  1  0
 15 38  1  0
 15 39  1  0
 16 17  1  0
 16 40  1  6
 17 18  1  0
 17 41  1  0
 17 42  1  0
 18 19  1  1
 18 22  1  0
 18 23  1  0
 19 20  2  0
 19 21  1  0
 22 43  1  0
 22 44  1  0
 23 45  1  0
 23 46  1  0
 24 25  1  0
 24 47  1  0
 26 27  2  0
 26 48  1  0
M  CHG  1  21  -1
M  END
>  <i_m_ct_stereo_status>  (425) 
1

>  <s_m_source_file>  (425) 
/var/tmp/pbs.5076255.sched01/tmpxe1g82q3/12669a6jj4p.sdf

>  <i_m_source_file_index>  (425) 
41

>  <i_lp_mmshare_version>  (425) 
48012

>  <i_f3d_flags>  (425) 
0

>  <s_epik_input>  (425) 
W0NIM11uMVtjSF1jKFtjSF1uMSktYzJuYyhbY0hdczIpQyg9TylbTkhdW0NASF0oW0NASF0oW0NIMl0zKVtDSDJdW0NAQEhdKFtDSDJdNClbQ0gyXTUpW0NASF00W0NIMl1bQ0BAXTM1Qyg9TylbT0hd

>  <s_epik_cmdline>  (425) 
J2VwaWtfcHl0aG9uJywgJy1waHQnLCAnMi4wJywgJy1waCcsICc3LjAnLCAnLXRuJywgJzgnLCAnLW1hJywgJzIwMCcsICctaW1hZScsICc8aW5maWxlLm1hZT4nLCAnLW9tYWUnLCAnPG91dGZpbGUubWFlPic=

>  <r_lp_tautomer_probability>  (425) 
1

>  <r_epik_Ionization_Penalty>  (425) 
0.00603311

>  <r_epik_Ionization_Penalty_Charging>  (425) 
0.00602962

>  <r_epik_Ionization_Penalty_Neutral>  (425) 
3.48501e-06

>  <r_epik_State_Penalty>  (425) 
0.00443989

>  <r_epik_Charging_Adjusted_Penalty>  (425) 
0.0104695

>  <i_epik_Tot_Q>  (425) 
-1

>  <i_epik_Tot_abs_Q>  (425) 
1

>  <s_lp_Force_Field>  (425) 
OPLS3e

>  <r_lp_Energy>  (425) 
21.7338

>  <b_lp_Chiralities_Consistent>  (425) 
1

>  <s_lp_Variant>  (425) 
120:0-1

>  <s_i_glide_gridfile>  (425) 
pfpi4k_grid

>  <i_i_glide_lignum>  (425) 
41

>  <i_i_glide_rotatable_bonds>  (425) 
5

>  <r_i_docking_score>  (425) 
-3.02812

>  <r_i_glide_ligand_efficiency>  (425) 
-0.112153

>  <r_i_glide_ligand_efficiency_sa>  (425) 
-0.336458

>  <r_i_glide_ligand_efficiency_ln>  (425) 
-0.704897

>  <r_i_glide_gscore>  (425) 
-3.02812

>  <r_i_glide_lipo>  (425) 
-0.564637

>  <r_i_glide_hbond>  (425) 
-0.040366

>  <r_i_glide_metal>  (425) 
-0

>  <r_i_glide_rewards>  (425) 
-0.841127

>  <r_i_glide_evdw>  (425) 
-25.812

>  <r_i_glide_ecoul>  (425) 
-5.31574

>  <r_i_glide_erotb>  (425) 
0.52371

>  <r_i_glide_esite>  (425) 
-0.017738

>  <r_i_glide_emodel>  (425) 
-38.762

>  <r_i_glide_energy>  (425) 
-31.1278

>  <r_i_glide_einternal>  (425) 
4.06159

>  <r_i_glide_intrahb_reward>  (425) 
-0

>  <i_i_glide_confnum>  (425) 
2

>  <i_i_glide_posenum>  (425) 
3

>  <r_i_glide_eff_state_penalty>  (425) 
0

>  <ligand_id>  (425) 
120

>  <original_smiles>  (425) 
Cn1cc(-c2nc(C(=O)NC3C4CC5CC3CC(C(=O)O)(C5)C4)cs2)cn1

>  <smiles>  (425) 
[H]c1nn(C([H])([H])[H])c([H])c1-c1nc(C(=O)N([H])C2([H])C3([H])C([H])([H])C4([H])C([H])([H])C2([H])C([H])([H])C(C(=O)[O-])(C4([H])[H])C3([H])[H])c([H])s1

$$$$
