0:0:0
     RDKit          3D

 66 72  0  0  1  0  0  0  0  0999 V2000
    4.2410   -8.0948    7.7046 C   0  0  0  0  0  0  0  0  0  0  0  0
    3.5700   -9.4930    7.6814 C   0  0  2  0  0  0  0  0  0  0  0  0
    2.0420   -9.3146    7.9445 C   0  0  0  0  0  0  0  0  0  0  0  0
    1.6410   -9.0369    9.4016 C   0  0  0  0  0  0  0  0  0  0  0  0
    2.2095  -10.0934   10.3445 C   0  0  1  0  0  0  0  0  0  0  0  0
    1.6371  -11.3633   10.0783 O   0  0  0  0  0  0  0  0  0  0  0  0
    3.7324  -10.1213   10.2291 C   0  0  0  0  0  0  0  0  0  0  0  0
    4.2408  -10.3065    8.8058 C   0  0  0  0  0  0  0  0  0  0  0  0
    5.3508  -11.0322    8.5844 C   0  0  0  0  0  0  0  0  0  0  0  0
    6.0402  -11.0861    7.2504 C   0  0  0  0  0  0  0  0  0  0  0  0
    5.0556  -11.0257    6.0807 C   0  0  1  0  0  0  0  0  0  0  0  0
    3.7374  -10.2020    6.2724 C   0  0  2  0  0  0  0  0  0  0  0  0
    3.4190   -9.2274    5.0600 C   0  0  0  0  0  0  0  0  0  0  0  0
    3.6673   -9.6719    3.5553 C   0  0  1  0  0  0  0  0  0  0  0  0
    2.3502  -10.2723    2.9698 C   0  0  0  0  0  0  0  0  0  0  0  0
    4.0337   -8.4345    2.6575 C   0  0  2  0  0  0  0  0  0  0  0  0
    3.2543   -7.1198    2.9658 C   0  0  0  0  0  0  0  0  0  0  0  0
    2.1114   -6.8494    2.1160 N   0  0  0  0  0  0  0  0  0  0  0  0
    2.0146   -6.1995    0.9373 C   0  0  0  0  0  0  0  0  0  0  0  0
    0.7856   -6.2583    0.4632 N   0  0  0  0  0  0  0  0  0  0  0  0
    0.0849   -6.9331    1.4442 N   0  0  0  0  0  0  0  0  0  0  0  0
    0.8526   -7.2164    2.4537 N   0  0  0  0  0  0  0  0  0  0  0  0
    4.3314   -8.6821    1.1805 C   0  0  0  0  0  0  0  0  0  0  0  0
    5.4502   -8.2813    2.0814 C   0  0  2  0  0  0  0  0  0  0  0  0
    6.6006   -9.2279    2.3505 C   0  0  0  0  0  0  0  0  0  0  0  0
    6.1502  -10.6312    2.7694 C   0  0  1  0  0  0  0  0  0  0  0  0
    6.2299  -11.4629    1.6261 O   0  0  0  0  0  0  0  0  0  0  0  0
    6.8226  -11.2612    4.0154 C   0  0  1  0  0  0  0  0  0  0  0  0
    8.1475  -10.8767    4.3255 O   0  0  0  0  0  0  0  0  0  0  0  0
    5.7104  -10.5833    4.7935 C   0  0  1  0  0  0  0  0  0  0  0  0
    4.8167  -10.7403    3.5655 C   0  0  1  0  0  0  0  0  0  0  0  0
    4.2330  -12.0365    3.4928 O   0  0  0  0  0  0  0  0  0  0  0  0
    3.7126   -7.3604    7.0955 H   0  0  0  0  0  0  0  0  0  0  0  0
    5.2716   -8.1449    7.3508 H   0  0  0  0  0  0  0  0  0  0  0  0
    4.2717   -7.6772    8.7091 H   0  0  0  0  0  0  0  0  0  0  0  0
    1.6436   -8.5185    7.3166 H   0  0  0  0  0  0  0  0  0  0  0  0
    1.5087  -10.2099    7.6305 H   0  0  0  0  0  0  0  0  0  0  0  0
    2.0005   -8.0491    9.7030 H   0  0  0  0  0  0  0  0  0  0  0  0
    0.5549   -9.0073    9.4908 H   0  0  0  0  0  0  0  0  0  0  0  0
    1.9490   -9.8368   11.3735 H   0  0  0  0  0  0  0  0  0  0  0  0
    1.7163  -11.6023    9.1416 H   0  0  0  0  0  0  0  0  0  0  0  0
    4.1301   -9.1713   10.6018 H   0  0  0  0  0  0  0  0  0  0  0  0
    4.1460  -10.8944   10.8755 H   0  0  0  0  0  0  0  0  0  0  0  0
    5.8591  -11.5229    9.4027 H   0  0  0  0  0  0  0  0  0  0  0  0
    6.7575  -10.2668    7.2078 H   0  0  0  0  0  0  0  0  0  0  0  0
    6.6137  -12.0116    7.1911 H   0  0  0  0  0  0  0  0  0  0  0  0
    4.7456  -12.0649    5.9618 H   0  0  0  0  0  0  0  0  0  0  0  0
    2.9761  -10.9906    6.2484 H   0  0  0  0  0  0  0  0  0  0  0  0
    2.3743   -8.9453    5.1588 H   0  0  0  0  0  0  0  0  0  0  0  0
    4.0226   -8.3267    5.2071 H   0  0  0  0  0  0  0  0  0  0  0  0
    2.4997  -10.6595    1.9581 H   0  0  0  0  0  0  0  0  0  0  0  0
    1.5573   -9.5401    2.9099 H   0  0  0  0  0  0  0  0  0  0  0  0
    1.9342  -11.0667    3.5930 H   0  0  0  0  0  0  0  0  0  0  0  0
    2.9272   -7.0261    3.9983 H   0  0  0  0  0  0  0  0  0  0  0  0
    3.9460   -6.2914    2.8466 H   0  0  0  0  0  0  0  0  0  0  0  0
    2.8253   -5.6956    0.4348 H   0  0  0  0  0  0  0  0  0  0  0  0
    4.3095   -9.7064    0.8135 H   0  0  0  0  0  0  0  0  0  0  0  0
    4.0313   -7.9242    0.4631 H   0  0  0  0  0  0  0  0  0  0  0  0
    5.8008   -7.2639    1.9337 H   0  0  0  0  0  0  0  0  0  0  0  0
    7.2593   -9.2496    1.4798 H   0  0  0  0  0  0  0  0  0  0  0  0
    7.1872   -8.7607    3.1424 H   0  0  0  0  0  0  0  0  0  0  0  0
    5.3468  -11.5960    1.2640 H   0  0  0  0  0  0  0  0  0  0  0  0
    6.7317  -12.3481    4.0512 H   0  0  0  0  0  0  0  0  0  0  0  0
    8.2048   -9.9393    4.2079 H   0  0  0  0  0  0  0  0  0  0  0  0
    6.0075   -9.5408    4.9062 H   0  0  0  0  0  0  0  0  0  0  0  0
    3.9952  -12.1812    2.5898 H   0  0  0  0  0  0  0  0  0  0  0  0
  2  1  1  6
  1 33  1  0
  1 34  1  0
  1 35  1  0
  2  8  1  0
  2 12  1  0
  2  3  1  0
  3  4  1  0
  3 36  1  0
  3 37  1  0
  4  5  1  0
  4 38  1  0
  4 39  1  0
  5  6  1  0
  5  7  1  0
  5 40  1  1
  6 41  1  0
  7  8  1  0
  7 42  1  0
  7 43  1  0
  8  9  2  0
  9 10  1  0
  9 44  1  0
 10 11  1  0
 10 45  1  0
 10 46  1  0
 11 30  1  0
 11 12  1  0
 11 47  1  6
 12 13  1  0
 12 48  1  1
 13 14  1  0
 13 49  1  0
 13 50  1  0
 14 31  1  0
 14 15  1  6
 14 16  1  0
 15 51  1  0
 15 52  1  0
 15 53  1  0
 16 24  1  0
 16 17  1  6
 16 23  1  0
 17 18  1  0
 17 54  1  0
 17 55  1  0
 18 22  1  0
 18 19  1  0
 19 20  2  0
 19 56  1  0
 20 21  1  0
 21 22  2  0
 23 24  1  0
 23 57  1  0
 23 58  1  0
 24 25  1  0
 24 59  1  6
 25 26  1  0
 25 60  1  0
 25 61  1  0
 26 31  1  0
 26 27  1  6
 26 28  1  0
 27 62  1  0
 28 29  1  0
 28 30  1  0
 28 63  1  6
 29 64  1  0
 30 31  1  0
 30 65  1  1
 31 32  1  1
 32 66  1  0
M  END
>  <i_m_ct_stereo_status>  (1) 
1

>  <s_m_source_file>  (1) 
/var/tmp/pbs.5076255.sched01/tmpmzpp47sj/0ood7iq68.sdf

>  <i_m_source_file_index>  (1) 
1

>  <i_lp_mmshare_version>  (1) 
48012

>  <i_f3d_flags>  (1) 
0

>  <s_epik_input>  (1) 
W0NIMl0xW0NIMl1bQ0BASF0oW09IXSlbQ0gyXUMoW0NAXTEyW0NIM10pPVtDSF1bQ0gyXVtDQEhdM1tDQEBIXTJbQ0gyXVtDQEBdNChbQ0gzXSlbQ0BAXTUoW0NIMl1uNltjSF1ubm42KVtDQEhdKFtDSDJdNSlbQ0gyXVtDQF03KFtPSF0pW0NAQF00KFtPSF0pW0NAQEhdM1tDQEBIXTdbT0hd

>  <s_epik_cmdline>  (1) 
J2VwaWtfcHl0aG9uJywgJy1waHQnLCAnMi4wJywgJy1waCcsICc3LjAnLCAnLXRuJywgJzgnLCAnLW1hJywgJzIwMCcsICctaW1hZScsICc8aW5maWxlLm1hZT4nLCAnLW9tYWUnLCAnPG91dGZpbGUubWFlPic=

>  <r_lp_tautomer_probability>  (1) 
1

>  <r_epik_Ionization_Penalty>  (1) 
2.07689e-06

>  <r_epik_Ionization_Penalty_Charging>  (1) 
0

>  <r_epik_Ionization_Penalty_Neutral>  (1) 
2.07689e-06

>  <r_epik_State_Penalty>  (1) 
-0

>  <r_epik_Charging_Adjusted_Penalty>  (1) 
0

>  <i_epik_Tot_Q>  (1) 
0

>  <i_epik_Tot_abs_Q>  (1) 
0

>  <s_lp_Force_Field>  (1) 
OPLS3e

>  <r_lp_Energy>  (1) 
77.6609

>  <b_lp_Chiralities_Consistent>  (1) 
1

>  <s_lp_Variant>  (1) 
0:0-1

>  <s_i_glide_gridfile>  (1) 
pfpi4k_grid

>  <i_i_glide_lignum>  (1) 
1

>  <i_i_glide_rotatable_bonds>  (1) 
6

>  <r_i_docking_score>  (1) 
-3.94407

>  <r_i_glide_ligand_efficiency>  (1) 
-0.123252

>  <r_i_glide_ligand_efficiency_sa>  (1) 
-0.391302

>  <r_i_glide_ligand_efficiency_ln>  (1) 
-0.883186

>  <r_i_glide_gscore>  (1) 
-3.94407

>  <r_i_glide_lipo>  (1) 
-0.0898766

>  <r_i_glide_hbond>  (1) 
-0.148891

>  <r_i_glide_metal>  (1) 
-0

>  <r_i_glide_rewards>  (1) 
-0.391697

>  <r_i_glide_evdw>  (1) 
-17.4664

>  <r_i_glide_ecoul>  (1) 
-15.6709

>  <r_i_glide_erotb>  (1) 
0.204076

>  <r_i_glide_esite>  (1) 
-0.293735

>  <r_i_glide_emodel>  (1) 
-40.7948

>  <r_i_glide_energy>  (1) 
-33.1373

>  <r_i_glide_einternal>  (1) 
3.26981

>  <r_i_glide_intrahb_reward>  (1) 
-0

>  <i_i_glide_confnum>  (1) 
2

>  <i_i_glide_posenum>  (1) 
27

>  <r_i_glide_eff_state_penalty>  (1) 
0

>  <ligand_id>  (1) 
0

>  <original_smiles>  (1) 
CC12CCC(O)CC1=CCC1C2CC2(C)C3(Cn4cnnn4)CC3CC3(O)C(O)C1C32O

>  <smiles>  (1) 
[H]OC1([H])C([H])([H])C2=C([H])C([H])([H])C3([H])C4([H])C([H])(O[H])C5(O[H])C([H])([H])C6([H])C([H])([H])C6(C([H])([H])n6nnnc6[H])C(C([H])([H])[H])(C([H])([H])C3([H])C2(C([H])([H])[H])C([H])([H])C1([H])[H])C45O[H]

$$$$
0:0:1
     RDKit          3D

 66 72  0  0  1  0  0  0  0  0999 V2000
    3.4794   -6.3289    6.3255 C   0  0  0  0  0  0  0  0  0  0  0  0
    2.7240   -7.6843    6.4080 C   0  0  2  0  0  0  0  0  0  0  0  0
    1.1898   -7.4042    6.3644 C   0  0  0  0  0  0  0  0  0  0  0  0
    0.5790   -6.8594    7.6658 C   0  0  0  0  0  0  0  0  0  0  0  0
    0.8961   -7.7674    8.8520 C   0  0  1  0  0  0  0  0  0  0  0  0
    0.3117   -9.0430    8.6912 O   0  0  0  0  0  0  0  0  0  0  0  0
    2.4122   -7.8713    9.0155 C   0  0  0  0  0  0  0  0  0  0  0  0
    3.1381   -8.3206    7.7512 C   0  0  0  0  0  0  0  0  0  0  0  0
    4.2163   -9.1161    7.8460 C   0  0  0  0  0  0  0  0  0  0  0  0
    5.1151   -9.4250    6.6819 C   0  0  0  0  0  0  0  0  0  0  0  0
    4.3386   -9.5251    5.3668 C   0  0  1  0  0  0  0  0  0  0  0  0
    3.0757   -8.6210    5.1798 C   0  0  2  0  0  0  0  0  0  0  0  0
    3.0373   -7.8434    3.7850 C   0  0  0  0  0  0  0  0  0  0  0  0
    3.5248   -8.5425    2.4391 C   0  0  1  0  0  0  0  0  0  0  0  0
    2.2567   -9.1314    1.7085 C   0  0  0  0  0  0  0  0  0  0  0  0
    4.1812   -7.4887    1.4674 C   0  0  2  0  0  0  0  0  0  0  0  0
    3.4502   -6.0879    1.3889 C   0  0  0  0  0  0  0  0  0  0  0  0
    4.0737   -5.0117    0.6093 N   0  0  0  0  0  0  0  0  0  0  0  0
    3.5507   -4.1912   -0.3177 C   0  0  0  0  0  0  0  0  0  0  0  0
    4.4709   -3.4146   -0.8566 N   0  0  0  0  0  0  0  0  0  0  0  0
    5.5994   -3.6955   -0.1163 N   0  0  0  0  0  0  0  0  0  0  0  0
    5.3514   -4.5844    0.7831 N   0  0  0  0  0  0  0  0  0  0  0  0
    4.6555   -8.0376    0.1276 C   0  0  0  0  0  0  0  0  0  0  0  0
    5.6756   -7.5666    1.1075 C   0  0  2  0  0  0  0  0  0  0  0  0
    6.6438   -8.5310    1.7480 C   0  0  0  0  0  0  0  0  0  0  0  0
    6.0153   -9.7898    2.2927 C   0  0  1  0  0  0  0  0  0  0  0  0
    6.2964  -10.7703    1.3044 O   0  0  0  0  0  0  0  0  0  0  0  0
    6.4079  -10.2175    3.7277 C   0  0  1  0  0  0  0  0  0  0  0  0
    7.6828   -9.8102    4.1749 O   0  0  0  0  0  0  0  0  0  0  0  0
    5.2355   -9.3545    4.1546 C   0  0  1  0  0  0  0  0  0  0  0  0
    4.5487   -9.6835    2.8254 C   0  0  1  0  0  0  0  0  0  0  0  0
    3.8625  -10.9342    2.8919 O   0  0  0  0  0  0  0  0  0  0  0  0
    3.1177   -5.6860    5.5225 H   0  0  0  0  0  0  0  0  0  0  0  0
    4.5499   -6.4810    6.1747 H   0  0  0  0  0  0  0  0  0  0  0  0
    3.3731   -5.7480    7.2388 H   0  0  0  0  0  0  0  0  0  0  0  0
    0.9612   -6.7084    5.5591 H   0  0  0  0  0  0  0  0  0  0  0  0
    0.6531   -8.3169    6.1170 H   0  0  0  0  0  0  0  0  0  0  0  0
    0.9531   -5.8551    7.8627 H   0  0  0  0  0  0  0  0  0  0  0  0
   -0.5026   -6.7523    7.5607 H   0  0  0  0  0  0  0  0  0  0  0  0
    0.4750   -7.3305    9.7610 H   0  0  0  0  0  0  0  0  0  0  0  0
    0.8059   -9.5338    8.0432 H   0  0  0  0  0  0  0  0  0  0  0  0
    2.8030   -6.8912    9.2936 H   0  0  0  0  0  0  0  0  0  0  0  0
    2.6571   -8.5409    9.8391 H   0  0  0  0  0  0  0  0  0  0  0  0
    4.5441   -9.4851    8.8151 H   0  0  0  0  0  0  0  0  0  0  0  0
    5.8859   -8.6591    6.6401 H   0  0  0  0  0  0  0  0  0  0  0  0
    5.6211  -10.3711    6.8787 H   0  0  0  0  0  0  0  0  0  0  0  0
    3.9959  -10.5497    5.3613 H   0  0  0  0  0  0  0  0  0  0  0  0
    2.2731   -9.3794    5.1506 H   0  0  0  0  0  0  0  0  0  0  0  0
    2.0152   -7.5057    3.6524 H   0  0  0  0  0  0  0  0  0  0  0  0
    3.6799   -6.9632    3.9040 H   0  0  0  0  0  0  0  0  0  0  0  0
    2.5288   -9.7337    0.8346 H   0  0  0  0  0  0  0  0  0  0  0  0
    1.5837   -8.3537    1.3643 H   0  0  0  0  0  0  0  0  0  0  0  0
    1.6621   -9.7825    2.3623 H   0  0  0  0  0  0  0  0  0  0  0  0
    2.4449   -6.2525    1.0105 H   0  0  0  0  0  0  0  0  0  0  0  0
    3.3176   -5.6604    2.3761 H   0  0  0  0  0  0  0  0  0  0  0  0
    2.5137   -4.1485   -0.6273 H   0  0  0  0  0  0  0  0  0  0  0  0
    4.5222   -9.0908   -0.0764 H   0  0  0  0  0  0  0  0  0  0  0  0
    4.5057   -7.3635   -0.7161 H   0  0  0  0  0  0  0  0  0  0  0  0
    6.2195   -6.7117    0.7662 H   0  0  0  0  0  0  0  0  0  0  0  0
    7.4412   -8.7374    1.0371 H   0  0  0  0  0  0  0  0  0  0  0  0
    7.0881   -7.9581    2.5562 H   0  0  0  0  0  0  0  0  0  0  0  0
    5.4340  -11.1945    1.1048 H   0  0  0  0  0  0  0  0  0  0  0  0
    6.2519  -11.2799    3.9360 H   0  0  0  0  0  0  0  0  0  0  0  0
    8.3095  -10.3978    3.7726 H   0  0  0  0  0  0  0  0  0  0  0  0
    5.5941   -8.3267    4.1434 H   0  0  0  0  0  0  0  0  0  0  0  0
    3.8281  -11.2593    1.9840 H   0  0  0  0  0  0  0  0  0  0  0  0
  2  1  1  6
  1 33  1  0
  1 34  1  0
  1 35  1  0
  2  8  1  0
  2 12  1  0
  2  3  1  0
  3  4  1  0
  3 36  1  0
  3 37  1  0
  4  5  1  0
  4 38  1  0
  4 39  1  0
  5  6  1  0
  5  7  1  0
  5 40  1  1
  6 41  1  0
  7  8  1  0
  7 42  1  0
  7 43  1  0
  8  9  2  0
  9 10  1  0
  9 44  1  0
 10 11  1  0
 10 45  1  0
 10 46  1  0
 11 30  1  0
 11 12  1  0
 11 47  1  6
 12 13  1  0
 12 48  1  6
 13 14  1  0
 13 49  1  0
 13 50  1  0
 14 31  1  0
 14 15  1  6
 14 16  1  0
 15 51  1  0
 15 52  1  0
 15 53  1  0
 16 24  1  0
 16 17  1  6
 16 23  1  0
 17 18  1  0
 17 54  1  0
 17 55  1  0
 18 22  1  0
 18 19  1  0
 19 20  2  0
 19 56  1  0
 20 21  1  0
 21 22  2  0
 23 24  1  0
 23 57  1  0
 23 58  1  0
 24 25  1  0
 24 59  1  6
 25 26  1  0
 25 60  1  0
 25 61  1  0
 26 31  1  0
 26 27  1  6
 26 28  1  0
 27 62  1  0
 28 29  1  0
 28 30  1  0
 28 63  1  6
 29 64  1  0
 30 31  1  0
 30 65  1  6
 31 32  1  1
 32 66  1  0
M  END
>  <i_m_ct_stereo_status>  (2) 
1

>  <s_m_source_file>  (2) 
/var/tmp/pbs.5076255.sched01/tmpmzpp47sj/0ood7iq68.sdf

>  <i_m_source_file_index>  (2) 
1

>  <i_lp_mmshare_version>  (2) 
48012

>  <i_f3d_flags>  (2) 
0

>  <s_epik_input>  (2) 
W0NIMl0xW0NIMl1bQ0BASF0oW09IXSlbQ0gyXUMoW0NAXTEyW0NIM10pPVtDSF1bQ0gyXVtDQEhdM1tDQEBIXTJbQ0gyXVtDQEBdNChbQ0gzXSlbQ0BAXTUoW0NIMl1uNltjSF1ubm42KVtDQEhdKFtDSDJdNSlbQ0gyXVtDQF03KFtPSF0pW0NAQF00KFtPSF0pW0NAQEhdM1tDQEBIXTdbT0hd

>  <s_epik_cmdline>  (2) 
J2VwaWtfcHl0aG9uJywgJy1waHQnLCAnMi4wJywgJy1waCcsICc3LjAnLCAnLXRuJywgJzgnLCAnLW1hJywgJzIwMCcsICctaW1hZScsICc8aW5maWxlLm1hZT4nLCAnLW9tYWUnLCAnPG91dGZpbGUubWFlPic=

>  <r_lp_tautomer_probability>  (2) 
1

>  <r_epik_Ionization_Penalty>  (2) 
2.07689e-06

>  <r_epik_Ionization_Penalty_Charging>  (2) 
0

>  <r_epik_Ionization_Penalty_Neutral>  (2) 
2.07689e-06

>  <r_epik_State_Penalty>  (2) 
-0

>  <r_epik_Charging_Adjusted_Penalty>  (2) 
0

>  <i_epik_Tot_Q>  (2) 
0

>  <i_epik_Tot_abs_Q>  (2) 
0

>  <s_lp_Force_Field>  (2) 
OPLS3e

>  <r_lp_Energy>  (2) 
77.6609

>  <b_lp_Chiralities_Consistent>  (2) 
1

>  <s_lp_Variant>  (2) 
0:0-1

>  <s_i_glide_gridfile>  (2) 
pfpi4k_grid

>  <i_i_glide_lignum>  (2) 
1

>  <i_i_glide_rotatable_bonds>  (2) 
6

>  <r_i_docking_score>  (2) 
-2.99221

>  <r_i_glide_ligand_efficiency>  (2) 
-0.0935067

>  <r_i_glide_ligand_efficiency_sa>  (2) 
-0.296865

>  <r_i_glide_ligand_efficiency_ln>  (2) 
-0.670038

>  <r_i_glide_gscore>  (2) 
-2.99221

>  <r_i_glide_lipo>  (2) 
-0.340851

>  <r_i_glide_hbond>  (2) 
0

>  <r_i_glide_metal>  (2) 
-0

>  <r_i_glide_rewards>  (2) 
-0.435376

>  <r_i_glide_evdw>  (2) 
-20.9457

>  <r_i_glide_ecoul>  (2) 
-8.99648

>  <r_i_glide_erotb>  (2) 
0.204076

>  <r_i_glide_esite>  (2) 
-0.023304

>  <r_i_glide_emodel>  (2) 
-31.5296

>  <r_i_glide_energy>  (2) 
-29.9422

>  <r_i_glide_einternal>  (2) 
7.56104

>  <r_i_glide_intrahb_reward>  (2) 
-0

>  <i_i_glide_confnum>  (2) 
2

>  <i_i_glide_posenum>  (2) 
1

>  <r_i_glide_eff_state_penalty>  (2) 
0

>  <ligand_id>  (2) 
0

>  <original_smiles>  (2) 
CC12CCC(O)CC1=CCC1C2CC2(C)C3(Cn4cnnn4)CC3CC3(O)C(O)C1C32O

>  <smiles>  (2) 
[H]OC1([H])C([H])([H])C2=C([H])C([H])([H])C3([H])C4([H])C([H])(O[H])C5(O[H])C([H])([H])C6([H])C([H])([H])C6(C([H])([H])n6nnnc6[H])C(C([H])([H])[H])(C([H])([H])C3([H])C2(C([H])([H])[H])C([H])([H])C1([H])[H])C45O[H]

$$$$
0:0:2
     RDKit          3D

 66 72  0  0  1  0  0  0  0  0999 V2000
   -0.7416   -7.0040    4.3182 C   0  0  0  0  0  0  0  0  0  0  0  0
    0.6860   -7.5775    4.4973 C   0  0  2  0  0  0  0  0  0  0  0  0
    1.4311   -7.4772    3.1291 C   0  0  0  0  0  0  0  0  0  0  0  0
    1.0148   -8.5133    2.0743 C   0  0  0  0  0  0  0  0  0  0  0  0
    1.1201   -9.9371    2.6173 C   0  0  1  0  0  0  0  0  0  0  0  0
    2.4629  -10.2523    2.9248 O   0  0  0  0  0  0  0  0  0  0  0  0
    0.2373  -10.0862    3.8504 C   0  0  0  0  0  0  0  0  0  0  0  0
    0.5020   -9.0457    4.9338 C   0  0  0  0  0  0  0  0  0  0  0  0
    0.4131   -9.3976    6.2200 C   0  0  0  0  0  0  0  0  0  0  0  0
    0.4454   -8.4047    7.3524 C   0  0  0  0  0  0  0  0  0  0  0  0
    1.3685   -7.2163    7.0537 C   0  0  1  0  0  0  0  0  0  0  0  0
    1.5198   -6.7527    5.5661 C   0  0  2  0  0  0  0  0  0  0  0  0
    1.3978   -5.1844    5.3570 C   0  0  0  0  0  0  0  0  0  0  0  0
    2.0143   -4.1543    6.3914 C   0  0  1  0  0  0  0  0  0  0  0  0
    3.4252   -3.7248    5.8777 C   0  0  0  0  0  0  0  0  0  0  0  0
    1.1452   -2.8468    6.4920 C   0  0  2  0  0  0  0  0  0  0  0  0
    0.6061   -2.3302    5.1187 C   0  0  0  0  0  0  0  0  0  0  0  0
   -0.3210   -1.1959    5.1628 N   0  0  0  0  0  0  0  0  0  0  0  0
   -0.1758    0.0888    4.8698 C   0  0  0  0  0  0  0  0  0  0  0  0
   -1.2826    0.7764    5.1233 N   0  0  0  0  0  0  0  0  0  0  0  0
   -2.1811   -0.1872    5.5313 N   0  0  0  0  0  0  0  0  0  0  0  0
   -1.6235   -1.3671    5.5262 N   0  0  0  0  0  0  0  0  0  0  0  0
    1.6569   -1.7616    7.4415 C   0  0  0  0  0  0  0  0  0  0  0  0
    0.3997   -2.4851    7.7863 C   0  0  2  0  0  0  0  0  0  0  0  0
    0.2916   -3.3988    8.9777 C   0  0  0  0  0  0  0  0  0  0  0  0
    1.4491   -4.3815    9.1033 C   0  0  1  0  0  0  0  0  0  0  0  0
    2.3544   -3.8039   10.0192 O   0  0  0  0  0  0  0  0  0  0  0  0
    1.0956   -5.8665    9.4045 C   0  0  1  0  0  0  0  0  0  0  0  0
   -0.1091   -6.1240   10.0962 O   0  0  0  0  0  0  0  0  0  0  0  0
    1.0508   -6.0018    7.8873 C   0  0  1  0  0  0  0  0  0  0  0  0
    2.0899   -4.8838    7.7784 C   0  0  1  0  0  0  0  0  0  0  0  0
    3.4237   -5.3357    7.9778 O   0  0  0  0  0  0  0  0  0  0  0  0
   -0.7375   -6.0357    3.8234 H   0  0  0  0  0  0  0  0  0  0  0  0
   -1.2425   -6.8780    5.2782 H   0  0  0  0  0  0  0  0  0  0  0  0
   -1.3742   -7.6568    3.7180 H   0  0  0  0  0  0  0  0  0  0  0  0
    1.2999   -6.4815    2.7037 H   0  0  0  0  0  0  0  0  0  0  0  0
    2.5064   -7.5859    3.2758 H   0  0  0  0  0  0  0  0  0  0  0  0
   -0.0098   -8.3299    1.7487 H   0  0  0  0  0  0  0  0  0  0  0  0
    1.6407   -8.4116    1.1881 H   0  0  0  0  0  0  0  0  0  0  0  0
    0.7678  -10.6393    1.8644 H   0  0  0  0  0  0  0  0  0  0  0  0
    2.7129   -9.7739    3.7004 H   0  0  0  0  0  0  0  0  0  0  0  0
   -0.7999   -9.9773    3.5352 H   0  0  0  0  0  0  0  0  0  0  0  0
    0.3308  -11.0914    4.2639 H   0  0  0  0  0  0  0  0  0  0  0  0
    0.1905  -10.4206    6.4950 H   0  0  0  0  0  0  0  0  0  0  0  0
   -0.5716   -8.0832    7.5642 H   0  0  0  0  0  0  0  0  0  0  0  0
    0.7893   -8.9122    8.2524 H   0  0  0  0  0  0  0  0  0  0  0  0
    2.3523   -7.5902    7.3504 H   0  0  0  0  0  0  0  0  0  0  0  0
    2.5640   -6.9898    5.3595 H   0  0  0  0  0  0  0  0  0  0  0  0
    1.7886   -4.9479    4.3719 H   0  0  0  0  0  0  0  0  0  0  0  0
    0.3309   -4.9668    5.3377 H   0  0  0  0  0  0  0  0  0  0  0  0
    3.9603   -3.1145    6.6044 H   0  0  0  0  0  0  0  0  0  0  0  0
    3.3703   -3.1413    4.9648 H   0  0  0  0  0  0  0  0  0  0  0  0
    4.0682   -4.5736    5.6559 H   0  0  0  0  0  0  0  0  0  0  0  0
    1.4472   -2.0354    4.4915 H   0  0  0  0  0  0  0  0  0  0  0  0
    0.0781   -3.0969    4.5695 H   0  0  0  0  0  0  0  0  0  0  0  0
    0.7317    0.5318    4.4891 H   0  0  0  0  0  0  0  0  0  0  0  0
    2.5396   -1.9472    8.0559 H   0  0  0  0  0  0  0  0  0  0  0  0
    1.5415   -0.7301    7.1256 H   0  0  0  0  0  0  0  0  0  0  0  0
   -0.4922   -1.8811    7.7147 H   0  0  0  0  0  0  0  0  0  0  0  0
    0.1825   -2.7909    9.8733 H   0  0  0  0  0  0  0  0  0  0  0  0
   -0.6509   -3.9292    8.8656 H   0  0  0  0  0  0  0  0  0  0  0  0
    3.0776   -4.4038   10.0925 H   0  0  0  0  0  0  0  0  0  0  0  0
    1.9065   -6.4412    9.8611 H   0  0  0  0  0  0  0  0  0  0  0  0
    0.0404   -5.8511   10.9900 H   0  0  0  0  0  0  0  0  0  0  0  0
    0.0712   -5.6304    7.5721 H   0  0  0  0  0  0  0  0  0  0  0  0
    3.3959   -5.9895    8.6527 H   0  0  0  0  0  0  0  0  0  0  0  0
  2  1  1  6
  1 33  1  0
  1 34  1  0
  1 35  1  0
  2  8  1  0
  2 12  1  0
  2  3  1  0
  3  4  1  0
  3 36  1  0
  3 37  1  0
  4  5  1  0
  4 38  1  0
  4 39  1  0
  5  6  1  0
  5  7  1  0
  5 40  1  6
  6 41  1  0
  7  8  1  0
  7 42  1  0
  7 43  1  0
  8  9  2  0
  9 10  1  0
  9 44  1  0
 10 11  1  0
 10 45  1  0
 10 46  1  0
 11 30  1  0
 11 12  1  0
 11 47  1  1
 12 13  1  0
 12 48  1  6
 13 14  1  0
 13 49  1  0
 13 50  1  0
 14 31  1  0
 14 15  1  6
 14 16  1  0
 15 51  1  0
 15 52  1  0
 15 53  1  0
 16 24  1  0
 16 17  1  6
 16 23  1  0
 17 18  1  0
 17 54  1  0
 17 55  1  0
 18 22  1  0
 18 19  1  0
 19 20  2  0
 19 56  1  0
 20 21  1  0
 21 22  2  0
 23 24  1  0
 23 57  1  0
 23 58  1  0
 24 25  1  0
 24 59  1  6
 25 26  1  0
 25 60  1  0
 25 61  1  0
 26 31  1  0
 26 27  1  1
 26 28  1  0
 27 62  1  0
 28 29  1  0
 28 30  1  0
 28 63  1  1
 29 64  1  0
 30 31  1  0
 30 65  1  6
 31 32  1  1
 32 66  1  0
M  END
>  <i_m_ct_stereo_status>  (3) 
1

>  <s_m_source_file>  (3) 
/var/tmp/pbs.5076255.sched01/tmpmzpp47sj/0ood7iq68.sdf

>  <i_m_source_file_index>  (3) 
1

>  <i_lp_mmshare_version>  (3) 
48012

>  <i_f3d_flags>  (3) 
0

>  <s_epik_input>  (3) 
W0NIMl0xW0NIMl1bQ0BASF0oW09IXSlbQ0gyXUMoW0NAXTEyW0NIM10pPVtDSF1bQ0gyXVtDQEhdM1tDQEBIXTJbQ0gyXVtDQEBdNChbQ0gzXSlbQ0BAXTUoW0NIMl1uNltjSF1ubm42KVtDQEhdKFtDSDJdNSlbQ0gyXVtDQF03KFtPSF0pW0NAQF00KFtPSF0pW0NAQEhdM1tDQEBIXTdbT0hd

>  <s_epik_cmdline>  (3) 
J2VwaWtfcHl0aG9uJywgJy1waHQnLCAnMi4wJywgJy1waCcsICc3LjAnLCAnLXRuJywgJzgnLCAnLW1hJywgJzIwMCcsICctaW1hZScsICc8aW5maWxlLm1hZT4nLCAnLW9tYWUnLCAnPG91dGZpbGUubWFlPic=

>  <r_lp_tautomer_probability>  (3) 
1

>  <r_epik_Ionization_Penalty>  (3) 
2.07689e-06

>  <r_epik_Ionization_Penalty_Charging>  (3) 
0

>  <r_epik_Ionization_Penalty_Neutral>  (3) 
2.07689e-06

>  <r_epik_State_Penalty>  (3) 
-0

>  <r_epik_Charging_Adjusted_Penalty>  (3) 
0

>  <i_epik_Tot_Q>  (3) 
0

>  <i_epik_Tot_abs_Q>  (3) 
0

>  <s_lp_Force_Field>  (3) 
OPLS3e

>  <r_lp_Energy>  (3) 
77.6609

>  <b_lp_Chiralities_Consistent>  (3) 
1

>  <s_lp_Variant>  (3) 
0:0-1

>  <s_i_glide_gridfile>  (3) 
pfpi4k_grid

>  <i_i_glide_lignum>  (3) 
1

>  <i_i_glide_rotatable_bonds>  (3) 
6

>  <r_i_docking_score>  (3) 
-2.29972

>  <r_i_glide_ligand_efficiency>  (3) 
-0.0718661

>  <r_i_glide_ligand_efficiency_sa>  (3) 
-0.228161

>  <r_i_glide_ligand_efficiency_ln>  (3) 
-0.514969

>  <r_i_glide_gscore>  (3) 
-2.29972

>  <r_i_glide_lipo>  (3) 
-0.134872

>  <r_i_glide_hbond>  (3) 
0

>  <r_i_glide_metal>  (3) 
-0

>  <r_i_glide_rewards>  (3) 
-0.391697

>  <r_i_glide_evdw>  (3) 
-20.8205

>  <r_i_glide_ecoul>  (3) 
-4.95659

>  <r_i_glide_erotb>  (3) 
0.204076

>  <r_i_glide_esite>  (3) 
-0.192709

>  <r_i_glide_emodel>  (3) 
-27.8529

>  <r_i_glide_energy>  (3) 
-25.7771

>  <r_i_glide_einternal>  (3) 
5.78546

>  <r_i_glide_intrahb_reward>  (3) 
-0

>  <i_i_glide_confnum>  (3) 
2

>  <i_i_glide_posenum>  (3) 
9

>  <r_i_glide_eff_state_penalty>  (3) 
0

>  <ligand_id>  (3) 
0

>  <original_smiles>  (3) 
CC12CCC(O)CC1=CCC1C2CC2(C)C3(Cn4cnnn4)CC3CC3(O)C(O)C1C32O

>  <smiles>  (3) 
[H]OC1([H])C([H])([H])C2=C([H])C([H])([H])C3([H])C4([H])C([H])(O[H])C5(O[H])C([H])([H])C6([H])C([H])([H])C6(C([H])([H])n6nnnc6[H])C(C([H])([H])[H])(C([H])([H])C3([H])C2(C([H])([H])[H])C([H])([H])C1([H])[H])C45O[H]

$$$$
1:0:0
     RDKit          3D

 22 23  0  0  1  0  0  0  0  0999 V2000
    1.3565   -7.0490    0.9165 O   0  0  0  0  0  0  0  0  0  0  0  0
    0.5059   -6.9470    1.8263 C   0  0  0  0  0  0  0  0  0  0  0  0
   -0.5227   -6.2638    1.6833 O   0  0  0  0  0  0  0  0  0  0  0  0
    0.7372   -7.6368    3.1404 C   0  0  0  0  0  0  0  0  0  0  0  0
    1.2536   -8.9468    3.1716 C   0  0  0  0  0  0  0  0  0  0  0  0
    1.4425   -9.5964    4.4059 C   0  0  0  0  0  0  0  0  0  0  0  0
    1.1363   -8.9363    5.6144 C   0  0  0  0  0  0  0  0  0  0  0  0
    0.6249   -7.6138    5.5933 C   0  0  0  0  0  0  0  0  0  0  0  0
    0.3258   -6.9270    6.8036 N   0  0  0  0  0  0  0  0  0  0  0  0
   -0.0243   -5.5959    6.9641 C   0  0  0  0  0  0  0  0  0  0  0  0
   -0.2071   -5.4767    8.3124 C   0  0  0  0  0  0  0  0  0  0  0  0
   -0.6155   -4.2280    9.0306 C   0  0  0  0  0  0  0  0  0  0  0  0
   -0.9913   -4.2992   10.2200 O   0  0  0  0  0  0  0  0  0  0  0  0
   -0.5884   -3.1199    8.4379 O   0  0  0  0  0  0  0  0  0  0  0  0
    0.0339   -6.7192    8.9107 N   0  0  0  0  0  0  0  0  0  0  0  0
    0.3609   -7.5751    8.0006 N   0  0  0  0  0  0  0  0  0  0  0  0
    0.4200   -6.9745    4.3462 C   0  0  0  0  0  0  0  0  0  0  0  0
    1.4738   -9.4583    2.2414 H   0  0  0  0  0  0  0  0  0  0  0  0
    1.8198  -10.6076    4.4291 H   0  0  0  0  0  0  0  0  0  0  0  0
    1.3029   -9.4608    6.5466 H   0  0  0  0  0  0  0  0  0  0  0  0
   -0.1227   -4.8648    6.1764 H   0  0  0  0  0  0  0  0  0  0  0  0
    0.0359   -5.9635    4.2883 H   0  0  0  0  0  0  0  0  0  0  0  0
  1  2  2  0
  2  3  1  0
  2  4  1  0
  4 17  2  0
  4  5  1  0
  5  6  2  0
  5 18  1  0
  6  7  1  0
  6 19  1  0
  7  8  2  0
  7 20  1  0
  8  9  1  0
  8 17  1  0
  9 16  1  0
  9 10  1  0
 10 11  2  0
 10 21  1  0
 11 12  1  0
 11 15  1  0
 12 13  2  0
 12 14  1  0
 15 16  2  0
 17 22  1  0
M  CHG  2   3  -1  14  -1
M  END
>  <i_m_ct_stereo_status>  (4) 
1

>  <s_m_source_file>  (4) 
/var/tmp/pbs.5076255.sched01/tmpmzpp47sj/0ood7iq68.sdf

>  <i_m_source_file_index>  (4) 
2

>  <i_lp_mmshare_version>  (4) 
48012

>  <i_f3d_flags>  (4) 
0

>  <s_epik_input>  (4) 
Tz1DKFtPSF0pYzFbY0hdW2NIXVtjSF1jKFtjSF0xKS1uMltjSF1jKG5uMilDKD1PKVtPSF0=

>  <s_epik_cmdline>  (4) 
J2VwaWtfcHl0aG9uJywgJy1waHQnLCAnMi4wJywgJy1waCcsICc3LjAnLCAnLXRuJywgJzgnLCAnLW1hJywgJzIwMCcsICctaW1hZScsICc8aW5maWxlLm1hZT4nLCAnLW9tYWUnLCAnPG91dGZpbGUubWFlPic=

>  <r_lp_tautomer_probability>  (4) 
1

>  <r_epik_Ionization_Penalty>  (4) 
0.000384451

>  <r_epik_Ionization_Penalty_Charging>  (4) 
0.000384379

>  <r_epik_Ionization_Penalty_Neutral>  (4) 
7.25161e-08

>  <r_epik_State_Penalty>  (4) 
-0

>  <r_epik_Charging_Adjusted_Penalty>  (4) 
0.000384379

>  <i_epik_Tot_Q>  (4) 
-2

>  <i_epik_Tot_abs_Q>  (4) 
2

>  <s_lp_Force_Field>  (4) 
OPLS3e

>  <r_lp_Energy>  (4) 
30.2947

>  <b_lp_Chiralities_Consistent>  (4) 
1

>  <s_lp_Variant>  (4) 
1:0-1

>  <s_i_glide_gridfile>  (4) 
pfpi4k_grid

>  <i_i_glide_lignum>  (4) 
2

>  <i_i_glide_rotatable_bonds>  (4) 
3

>  <r_i_docking_score>  (4) 
-4.41183

>  <r_i_glide_ligand_efficiency>  (4) 
-0.259519

>  <r_i_glide_ligand_efficiency_sa>  (4) 
-0.667297

>  <r_i_glide_ligand_efficiency_ln>  (4) 
-1.15095

>  <r_i_glide_gscore>  (4) 
-4.41183

>  <r_i_glide_lipo>  (4) 
-0.0217768

>  <r_i_glide_hbond>  (4) 
-0.519198

>  <r_i_glide_metal>  (4) 
-0

>  <r_i_glide_rewards>  (4) 
-1.83297

>  <r_i_glide_evdw>  (4) 
-12.0649

>  <r_i_glide_ecoul>  (4) 
-10.4485

>  <r_i_glide_erotb>  (4) 
0.320038

>  <r_i_glide_esite>  (4) 
-0.187395

>  <r_i_glide_emodel>  (4) 
-32.4923

>  <r_i_glide_energy>  (4) 
-22.5135

>  <r_i_glide_einternal>  (4) 
3.04466

>  <r_i_glide_intrahb_reward>  (4) 
-0

>  <i_i_glide_confnum>  (4) 
4

>  <i_i_glide_posenum>  (4) 
4

>  <r_i_glide_eff_state_penalty>  (4) 
0

>  <ligand_id>  (4) 
1

>  <original_smiles>  (4) 
O=C(O)c1cccc(-n2cc(C(=O)O)nn2)c1

>  <smiles>  (4) 
[H]c1c([H])c(C(=O)[O-])c([H])c(-n2nnc(C(=O)[O-])c2[H])c1[H]

$$$$
1:0:1
     RDKit          3D

 22 23  0  0  1  0  0  0  0  0999 V2000
    2.6162   -6.6186    1.0552 O   0  0  0  0  0  0  0  0  0  0  0  0
    1.3954   -6.6371    1.2984 C   0  0  0  0  0  0  0  0  0  0  0  0
    0.5131   -6.2557    0.4967 O   0  0  0  0  0  0  0  0  0  0  0  0
    0.9516   -7.1012    2.6425 C   0  0  0  0  0  0  0  0  0  0  0  0
    0.8012   -8.4783    2.8970 C   0  0  0  0  0  0  0  0  0  0  0  0
    0.3714   -8.9096    4.1650 C   0  0  0  0  0  0  0  0  0  0  0  0
    0.0996   -7.9690    5.1771 C   0  0  0  0  0  0  0  0  0  0  0  0
    0.2495   -6.5826    4.9293 C   0  0  0  0  0  0  0  0  0  0  0  0
   -0.0255   -5.6412    5.9545 N   0  0  0  0  0  0  0  0  0  0  0  0
   -0.1628   -5.8602    7.3151 C   0  0  0  0  0  0  0  0  0  0  0  0
   -0.4282   -4.6248    7.8300 C   0  0  0  0  0  0  0  0  0  0  0  0
   -0.6626   -4.3049    9.2670 C   0  0  0  0  0  0  0  0  0  0  0  0
   -0.5719   -5.2267   10.1084 O   0  0  0  0  0  0  0  0  0  0  0  0
   -0.9644   -3.1267    9.5831 O   0  0  0  0  0  0  0  0  0  0  0  0
   -0.4474   -3.7027    6.7827 N   0  0  0  0  0  0  0  0  0  0  0  0
   -0.1820   -4.3202    5.6741 N   0  0  0  0  0  0  0  0  0  0  0  0
    0.6777   -6.1558    3.6498 C   0  0  0  0  0  0  0  0  0  0  0  0
    1.0097   -9.1921    2.1124 H   0  0  0  0  0  0  0  0  0  0  0  0
    0.2452   -9.9634    4.3620 H   0  0  0  0  0  0  0  0  0  0  0  0
   -0.2254   -8.3374    6.1388 H   0  0  0  0  0  0  0  0  0  0  0  0
   -0.0659   -6.8168    7.8067 H   0  0  0  0  0  0  0  0  0  0  0  0
    0.8172   -5.1040    3.4259 H   0  0  0  0  0  0  0  0  0  0  0  0
  1  2  2  0
  2  3  1  0
  2  4  1  0
  4 17  2  0
  4  5  1  0
  5  6  2  0
  5 18  1  0
  6  7  1  0
  6 19  1  0
  7  8  2  0
  7 20  1  0
  8  9  1  0
  8 17  1  0
  9 16  1  0
  9 10  1  0
 10 11  2  0
 10 21  1  0
 11 12  1  0
 11 15  1  0
 12 13  2  0
 12 14  1  0
 15 16  2  0
 17 22  1  0
M  CHG  2   3  -1  14  -1
M  END
>  <i_m_ct_stereo_status>  (5) 
1

>  <s_m_source_file>  (5) 
/var/tmp/pbs.5076255.sched01/tmpmzpp47sj/0ood7iq68.sdf

>  <i_m_source_file_index>  (5) 
2

>  <i_lp_mmshare_version>  (5) 
48012

>  <i_f3d_flags>  (5) 
0

>  <s_epik_input>  (5) 
Tz1DKFtPSF0pYzFbY0hdW2NIXVtjSF1jKFtjSF0xKS1uMltjSF1jKG5uMilDKD1PKVtPSF0=

>  <s_epik_cmdline>  (5) 
J2VwaWtfcHl0aG9uJywgJy1waHQnLCAnMi4wJywgJy1waCcsICc3LjAnLCAnLXRuJywgJzgnLCAnLW1hJywgJzIwMCcsICctaW1hZScsICc8aW5maWxlLm1hZT4nLCAnLW9tYWUnLCAnPG91dGZpbGUubWFlPic=

>  <r_lp_tautomer_probability>  (5) 
1

>  <r_epik_Ionization_Penalty>  (5) 
0.000384451

>  <r_epik_Ionization_Penalty_Charging>  (5) 
0.000384379

>  <r_epik_Ionization_Penalty_Neutral>  (5) 
7.25161e-08

>  <r_epik_State_Penalty>  (5) 
-0

>  <r_epik_Charging_Adjusted_Penalty>  (5) 
0.000384379

>  <i_epik_Tot_Q>  (5) 
-2

>  <i_epik_Tot_abs_Q>  (5) 
2

>  <s_lp_Force_Field>  (5) 
OPLS3e

>  <r_lp_Energy>  (5) 
30.2947

>  <b_lp_Chiralities_Consistent>  (5) 
1

>  <s_lp_Variant>  (5) 
1:0-1

>  <s_i_glide_gridfile>  (5) 
pfpi4k_grid

>  <i_i_glide_lignum>  (5) 
2

>  <i_i_glide_rotatable_bonds>  (5) 
3

>  <r_i_docking_score>  (5) 
-4.08756

>  <r_i_glide_ligand_efficiency>  (5) 
-0.240445

>  <r_i_glide_ligand_efficiency_sa>  (5) 
-0.618251

>  <r_i_glide_ligand_efficiency_ln>  (5) 
-1.06635

>  <r_i_glide_gscore>  (5) 
-4.08756

>  <r_i_glide_lipo>  (5) 
-0.00818631

>  <r_i_glide_hbond>  (5) 
-0.480223

>  <r_i_glide_metal>  (5) 
-0

>  <r_i_glide_rewards>  (5) 
-1.83297

>  <r_i_glide_evdw>  (5) 
-14.6731

>  <r_i_glide_ecoul>  (5) 
-8.25318

>  <r_i_glide_erotb>  (5) 
0.320038

>  <r_i_glide_esite>  (5) 
-0.114586

>  <r_i_glide_emodel>  (5) 
-30.8164

>  <r_i_glide_energy>  (5) 
-22.9263

>  <r_i_glide_einternal>  (5) 
6.68081

>  <r_i_glide_intrahb_reward>  (5) 
-0

>  <i_i_glide_confnum>  (5) 
5

>  <i_i_glide_posenum>  (5) 
39

>  <r_i_glide_eff_state_penalty>  (5) 
0

>  <ligand_id>  (5) 
1

>  <original_smiles>  (5) 
O=C(O)c1cccc(-n2cc(C(=O)O)nn2)c1

>  <smiles>  (5) 
[H]c1c([H])c(C(=O)[O-])c([H])c(-n2nnc(C(=O)[O-])c2[H])c1[H]

$$$$
1:0:2
     RDKit          3D

 22 23  0  0  1  0  0  0  0  0999 V2000
    0.1727   -6.2563    0.6190 O   0  0  0  0  0  0  0  0  0  0  0  0
    1.1071   -6.6718    1.3304 C   0  0  0  0  0  0  0  0  0  0  0  0
    2.3090   -6.5967    0.9977 O   0  0  0  0  0  0  0  0  0  0  0  0
    0.7709   -7.2585    2.6603 C   0  0  0  0  0  0  0  0  0  0  0  0
    0.5864   -8.6484    2.7939 C   0  0  0  0  0  0  0  0  0  0  0  0
    0.2748   -9.1979    4.0519 C   0  0  0  0  0  0  0  0  0  0  0  0
    0.1522   -8.3644    5.1787 C   0  0  0  0  0  0  0  0  0  0  0  0
    0.3386   -6.9660    5.0512 C   0  0  0  0  0  0  0  0  0  0  0  0
    0.2145   -6.1120    6.1807 N   0  0  0  0  0  0  0  0  0  0  0  0
    0.0732   -4.7356    6.1979 C   0  0  0  0  0  0  0  0  0  0  0  0
   -0.0050   -4.4296    7.5280 C   0  0  0  0  0  0  0  0  0  0  0  0
   -0.1859   -3.0544    8.0904 C   0  0  0  0  0  0  0  0  0  0  0  0
   -0.1919   -2.0654    7.3187 O   0  0  0  0  0  0  0  0  0  0  0  0
   -0.4367   -2.9046    9.3072 O   0  0  0  0  0  0  0  0  0  0  0  0
    0.0654   -5.6181    8.2595 N   0  0  0  0  0  0  0  0  0  0  0  0
    0.2124   -6.6138    7.4439 N   0  0  0  0  0  0  0  0  0  0  0  0
    0.6447   -6.4190    3.7817 C   0  0  0  0  0  0  0  0  0  0  0  0
    0.6869   -9.2878    1.9292 H   0  0  0  0  0  0  0  0  0  0  0  0
    0.1256  -10.2607    4.1558 H   0  0  0  0  0  0  0  0  0  0  0  0
   -0.0910   -8.8147    6.1313 H   0  0  0  0  0  0  0  0  0  0  0  0
    0.0299   -4.0953    5.3340 H   0  0  0  0  0  0  0  0  0  0  0  0
    0.8065   -5.3554    3.6538 H   0  0  0  0  0  0  0  0  0  0  0  0
  1  2  2  0
  2  3  1  0
  2  4  1  0
  4 17  2  0
  4  5  1  0
  5  6  2  0
  5 18  1  0
  6  7  1  0
  6 19  1  0
  7  8  2  0
  7 20  1  0
  8  9  1  0
  8 17  1  0
  9 16  1  0
  9 10  1  0
 10 11  2  0
 10 21  1  0
 11 12  1  0
 11 15  1  0
 12 13  2  0
 12 14  1  0
 15 16  2  0
 17 22  1  0
M  CHG  2   3  -1  14  -1
M  END
>  <i_m_ct_stereo_status>  (6) 
1

>  <s_m_source_file>  (6) 
/var/tmp/pbs.5076255.sched01/tmpmzpp47sj/0ood7iq68.sdf

>  <i_m_source_file_index>  (6) 
2

>  <i_lp_mmshare_version>  (6) 
48012

>  <i_f3d_flags>  (6) 
0

>  <s_epik_input>  (6) 
Tz1DKFtPSF0pYzFbY0hdW2NIXVtjSF1jKFtjSF0xKS1uMltjSF1jKG5uMilDKD1PKVtPSF0=

>  <s_epik_cmdline>  (6) 
J2VwaWtfcHl0aG9uJywgJy1waHQnLCAnMi4wJywgJy1waCcsICc3LjAnLCAnLXRuJywgJzgnLCAnLW1hJywgJzIwMCcsICctaW1hZScsICc8aW5maWxlLm1hZT4nLCAnLW9tYWUnLCAnPG91dGZpbGUubWFlPic=

>  <r_lp_tautomer_probability>  (6) 
1

>  <r_epik_Ionization_Penalty>  (6) 
0.000384451

>  <r_epik_Ionization_Penalty_Charging>  (6) 
0.000384379

>  <r_epik_Ionization_Penalty_Neutral>  (6) 
7.25161e-08

>  <r_epik_State_Penalty>  (6) 
-0

>  <r_epik_Charging_Adjusted_Penalty>  (6) 
0.000384379

>  <i_epik_Tot_Q>  (6) 
-2

>  <i_epik_Tot_abs_Q>  (6) 
2

>  <s_lp_Force_Field>  (6) 
OPLS3e

>  <r_lp_Energy>  (6) 
30.2947

>  <b_lp_Chiralities_Consistent>  (6) 
1

>  <s_lp_Variant>  (6) 
1:0-1

>  <s_i_glide_gridfile>  (6) 
pfpi4k_grid

>  <i_i_glide_lignum>  (6) 
2

>  <i_i_glide_rotatable_bonds>  (6) 
3

>  <r_i_docking_score>  (6) 
-4.0311

>  <r_i_glide_ligand_efficiency>  (6) 
-0.237123

>  <r_i_glide_ligand_efficiency_sa>  (6) 
-0.609711

>  <r_i_glide_ligand_efficiency_ln>  (6) 
-1.05162

>  <r_i_glide_gscore>  (6) 
-4.0311

>  <r_i_glide_lipo>  (6) 
0

>  <r_i_glide_hbond>  (6) 
-0.433114

>  <r_i_glide_metal>  (6) 
-0

>  <r_i_glide_rewards>  (6) 
-1.83297

>  <r_i_glide_evdw>  (6) 
-13.7387

>  <r_i_glide_ecoul>  (6) 
-8.30473

>  <r_i_glide_erotb>  (6) 
0.320038

>  <r_i_glide_esite>  (6) 
-0.152407

>  <r_i_glide_emodel>  (6) 
-29.8111

>  <r_i_glide_energy>  (6) 
-22.0434

>  <r_i_glide_einternal>  (6) 
6.79976

>  <r_i_glide_intrahb_reward>  (6) 
-0

>  <i_i_glide_confnum>  (6) 
4

>  <i_i_glide_posenum>  (6) 
14

>  <r_i_glide_eff_state_penalty>  (6) 
0

>  <ligand_id>  (6) 
1

>  <original_smiles>  (6) 
O=C(O)c1cccc(-n2cc(C(=O)O)nn2)c1

>  <smiles>  (6) 
[H]c1c([H])c(C(=O)[O-])c([H])c(-n2nnc(C(=O)[O-])c2[H])c1[H]

$$$$
2:0:0
     RDKit          3D

 52 55  0  0  1  0  0  0  0  0999 V2000
    4.1640   -1.2435    3.2627 C   0  0  0  0  0  0  0  0  0  0  0  0
    4.1746   -1.8656    2.0749 C   0  0  0  0  0  0  0  0  0  0  0  0
    3.4983   -3.1901    1.8030 C   0  0  2  0  0  0  0  0  0  0  0  0
    4.4048   -4.4570    1.9241 C   0  0  2  0  0  0  0  0  0  0  0  0
    3.6424   -5.6889    1.4056 C   0  0  2  0  0  0  0  0  0  0  0  0
    2.7207   -5.4147    0.2277 C   0  0  0  0  0  0  0  0  0  0  0  0
    2.4705   -4.2121   -0.3061 C   0  0  0  0  0  0  0  0  0  0  0  0
    1.5383   -4.0440   -1.5080 C   0  0  0  0  0  0  0  0  0  0  0  0
    3.0233   -2.9675    0.3485 C   0  0  2  0  0  0  0  0  0  0  0  0
    4.1262   -2.1334   -0.3908 C   0  0  2  0  0  0  0  0  0  0  0  0
    3.5459   -1.3115   -1.5516 C   0  0  0  0  0  0  0  0  0  0  0  0
    5.3313   -2.9325   -0.9403 C   0  0  0  0  0  0  0  0  0  0  0  0
    5.0930   -3.8842   -2.0905 C   0  0  0  0  0  0  0  0  0  0  0  0
    6.5895   -2.7827   -0.4767 C   0  0  0  0  0  0  0  0  0  0  0  0
    6.9751   -1.8193    0.6117 C   0  0  0  0  0  0  0  0  0  0  0  0
    5.9728   -0.6731    0.7054 C   0  0  0  0  0  0  0  0  0  0  0  0
    4.5313   -1.1756    0.7675 C   0  0  2  0  0  0  0  0  0  0  0  0
    2.9018   -6.2605    2.6223 C   0  0  0  0  0  0  0  0  0  0  0  0
    3.7377   -5.8606    3.8461 C   0  0  0  0  0  0  0  0  0  0  0  0
    4.8631   -4.9463    3.3274 C   0  0  1  0  0  0  0  0  0  0  0  0
    6.2010   -5.7046    3.2348 C   0  0  0  0  0  0  0  0  0  0  0  0
    5.0782   -3.9096    4.2522 O   0  0  0  0  0  0  0  0  0  0  0  0
    4.5484   -0.2371    3.3758 H   0  0  0  0  0  0  0  0  0  0  0  0
    3.7601   -1.7353    4.1425 H   0  0  0  0  0  0  0  0  0  0  0  0
    2.6360   -3.2969    2.4655 H   0  0  0  0  0  0  0  0  0  0  0  0
    5.2834   -4.3019    1.3074 H   0  0  0  0  0  0  0  0  0  0  0  0
    4.3687   -6.4325    1.0760 H   0  0  0  0  0  0  0  0  0  0  0  0
    2.2717   -6.2540   -0.2460 H   0  0  0  0  0  0  0  0  0  0  0  0
    0.7813   -3.2806   -1.3784 H   0  0  0  0  0  0  0  0  0  0  0  0
    1.0168   -4.9828   -1.6995 H   0  0  0  0  0  0  0  0  0  0  0  0
    2.1027   -3.8240   -2.4095 H   0  0  0  0  0  0  0  0  0  0  0  0
    2.1533   -2.3197    0.4562 H   0  0  0  0  0  0  0  0  0  0  0  0
    2.7088   -0.7283   -1.2008 H   0  0  0  0  0  0  0  0  0  0  0  0
    3.1630   -1.9108   -2.3736 H   0  0  0  0  0  0  0  0  0  0  0  0
    4.2755   -0.6154   -1.9567 H   0  0  0  0  0  0  0  0  0  0  0  0
    4.5128   -3.4529   -2.9018 H   0  0  0  0  0  0  0  0  0  0  0  0
    4.6162   -4.7922   -1.7368 H   0  0  0  0  0  0  0  0  0  0  0  0
    6.0428   -4.1891   -2.5258 H   0  0  0  0  0  0  0  0  0  0  0  0
    7.3977   -3.3813   -0.8775 H   0  0  0  0  0  0  0  0  0  0  0  0
    7.0041   -2.3692    1.5533 H   0  0  0  0  0  0  0  0  0  0  0  0
    7.9700   -1.4252    0.4047 H   0  0  0  0  0  0  0  0  0  0  0  0
    6.2003   -0.0518    1.5678 H   0  0  0  0  0  0  0  0  0  0  0  0
    6.0768   -0.0400   -0.1734 H   0  0  0  0  0  0  0  0  0  0  0  0
    3.8780   -0.3033    0.7453 H   0  0  0  0  0  0  0  0  0  0  0  0
    1.9040   -5.8231    2.7080 H   0  0  0  0  0  0  0  0  0  0  0  0
    2.7792   -7.3431    2.5571 H   0  0  0  0  0  0  0  0  0  0  0  0
    3.1007   -5.3393    4.5625 H   0  0  0  0  0  0  0  0  0  0  0  0
    4.1430   -6.7351    4.3614 H   0  0  0  0  0  0  0  0  0  0  0  0
    6.1360   -6.5792    2.5889 H   0  0  0  0  0  0  0  0  0  0  0  0
    6.5315   -6.0471    4.2162 H   0  0  0  0  0  0  0  0  0  0  0  0
    6.9901   -5.0663    2.8338 H   0  0  0  0  0  0  0  0  0  0  0  0
    5.3678   -4.2941    5.0658 H   0  0  0  0  0  0  0  0  0  0  0  0
  1  2  2  0
  1 23  1  0
  1 24  1  0
  2 17  1  0
  2  3  1  0
  3  9  1  0
  3  4  1  0
  3 25  1  1
  4 20  1  0
  4  5  1  0
  4 26  1  6
  5  6  1  0
  5 18  1  0
  5 27  1  6
  6  7  2  0
  6 28  1  0
  7  8  1  0
  7  9  1  0
  8 29  1  0
  8 30  1  0
  8 31  1  0
  9 10  1  0
  9 32  1  1
 10 17  1  0
 10 11  1  6
 10 12  1  0
 11 33  1  0
 11 34  1  0
 11 35  1  0
 12 13  1  0
 12 14  2  0
 13 36  1  0
 13 37  1  0
 13 38  1  0
 14 15  1  0
 14 39  1  0
 15 16  1  0
 15 40  1  0
 15 41  1  0
 16 17  1  0
 16 42  1  0
 16 43  1  0
 17 44  1  6
 18 19  1  0
 18 45  1  0
 18 46  1  0
 19 20  1  0
 19 47  1  0
 19 48  1  0
 20 21  1  0
 20 22  1  1
 21 49  1  0
 21 50  1  0
 21 51  1  0
 22 52  1  0
M  END
>  <i_m_ct_stereo_status>  (7) 
1

>  <s_m_source_file>  (7) 
/var/tmp/pbs.5076255.sched01/tmpmzpp47sj/0ood7iq68.sdf

>  <i_m_source_file_index>  (7) 
3

>  <i_lp_mmshare_version>  (7) 
48012

>  <i_f3d_flags>  (7) 
0

>  <s_epik_input>  (7) 
W0NIM11DMT1bQ0hdW0NIMl1bQ0gyXVtDQEBIXTJDKD1bQ0gyXSlbQ0BASF0oW0NASF0zW0NAXTEyW0NIM10pW0NAQEhdNFtDQEhdKFtDSF09QzNbQ0gzXSlbQ0gyXVtDSDJdW0NAXTQoW0NIM10pW09IXQ==

>  <s_epik_cmdline>  (7) 
J2VwaWtfcHl0aG9uJywgJy1waHQnLCAnMi4wJywgJy1waCcsICc3LjAnLCAnLXRuJywgJzgnLCAnLW1hJywgJzIwMCcsICctaW1hZScsICc8aW5maWxlLm1hZT4nLCAnLW9tYWUnLCAnPG91dGZpbGUubWFlPic=

>  <r_lp_tautomer_probability>  (7) 
1

>  <r_epik_Ionization_Penalty>  (7) 
8.91188e-07

>  <r_epik_Ionization_Penalty_Charging>  (7) 
0

>  <r_epik_Ionization_Penalty_Neutral>  (7) 
8.91188e-07

>  <r_epik_State_Penalty>  (7) 
-0

>  <r_epik_Charging_Adjusted_Penalty>  (7) 
0

>  <i_epik_Tot_Q>  (7) 
0

>  <i_epik_Tot_abs_Q>  (7) 
0

>  <s_lp_Force_Field>  (7) 
OPLS3e

>  <r_lp_Energy>  (7) 
28.2063

>  <b_lp_Chiralities_Consistent>  (7) 
1

>  <s_lp_Variant>  (7) 
2:0-1

>  <s_i_glide_gridfile>  (7) 
pfpi4k_grid

>  <i_i_glide_lignum>  (7) 
3

>  <i_i_glide_rotatable_bonds>  (7) 
1

>  <r_i_docking_score>  (7) 
-2.38031

>  <r_i_glide_ligand_efficiency>  (7) 
-0.108196

>  <r_i_glide_ligand_efficiency_sa>  (7) 
-0.30317

>  <r_i_glide_ligand_efficiency_ln>  (7) 
-0.581835

>  <r_i_glide_gscore>  (7) 
-2.38031

>  <r_i_glide_lipo>  (7) 
-0.221003

>  <r_i_glide_hbond>  (7) 
0

>  <r_i_glide_metal>  (7) 
-0

>  <r_i_glide_rewards>  (7) 
-1.37412

>  <r_i_glide_evdw>  (7) 
-15.2804

>  <r_i_glide_ecoul>  (7) 
-0.141127

>  <r_i_glide_erotb>  (7) 
0

>  <r_i_glide_esite>  (7) 
0

>  <r_i_glide_emodel>  (7) 
-17.0198

>  <r_i_glide_energy>  (7) 
-15.4215

>  <r_i_glide_einternal>  (7) 
0.0112853

>  <r_i_glide_intrahb_reward>  (7) 
-0

>  <i_i_glide_confnum>  (7) 
2

>  <i_i_glide_posenum>  (7) 
39

>  <r_i_glide_eff_state_penalty>  (7) 
0

>  <ligand_id>  (7) 
2

>  <original_smiles>  (7) 
C=C1C2C3C(C=C(C)C2C2(C)C(C)=CCCC12)CCC3(C)O

>  <smiles>  (7) 
[H]OC1(C([H])([H])[H])C([H])([H])C([H])([H])C2([H])C([H])=C(C([H])([H])[H])C3([H])C([H])(C(=C([H])[H])C4([H])C([H])([H])C([H])([H])C([H])=C(C([H])([H])[H])C43C([H])([H])[H])C21[H]

$$$$
2:0:1
     RDKit          3D

 52 55  0  0  1  0  0  0  0  0999 V2000
    4.1132   -1.1172    3.2689 C   0  0  0  0  0  0  0  0  0  0  0  0
    4.1105   -1.8010    2.1123 C   0  0  0  0  0  0  0  0  0  0  0  0
    3.4058   -3.1229    1.8898 C   0  0  2  0  0  0  0  0  0  0  0  0
    4.2732   -4.4093    2.0832 C   0  0  2  0  0  0  0  0  0  0  0  0
    3.4793   -5.6498    1.6274 C   0  0  2  0  0  0  0  0  0  0  0  0
    2.5822   -5.4271    0.4249 C   0  0  0  0  0  0  0  0  0  0  0  0
    2.3785   -4.2413   -0.1780 C   0  0  0  0  0  0  0  0  0  0  0  0
    1.4696   -4.1039   -1.3963 C   0  0  0  0  0  0  0  0  0  0  0  0
    2.9463   -2.9616    0.4173 C   0  0  2  0  0  0  0  0  0  0  0  0
    4.0686   -2.1778   -0.3376 C   0  0  2  0  0  0  0  0  0  0  0  0
    3.5366   -1.3714   -1.5423 C   0  0  0  0  0  0  0  0  0  0  0  0
    5.2569   -3.0259   -0.8398 C   0  0  0  0  0  0  0  0  0  0  0  0
    4.9894   -4.0210   -1.9370 C   0  0  0  0  0  0  0  0  0  0  0  0
    6.5120   -2.9012   -0.3723 C   0  0  0  0  0  0  0  0  0  0  0  0
    6.9322   -1.9021    0.6712 C   0  0  0  0  0  0  0  0  0  0  0  0
    5.9601   -0.7271    0.7009 C   0  0  0  0  0  0  0  0  0  0  0  0
    4.5015   -1.1861    0.7805 C   0  0  2  0  0  0  0  0  0  0  0  0
    2.7124   -6.1274    2.8638 C   0  0  0  0  0  0  0  0  0  0  0  0
    3.5545   -5.6842    4.0695 C   0  0  0  0  0  0  0  0  0  0  0  0
    4.7115   -4.8368    3.5104 C   0  0  1  0  0  0  0  0  0  0  0  0
    6.0186   -5.6506    3.4630 C   0  0  0  0  0  0  0  0  0  0  0  0
    4.9866   -3.7695    4.3804 O   0  0  0  0  0  0  0  0  0  0  0  0
    4.5364   -0.1236    3.3109 H   0  0  0  0  0  0  0  0  0  0  0  0
    3.6779   -1.5387    4.1627 H   0  0  0  0  0  0  0  0  0  0  0  0
    2.5379   -3.1673    2.5492 H   0  0  0  0  0  0  0  0  0  0  0  0
    5.1578   -4.3032    1.4663 H   0  0  0  0  0  0  0  0  0  0  0  0
    4.1912   -6.4222    1.3410 H   0  0  0  0  0  0  0  0  0  0  0  0
    2.1134   -6.3142    0.0298 H   0  0  0  0  0  0  0  0  0  0  0  0
    0.7332   -3.3097   -1.3030 H   0  0  0  0  0  0  0  0  0  0  0  0
    0.9282   -5.0368   -1.5528 H   0  0  0  0  0  0  0  0  0  0  0  0
    2.0365   -3.9015   -2.3017 H   0  0  0  0  0  0  0  0  0  0  0  0
    2.0861   -2.2946    0.4811 H   0  0  0  0  0  0  0  0  0  0  0  0
    2.7565   -0.6766   -1.2401 H   0  0  0  0  0  0  0  0  0  0  0  0
    3.0973   -1.9909   -2.3192 H   0  0  0  0  0  0  0  0  0  0  0  0
    4.3229   -0.7722   -2.0011 H   0  0  0  0  0  0  0  0  0  0  0  0
    4.3720   -3.6279   -2.7443 H   0  0  0  0  0  0  0  0  0  0  0  0
    4.5218   -4.9077   -1.5103 H   0  0  0  0  0  0  0  0  0  0  0  0
    5.9264   -4.3018   -2.3951 H   0  0  0  0  0  0  0  0  0  0  0  0
    7.2997   -3.5475   -0.7373 H   0  0  0  0  0  0  0  0  0  0  0  0
    6.9698   -2.4123    1.6344 H   0  0  0  0  0  0  0  0  0  0  0  0
    7.9351   -1.5505    0.4401 H   0  0  0  0  0  0  0  0  0  0  0  0
    6.2081   -0.0737    1.5341 H   0  0  0  0  0  0  0  0  0  0  0  0
    6.0808   -0.1450   -0.2137 H   0  0  0  0  0  0  0  0  0  0  0  0
    3.8708   -0.2975    0.7147 H   0  0  0  0  0  0  0  0  0  0  0  0
    1.7284   -5.6553    2.9115 H   0  0  0  0  0  0  0  0  0  0  0  0
    2.5608   -7.2081    2.8464 H   0  0  0  0  0  0  0  0  0  0  0  0
    2.9277   -5.1126    4.7581 H   0  0  0  0  0  0  0  0  0  0  0  0
    3.9307   -6.5466    4.6280 H   0  0  0  0  0  0  0  0  0  0  0  0
    5.9213   -6.5613    2.8698 H   0  0  0  0  0  0  0  0  0  0  0  0
    6.3290   -5.9412    4.4685 H   0  0  0  0  0  0  0  0  0  0  0  0
    6.8339   -5.0716    3.0259 H   0  0  0  0  0  0  0  0  0  0  0  0
    4.2179   -3.2230    4.4231 H   0  0  0  0  0  0  0  0  0  0  0  0
  1  2  2  0
  1 23  1  0
  1 24  1  0
  2 17  1  0
  2  3  1  0
  3  9  1  0
  3  4  1  0
  3 25  1  1
  4 20  1  0
  4  5  1  0
  4 26  1  6
  5  6  1  0
  5 18  1  0
  5 27  1  6
  6  7  2  0
  6 28  1  0
  7  8  1  0
  7  9  1  0
  8 29  1  0
  8 30  1  0
  8 31  1  0
  9 10  1  0
  9 32  1  1
 10 17  1  0
 10 11  1  6
 10 12  1  0
 11 33  1  0
 11 34  1  0
 11 35  1  0
 12 13  1  0
 12 14  2  0
 13 36  1  0
 13 37  1  0
 13 38  1  0
 14 15  1  0
 14 39  1  0
 15 16  1  0
 15 40  1  0
 15 41  1  0
 16 17  1  0
 16 42  1  0
 16 43  1  0
 17 44  1  6
 18 19  1  0
 18 45  1  0
 18 46  1  0
 19 20  1  0
 19 47  1  0
 19 48  1  0
 20 21  1  0
 20 22  1  1
 21 49  1  0
 21 50  1  0
 21 51  1  0
 22 52  1  0
M  END
>  <i_m_ct_stereo_status>  (8) 
1

>  <s_m_source_file>  (8) 
/var/tmp/pbs.5076255.sched01/tmpmzpp47sj/0ood7iq68.sdf

>  <i_m_source_file_index>  (8) 
3

>  <i_lp_mmshare_version>  (8) 
48012

>  <i_f3d_flags>  (8) 
0

>  <s_epik_input>  (8) 
W0NIM11DMT1bQ0hdW0NIMl1bQ0gyXVtDQEBIXTJDKD1bQ0gyXSlbQ0BASF0oW0NASF0zW0NAXTEyW0NIM10pW0NAQEhdNFtDQEhdKFtDSF09QzNbQ0gzXSlbQ0gyXVtDSDJdW0NAXTQoW0NIM10pW09IXQ==

>  <s_epik_cmdline>  (8) 
J2VwaWtfcHl0aG9uJywgJy1waHQnLCAnMi4wJywgJy1waCcsICc3LjAnLCAnLXRuJywgJzgnLCAnLW1hJywgJzIwMCcsICctaW1hZScsICc8aW5maWxlLm1hZT4nLCAnLW9tYWUnLCAnPG91dGZpbGUubWFlPic=

>  <r_lp_tautomer_probability>  (8) 
1

>  <r_epik_Ionization_Penalty>  (8) 
8.91188e-07

>  <r_epik_Ionization_Penalty_Charging>  (8) 
0

>  <r_epik_Ionization_Penalty_Neutral>  (8) 
8.91188e-07

>  <r_epik_State_Penalty>  (8) 
-0

>  <r_epik_Charging_Adjusted_Penalty>  (8) 
0

>  <i_epik_Tot_Q>  (8) 
0

>  <i_epik_Tot_abs_Q>  (8) 
0

>  <s_lp_Force_Field>  (8) 
OPLS3e

>  <r_lp_Energy>  (8) 
28.2063

>  <b_lp_Chiralities_Consistent>  (8) 
1

>  <s_lp_Variant>  (8) 
2:0-1

>  <s_i_glide_gridfile>  (8) 
pfpi4k_grid

>  <i_i_glide_lignum>  (8) 
3

>  <i_i_glide_rotatable_bonds>  (8) 
1

>  <r_i_docking_score>  (8) 
-2.37189

>  <r_i_glide_ligand_efficiency>  (8) 
-0.107813

>  <r_i_glide_ligand_efficiency_sa>  (8) 
-0.302097

>  <r_i_glide_ligand_efficiency_ln>  (8) 
-0.579778

>  <r_i_glide_gscore>  (8) 
-2.37189

>  <r_i_glide_lipo>  (8) 
-0.250269

>  <r_i_glide_hbond>  (8) 
0

>  <r_i_glide_metal>  (8) 
-0

>  <r_i_glide_rewards>  (8) 
-1.37412

>  <r_i_glide_evdw>  (8) 
-14.1887

>  <r_i_glide_ecoul>  (8) 
-0.253804

>  <r_i_glide_erotb>  (8) 
0

>  <r_i_glide_esite>  (8) 
0

>  <r_i_glide_emodel>  (8) 
-16.014

>  <r_i_glide_energy>  (8) 
-14.4425

>  <r_i_glide_einternal>  (8) 
0.0022374

>  <r_i_glide_intrahb_reward>  (8) 
-0

>  <i_i_glide_confnum>  (8) 
2

>  <i_i_glide_posenum>  (8) 
1

>  <r_i_glide_eff_state_penalty>  (8) 
0

>  <ligand_id>  (8) 
2

>  <original_smiles>  (8) 
C=C1C2C3C(C=C(C)C2C2(C)C(C)=CCCC12)CCC3(C)O

>  <smiles>  (8) 
[H]OC1(C([H])([H])[H])C([H])([H])C([H])([H])C2([H])C([H])=C(C([H])([H])[H])C3([H])C([H])(C(=C([H])[H])C4([H])C([H])([H])C([H])([H])C([H])=C(C([H])([H])[H])C43C([H])([H])[H])C21[H]

$$$$
2:0:2
     RDKit          3D

 52 55  0  0  1  0  0  0  0  0999 V2000
    3.2584   -0.3690    3.4136 C   0  0  0  0  0  0  0  0  0  0  0  0
    3.5139   -1.2308    2.4172 C   0  0  0  0  0  0  0  0  0  0  0  0
    2.9051   -2.6130    2.2841 C   0  0  2  0  0  0  0  0  0  0  0  0
    3.7217   -3.8017    2.8802 C   0  0  2  0  0  0  0  0  0  0  0  0
    3.0794   -5.1479    2.4842 C   0  0  2  0  0  0  0  0  0  0  0  0
    2.5039   -5.1923    1.0811 C   0  0  0  0  0  0  0  0  0  0  0  0
    2.4155   -4.1296    0.2669 C   0  0  0  0  0  0  0  0  0  0  0  0
    1.7960   -4.2206   -1.1149 C   0  0  0  0  0  0  0  0  0  0  0  0
    2.7902   -2.7359    0.7484 C   0  0  2  0  0  0  0  0  0  0  0  0
    4.0264   -2.0164    0.1206 C   0  0  2  0  0  0  0  0  0  0  0  0
    3.7663   -1.4406   -1.2868 C   0  0  0  0  0  0  0  0  0  0  0  0
    5.2994   -2.8910    0.0508 C   0  0  0  0  0  0  0  0  0  0  0  0
    5.3010   -4.0872   -0.8768 C   0  0  0  0  0  0  0  0  0  0  0  0
    6.4170   -2.6108    0.7474 C   0  0  0  0  0  0  0  0  0  0  0  0
    6.5646   -1.4217    1.6490 C   0  0  0  0  0  0  0  0  0  0  0  0
    5.6055   -0.3137    1.2628 C   0  0  0  0  0  0  0  0  0  0  0  0
    4.1772   -0.8275    1.1124 C   0  0  2  0  0  0  0  0  0  0  0  0
    2.0480   -5.4413    3.5803 C   0  0  0  0  0  0  0  0  0  0  0  0
    2.5868   -4.7648    4.8478 C   0  0  0  0  0  0  0  0  0  0  0  0
    3.8221   -3.9511    4.4220 C   0  0  1  0  0  0  0  0  0  0  0  0
    5.1291   -4.6679    4.8138 C   0  0  0  0  0  0  0  0  0  0  0  0
    3.8514   -2.7359    5.1289 O   0  0  0  0  0  0  0  0  0  0  0  0
    3.6296    0.6478    3.3859 H   0  0  0  0  0  0  0  0  0  0  0  0
    2.6521   -0.6703    4.2575 H   0  0  0  0  0  0  0  0  0  0  0  0
    1.9131   -2.5944    2.7346 H   0  0  0  0  0  0  0  0  0  0  0  0
    4.7223   -3.7474    2.4706 H   0  0  0  0  0  0  0  0  0  0  0  0
    3.8504   -5.9148    2.5146 H   0  0  0  0  0  0  0  0  0  0  0  0
    2.1652   -6.1631    0.7407 H   0  0  0  0  0  0  0  0  0  0  0  0
    1.0456   -3.4492   -1.2828 H   0  0  0  0  0  0  0  0  0  0  0  0
    1.2933   -5.1784   -1.2330 H   0  0  0  0  0  0  0  0  0  0  0  0
    2.5351   -4.1170   -1.9054 H   0  0  0  0  0  0  0  0  0  0  0  0
    1.9185   -2.1396    0.5004 H   0  0  0  0  0  0  0  0  0  0  0  0
    2.9245   -0.7536   -1.2851 H   0  0  0  0  0  0  0  0  0  0  0  0
    3.5342   -2.2008   -2.0271 H   0  0  0  0  0  0  0  0  0  0  0  0
    4.6234   -0.8748   -1.6560 H   0  0  0  0  0  0  0  0  0  0  0  0
    4.9802   -3.8362   -1.8885 H   0  0  0  0  0  0  0  0  0  0  0  0
    4.7068   -4.9170   -0.4995 H   0  0  0  0  0  0  0  0  0  0  0  0
    6.3203   -4.4432   -0.9393 H   0  0  0  0  0  0  0  0  0  0  0  0
    7.2820   -3.2596    0.6897 H   0  0  0  0  0  0  0  0  0  0  0  0
    6.3886   -1.7391    2.6779 H   0  0  0  0  0  0  0  0  0  0  0  0
    7.5814   -1.0431    1.5542 H   0  0  0  0  0  0  0  0  0  0  0  0
    5.6563    0.4637    2.0206 H   0  0  0  0  0  0  0  0  0  0  0  0
    5.9340    0.1306    0.3210 H   0  0  0  0  0  0  0  0  0  0  0  0
    3.5760    0.0133    0.7641 H   0  0  0  0  0  0  0  0  0  0  0  0
    1.0741   -5.0135    3.3288 H   0  0  0  0  0  0  0  0  0  0  0  0
    1.9126   -6.5140    3.7216 H   0  0  0  0  0  0  0  0  0  0  0  0
    1.8154   -4.1179    5.2699 H   0  0  0  0  0  0  0  0  0  0  0  0
    2.8405   -5.4981    5.6172 H   0  0  0  0  0  0  0  0  0  0  0  0
    5.2059   -5.6590    4.3662 H   0  0  0  0  0  0  0  0  0  0  0  0
    5.2134   -4.7936    5.8942 H   0  0  0  0  0  0  0  0  0  0  0  0
    5.9971   -4.0968    4.4851 H   0  0  0  0  0  0  0  0  0  0  0  0
    3.9399   -2.9289    6.0535 H   0  0  0  0  0  0  0  0  0  0  0  0
  1  2  2  0
  1 23  1  0
  1 24  1  0
  2 17  1  0
  2  3  1  0
  3  9  1  0
  3  4  1  0
  3 25  1  1
  4 20  1  0
  4  5  1  0
  4 26  1  6
  5  6  1  0
  5 18  1  0
  5 27  1  6
  6  7  2  0
  6 28  1  0
  7  8  1  0
  7  9  1  0
  8 29  1  0
  8 30  1  0
  8 31  1  0
  9 10  1  0
  9 32  1  6
 10 17  1  0
 10 11  1  6
 10 12  1  0
 11 33  1  0
 11 34  1  0
 11 35  1  0
 12 13  1  0
 12 14  2  0
 13 36  1  0
 13 37  1  0
 13 38  1  0
 14 15  1  0
 14 39  1  0
 15 16  1  0
 15 40  1  0
 15 41  1  0
 16 17  1  0
 16 42  1  0
 16 43  1  0
 17 44  1  6
 18 19  1  0
 18 45  1  0
 18 46  1  0
 19 20  1  0
 19 47  1  0
 19 48  1  0
 20 21  1  0
 20 22  1  1
 21 49  1  0
 21 50  1  0
 21 51  1  0
 22 52  1  0
M  END
>  <i_m_ct_stereo_status>  (9) 
1

>  <s_m_source_file>  (9) 
/var/tmp/pbs.5076255.sched01/tmpmzpp47sj/0ood7iq68.sdf

>  <i_m_source_file_index>  (9) 
3

>  <i_lp_mmshare_version>  (9) 
48012

>  <i_f3d_flags>  (9) 
0

>  <s_epik_input>  (9) 
W0NIM11DMT1bQ0hdW0NIMl1bQ0gyXVtDQEBIXTJDKD1bQ0gyXSlbQ0BASF0oW0NASF0zW0NAXTEyW0NIM10pW0NAQEhdNFtDQEhdKFtDSF09QzNbQ0gzXSlbQ0gyXVtDSDJdW0NAXTQoW0NIM10pW09IXQ==

>  <s_epik_cmdline>  (9) 
J2VwaWtfcHl0aG9uJywgJy1waHQnLCAnMi4wJywgJy1waCcsICc3LjAnLCAnLXRuJywgJzgnLCAnLW1hJywgJzIwMCcsICctaW1hZScsICc8aW5maWxlLm1hZT4nLCAnLW9tYWUnLCAnPG91dGZpbGUubWFlPic=

>  <r_lp_tautomer_probability>  (9) 
1

>  <r_epik_Ionization_Penalty>  (9) 
8.91188e-07

>  <r_epik_Ionization_Penalty_Charging>  (9) 
0

>  <r_epik_Ionization_Penalty_Neutral>  (9) 
8.91188e-07

>  <r_epik_State_Penalty>  (9) 
-0

>  <r_epik_Charging_Adjusted_Penalty>  (9) 
0

>  <i_epik_Tot_Q>  (9) 
0

>  <i_epik_Tot_abs_Q>  (9) 
0

>  <s_lp_Force_Field>  (9) 
OPLS3e

>  <r_lp_Energy>  (9) 
28.2063

>  <b_lp_Chiralities_Consistent>  (9) 
1

>  <s_lp_Variant>  (9) 
2:0-1

>  <s_i_glide_gridfile>  (9) 
pfpi4k_grid

>  <i_i_glide_lignum>  (9) 
3

>  <i_i_glide_rotatable_bonds>  (9) 
1

>  <r_i_docking_score>  (9) 
-2.17402

>  <r_i_glide_ligand_efficiency>  (9) 
-0.0988189

>  <r_i_glide_ligand_efficiency_sa>  (9) 
-0.276894

>  <r_i_glide_ligand_efficiency_ln>  (9) 
-0.531409

>  <r_i_glide_gscore>  (9) 
-2.17402

>  <r_i_glide_lipo>  (9) 
-0.375362

>  <r_i_glide_hbond>  (9) 
0

>  <r_i_glide_metal>  (9) 
-0

>  <r_i_glide_rewards>  (9) 
-1.37412

>  <r_i_glide_evdw>  (9) 
-9.75588

>  <r_i_glide_ecoul>  (9) 
0.42174

>  <r_i_glide_erotb>  (9) 
0

>  <r_i_glide_esite>  (9) 
0

>  <r_i_glide_emodel>  (9) 
-10.8176

>  <r_i_glide_energy>  (9) 
-9.33414

>  <r_i_glide_einternal>  (9) 
0.0101106

>  <r_i_glide_intrahb_reward>  (9) 
-0

>  <i_i_glide_confnum>  (9) 
1

>  <i_i_glide_posenum>  (9) 
22

>  <r_i_glide_eff_state_penalty>  (9) 
0

>  <ligand_id>  (9) 
2

>  <original_smiles>  (9) 
C=C1C2C3C(C=C(C)C2C2(C)C(C)=CCCC12)CCC3(C)O

>  <smiles>  (9) 
[H]OC1(C([H])([H])[H])C([H])([H])C([H])([H])C2([H])C([H])=C(C([H])([H])[H])C3([H])C([H])(C(=C([H])[H])C4([H])C([H])([H])C([H])([H])C([H])=C(C([H])([H])[H])C43C([H])([H])[H])C21[H]

$$$$
3:0:0
     RDKit          3D

 25 29  0  0  1  0  0  0  0  0999 V2000
    4.3634   -4.0502   -0.5306 C   0  0  0  0  0  0  0  0  0  0  0  0
    5.6628   -3.3045   -1.2720 C   0  0  2  0  0  0  0  0  0  0  0  0
    5.7591   -1.9553   -0.5760 C   0  0  0  0  0  0  0  0  0  0  0  0
    4.5919   -1.2310   -1.2733 C   0  0  2  0  0  0  0  0  0  0  0  0
    3.4110   -2.0904   -1.3538 C   0  0  2  0  0  0  0  0  0  0  0  0
    2.9216   -3.2951   -0.9183 C   0  0  1  0  0  0  0  0  0  0  0  0
    2.2606   -3.1284   -2.3517 N   0  0  0  0  0  0  0  0  0  0  0  0
    3.1793   -2.3084   -3.3560 C   0  0  2  0  0  0  0  0  0  0  0  0
    4.5286   -1.4807   -2.7890 C   0  0  2  0  0  0  0  0  0  0  0  0
    5.3163   -2.7642   -2.7232 C   0  0  2  0  0  0  0  0  0  0  0  0
    3.9401   -3.0107   -2.6070 C   0  0  1  0  0  0  0  0  0  0  0  0
    4.5042   -4.0339    0.5445 H   0  0  0  0  0  0  0  0  0  0  0  0
    4.3226   -5.0956   -0.8428 H   0  0  0  0  0  0  0  0  0  0  0  0
    6.6088   -3.8544   -1.1981 H   0  0  0  0  0  0  0  0  0  0  0  0
    5.6557   -2.0049    0.5120 H   0  0  0  0  0  0  0  0  0  0  0  0
    6.7073   -1.4769   -0.8079 H   0  0  0  0  0  0  0  0  0  0  0  0
    4.3892   -0.2093   -0.9579 H   0  0  0  0  0  0  0  0  0  0  0  0
    2.6250   -1.2984   -1.4141 H   0  0  0  0  0  0  0  0  0  0  0  0
    2.2618   -3.1600   -0.0643 H   0  0  0  0  0  0  0  0  0  0  0  0
    2.0629   -4.0496   -2.7288 H   0  0  0  0  0  0  0  0  0  0  0  0
    3.2385   -2.6237   -4.3935 H   0  0  0  0  0  0  0  0  0  0  0  0
    4.9716   -0.7701   -3.4716 H   0  0  0  0  0  0  0  0  0  0  0  0
    5.7574   -3.1831   -3.6272 H   0  0  0  0  0  0  0  0  0  0  0  0
    3.9775   -4.1165   -2.8469 H   0  0  0  0  0  0  0  0  0  0  0  0
    1.4010   -2.6070   -2.2159 H   0  0  0  0  0  0  0  0  0  0  0  0
  1  6  1  0
  1  2  1  0
  1 12  1  0
  1 13  1  0
  2 10  1  0
  2  3  1  0
  2 14  1  6
  3  4  1  0
  3 15  1  0
  3 16  1  0
  4  9  1  0
  4  5  1  0
  4 17  1  6
  5 11  1  0
  5  6  1  0
  5 18  1  6
  6  7  1  0
  6 19  1  1
  7  8  1  0
  7 20  1  0
  7 25  1  0
  8 11  1  0
  8  9  1  0
  8 21  1  6
  9 10  1  0
  9 22  1  6
 10 11  1  0
 10 23  1  6
 11 24  1  1
M  CHG  1   7   1
M  END
>  <i_m_ct_stereo_status>  (10) 
1

>  <s_m_source_file>  (10) 
/var/tmp/pbs.5076255.sched01/tmpmzpp47sj/0ood7iq68.sdf

>  <i_m_source_file_index>  (10) 
4

>  <i_lp_mmshare_version>  (10) 
48012

>  <i_f3d_flags>  (10) 
0

>  <s_epik_input>  (10) 
W0NAQEhdMTJbQ0BIXTNbTkhdW0NAQEhdKFtDSDJdNClbQ0BIXTFbQ0BASF0oW0NIMl01KVtDQEhdM1tDQEhdMltDQEhdNDU=

>  <s_epik_cmdline>  (10) 
J2VwaWtfcHl0aG9uJywgJy1waHQnLCAnMi4wJywgJy1waCcsICc3LjAnLCAnLXRuJywgJzgnLCAnLW1hJywgJzIwMCcsICctaW1hZScsICc8aW5maWxlLm1hZT4nLCAnLW9tYWUnLCAnPG91dGZpbGUubWFlPic=

>  <r_lp_tautomer_probability>  (10) 
1

>  <r_epik_Ionization_Penalty>  (10) 
8.32829e-06

>  <r_epik_Ionization_Penalty_Charging>  (10) 
8.32829e-06

>  <r_epik_Ionization_Penalty_Neutral>  (10) 
0

>  <r_epik_State_Penalty>  (10) 
-0

>  <r_epik_Charging_Adjusted_Penalty>  (10) 
8.32829e-06

>  <i_epik_Tot_Q>  (10) 
1

>  <i_epik_Tot_abs_Q>  (10) 
1

>  <s_lp_Force_Field>  (10) 
OPLS3e

>  <r_lp_Energy>  (10) 
337.838

>  <b_lp_Chiralities_Consistent>  (10) 
1

>  <s_lp_Variant>  (10) 
3:0-1

>  <s_i_glide_gridfile>  (10) 
pfpi4k_grid

>  <i_i_glide_lignum>  (10) 
4

>  <i_i_glide_rotatable_bonds>  (10) 
0

>  <r_i_docking_score>  (10) 
-4.48657

>  <r_i_glide_ligand_efficiency>  (10) 
-0.40787

>  <r_i_glide_ligand_efficiency_sa>  (10) 
-0.907094

>  <r_i_glide_ligand_efficiency_ln>  (10) 
-1.3204

>  <r_i_glide_gscore>  (10) 
-4.48657

>  <r_i_glide_lipo>  (10) 
-0.453391

>  <r_i_glide_hbond>  (10) 
-0.085951

>  <r_i_glide_metal>  (10) 
-0

>  <r_i_glide_rewards>  (10) 
-2.25

>  <r_i_glide_evdw>  (10) 
-15.5758

>  <r_i_glide_ecoul>  (10) 
-6.12288

>  <r_i_glide_erotb>  (10) 
0

>  <r_i_glide_esite>  (10) 
0

>  <r_i_glide_emodel>  (10) 
-29.0293

>  <r_i_glide_energy>  (10) 
-21.6987

>  <r_i_glide_einternal>  (10) 
0

>  <r_i_glide_intrahb_reward>  (10) 
-0

>  <i_i_glide_confnum>  (10) 
1

>  <i_i_glide_posenum>  (10) 
1

>  <r_i_glide_eff_state_penalty>  (10) 
0

>  <ligand_id>  (10) 
3

>  <original_smiles>  (10) 
C1C2CC3C4C1NC1C3C2C14

>  <smiles>  (10) 
[H]C1([H])C2([H])C([H])([H])C3([H])C4([H])C1([H])C1([H])C2([H])C4([H])C1([H])[N+]3([H])[H]

$$$$
3:0:1
     RDKit          3D

 25 29  0  0  1  0  0  0  0  0999 V2000
    4.5224   -1.2358   -0.9632 C   0  0  0  0  0  0  0  0  0  0  0  0
    4.3015   -0.6529   -2.5048 C   0  0  2  0  0  0  0  0  0  0  0  0
    2.8312   -0.6763   -2.7689 C   0  0  0  0  0  0  0  0  0  0  0  0
    2.5764   -2.1831   -2.9310 C   0  0  2  0  0  0  0  0  0  0  0  0
    3.3337   -2.9720   -1.9576 C   0  0  2  0  0  0  0  0  0  0  0  0
    4.1014   -2.8330   -0.8318 C   0  0  1  0  0  0  0  0  0  0  0  0
    4.7499   -4.0906   -1.5965 N   0  0  0  0  0  0  0  0  0  0  0  0
    4.6064   -3.9541   -3.1929 C   0  0  2  0  0  0  0  0  0  0  0  0
    3.5890   -2.8079   -3.8510 C   0  0  2  0  0  0  0  0  0  0  0  0
    4.5971   -1.7317   -3.5900 C   0  0  2  0  0  0  0  0  0  0  0  0
    4.7895   -2.8010   -2.7078 C   0  0  1  0  0  0  0  0  0  0  0  0
    3.9264   -0.6345   -0.2699 H   0  0  0  0  0  0  0  0  0  0  0  0
    5.5773   -1.1303   -0.6886 H   0  0  0  0  0  0  0  0  0  0  0  0
    4.7401    0.3105   -2.7218 H   0  0  0  0  0  0  0  0  0  0  0  0
    2.2209   -0.2789   -1.9760 H   0  0  0  0  0  0  0  0  0  0  0  0
    2.6087   -0.1116   -3.6808 H   0  0  0  0  0  0  0  0  0  0  0  0
    1.5463   -2.5125   -3.0968 H   0  0  0  0  0  0  0  0  0  0  0  0
    2.6859   -3.8843   -1.9661 H   0  0  0  0  0  0  0  0  0  0  0  0
    3.5014   -3.0677    0.0539 H   0  0  0  0  0  0  0  0  0  0  0  0
    5.7216   -4.1696   -1.3318 H   0  0  0  0  0  0  0  0  0  0  0  0
    5.4171   -4.2789   -3.8463 H   0  0  0  0  0  0  0  0  0  0  0  0
    3.3480   -2.9484   -4.8900 H   0  0  0  0  0  0  0  0  0  0  0  0
    5.3377   -1.5296   -4.3017 H   0  0  0  0  0  0  0  0  0  0  0  0
    5.8510   -2.5494   -2.3955 H   0  0  0  0  0  0  0  0  0  0  0  0
    4.2016   -4.9104   -1.3698 H   0  0  0  0  0  0  0  0  0  0  0  0
  1  6  1  0
  1  2  1  0
  1 12  1  0
  1 13  1  0
  2 10  1  0
  2  3  1  0
  2 14  1  6
  3  4  1  0
  3 15  1  0
  3 16  1  0
  4  9  1  0
  4  5  1  0
  4 17  1  6
  5 11  1  0
  5  6  1  0
  5 18  1  1
  6  7  1  0
  6 19  1  1
  7  8  1  0
  7 20  1  0
  7 25  1  0
  8 11  1  0
  8  9  1  0
  8 21  1  6
  9 10  1  0
  9 22  1  6
 10 11  1  0
 10 23  1  6
 11 24  1  1
M  CHG  1   7   1
M  END
>  <i_m_ct_stereo_status>  (11) 
1

>  <s_m_source_file>  (11) 
/var/tmp/pbs.5076255.sched01/tmpmzpp47sj/0ood7iq68.sdf

>  <i_m_source_file_index>  (11) 
4

>  <i_lp_mmshare_version>  (11) 
48012

>  <i_f3d_flags>  (11) 
0

>  <s_epik_input>  (11) 
W0NAQEhdMTJbQ0BIXTNbTkhdW0NAQEhdKFtDSDJdNClbQ0BIXTFbQ0BASF0oW0NIMl01KVtDQEhdM1tDQEhdMltDQEhdNDU=

>  <s_epik_cmdline>  (11) 
J2VwaWtfcHl0aG9uJywgJy1waHQnLCAnMi4wJywgJy1waCcsICc3LjAnLCAnLXRuJywgJzgnLCAnLW1hJywgJzIwMCcsICctaW1hZScsICc8aW5maWxlLm1hZT4nLCAnLW9tYWUnLCAnPG91dGZpbGUubWFlPic=

>  <r_lp_tautomer_probability>  (11) 
1

>  <r_epik_Ionization_Penalty>  (11) 
8.32829e-06

>  <r_epik_Ionization_Penalty_Charging>  (11) 
8.32829e-06

>  <r_epik_Ionization_Penalty_Neutral>  (11) 
0

>  <r_epik_State_Penalty>  (11) 
-0

>  <r_epik_Charging_Adjusted_Penalty>  (11) 
8.32829e-06

>  <i_epik_Tot_Q>  (11) 
1

>  <i_epik_Tot_abs_Q>  (11) 
1

>  <s_lp_Force_Field>  (11) 
OPLS3e

>  <r_lp_Energy>  (11) 
337.838

>  <b_lp_Chiralities_Consistent>  (11) 
1

>  <s_lp_Variant>  (11) 
3:0-1

>  <s_i_glide_gridfile>  (11) 
pfpi4k_grid

>  <i_i_glide_lignum>  (11) 
4

>  <i_i_glide_rotatable_bonds>  (11) 
0

>  <r_i_docking_score>  (11) 
-3.49259

>  <r_i_glide_ligand_efficiency>  (11) 
-0.317508

>  <r_i_glide_ligand_efficiency_sa>  (11) 
-0.706132

>  <r_i_glide_ligand_efficiency_ln>  (11) 
-1.02787

>  <r_i_glide_gscore>  (11) 
-3.49259

>  <r_i_glide_lipo>  (11) 
-0.383205

>  <r_i_glide_hbond>  (11) 
0

>  <r_i_glide_metal>  (11) 
-0

>  <r_i_glide_rewards>  (11) 
-2.25

>  <r_i_glide_evdw>  (11) 
-4.05975

>  <r_i_glide_ecoul>  (11) 
-4.15697

>  <r_i_glide_erotb>  (11) 
0

>  <r_i_glide_esite>  (11) 
-0.032851

>  <r_i_glide_emodel>  (11) 
-13.6776

>  <r_i_glide_energy>  (11) 
-8.21672

>  <r_i_glide_einternal>  (11) 
0

>  <r_i_glide_intrahb_reward>  (11) 
-0

>  <i_i_glide_confnum>  (11) 
1

>  <i_i_glide_posenum>  (11) 
9

>  <r_i_glide_eff_state_penalty>  (11) 
0

>  <ligand_id>  (11) 
3

>  <original_smiles>  (11) 
C1C2CC3C4C1NC1C3C2C14

>  <smiles>  (11) 
[H]C1([H])C2([H])C([H])([H])C3([H])C4([H])C1([H])C1([H])C2([H])C4([H])C1([H])[N+]3([H])[H]

$$$$
4:0:0
     RDKit          3D

 57 61  0  0  1  0  0  0  0  0999 V2000
    0.6620   -4.2073    5.1216 C   0  0  0  0  0  0  0  0  0  0  0  0
   -0.2007   -5.3236    5.3560 O   0  0  0  0  0  0  0  0  0  0  0  0
   -0.0281   -6.4066    4.5294 C   0  0  0  0  0  0  0  0  0  0  0  0
   -1.1331   -7.2491    4.2666 C   0  0  0  0  0  0  0  0  0  0  0  0
   -0.9678   -8.4980    3.6119 C   0  0  0  0  0  0  0  0  0  0  0  0
    0.2931   -8.8691    3.0924 C   0  0  0  0  0  0  0  0  0  0  0  0
    1.2854   -7.8694    3.1560 C   0  0  0  0  0  0  0  0  0  0  0  0
    1.2452   -6.7844    4.0436 C   0  0  0  0  0  0  0  0  0  0  0  0
    2.4271   -6.6774    4.7406 O   0  0  0  0  0  0  0  0  0  0  0  0
    2.9523   -7.9997    4.5326 C   0  0  2  0  0  0  0  0  0  0  0  0
    4.2152   -8.6206    5.1016 C   0  0  0  0  0  0  0  0  0  0  0  0
    4.1674  -10.1794    4.8979 C   0  0  0  0  0  0  0  0  0  0  0  0
    2.8433  -10.7865    4.4767 N   0  0  2  0  0  0  0  0  0  0  0  0
    2.7690  -12.2014    4.8754 C   0  0  0  0  0  0  0  0  0  0  0  0
    2.3851  -10.6067    3.0506 C   0  0  1  0  0  0  0  0  0  0  0  0
    0.8394  -10.3227    2.8825 C   0  0  0  0  0  0  0  0  0  0  0  0
    3.0189   -9.4646    2.3085 C   0  0  2  0  0  0  0  0  0  0  0  0
    4.4743   -9.3818    1.9341 C   0  0  0  0  0  0  0  0  0  0  0  0
    4.8223   -8.1030    1.8760 C   0  0  0  0  0  0  0  0  0  0  0  0
    3.6806   -7.1753    2.2671 C   0  0  1  0  0  0  0  0  0  0  0  0
    3.0535   -6.6066    1.1128 O   0  0  0  0  0  0  0  0  0  0  0  0
    3.8764   -5.7377    0.3323 C   0  0  0  0  0  0  0  0  0  0  0  0
    4.2637   -4.4913    1.1138 C   0  0  0  0  0  0  0  0  0  0  0  0
    4.1025   -3.2028    0.7771 C   0  0  0  0  0  0  0  0  0  0  0  0
    3.5660   -2.6999   -0.5495 C   0  0  0  0  0  0  0  0  0  0  0  0
    4.4679   -2.1241    1.7746 C   0  0  0  0  0  0  0  0  0  0  0  0
    2.7323   -8.1523    3.0173 C   0  0  1  0  0  0  0  0  0  0  0  0
    0.5175   -3.4428    5.8911 H   0  0  0  0  0  0  0  0  0  0  0  0
    0.4192   -3.7756    4.1478 H   0  0  0  0  0  0  0  0  0  0  0  0
    1.7268   -4.4448    5.1298 H   0  0  0  0  0  0  0  0  0  0  0  0
   -2.0876   -6.9976    4.7052 H   0  0  0  0  0  0  0  0  0  0  0  0
   -1.7773   -9.2226    3.6380 H   0  0  0  0  0  0  0  0  0  0  0  0
    2.2328   -8.5715    5.1311 H   0  0  0  0  0  0  0  0  0  0  0  0
    5.1152   -8.1833    4.6598 H   0  0  0  0  0  0  0  0  0  0  0  0
    4.2514   -8.3854    6.1697 H   0  0  0  0  0  0  0  0  0  0  0  0
    4.9834  -10.4991    4.2514 H   0  0  0  0  0  0  0  0  0  0  0  0
    4.4164  -10.5887    5.8763 H   0  0  0  0  0  0  0  0  0  0  0  0
    3.5198  -12.7932    4.3502 H   0  0  0  0  0  0  0  0  0  0  0  0
    1.7823  -12.6110    4.6548 H   0  0  0  0  0  0  0  0  0  0  0  0
    2.9522  -12.2883    5.9449 H   0  0  0  0  0  0  0  0  0  0  0  0
    2.6306  -11.5159    2.5026 H   0  0  0  0  0  0  0  0  0  0  0  0
    0.2706  -10.9958    3.5214 H   0  0  0  0  0  0  0  0  0  0  0  0
    0.5557  -10.5736    1.8633 H   0  0  0  0  0  0  0  0  0  0  0  0
    2.5393   -9.4241    1.3266 H   0  0  0  0  0  0  0  0  0  0  0  0
    5.1013  -10.2350    1.6969 H   0  0  0  0  0  0  0  0  0  0  0  0
    5.7973   -7.7164    1.6189 H   0  0  0  0  0  0  0  0  0  0  0  0
    4.0067   -6.4102    2.9657 H   0  0  0  0  0  0  0  0  0  0  0  0
    4.7681   -6.2378   -0.0472 H   0  0  0  0  0  0  0  0  0  0  0  0
    3.3036   -5.4747   -0.5480 H   0  0  0  0  0  0  0  0  0  0  0  0
    4.7286   -4.6624    2.0723 H   0  0  0  0  0  0  0  0  0  0  0  0
    4.2631   -1.9726   -0.9630 H   0  0  0  0  0  0  0  0  0  0  0  0
    2.6130   -2.2025   -0.3960 H   0  0  0  0  0  0  0  0  0  0  0  0
    3.4302   -3.4811   -1.2943 H   0  0  0  0  0  0  0  0  0  0  0  0
    5.2640   -1.4963    1.3803 H   0  0  0  0  0  0  0  0  0  0  0  0
    4.8138   -2.5578    2.7141 H   0  0  0  0  0  0  0  0  0  0  0  0
    3.5979   -1.5087    2.0022 H   0  0  0  0  0  0  0  0  0  0  0  0
    2.1365  -10.3210    5.0338 H   0  0  0  0  0  0  0  0  0  0  0  0
  1  2  1  0
  1 28  1  0
  1 29  1  0
  1 30  1  0
  2  3  1  0
  3  8  2  0
  3  4  1  0
  4  5  2  0
  4 31  1  0
  5  6  1  0
  5 32  1  0
  6 16  1  0
  6  7  2  0
 27  7  1  1
  7  8  1  0
  8  9  1  0
  9 10  1  0
 10 27  1  0
 10 11  1  0
 10 33  1  1
 11 12  1  0
 11 34  1  0
 11 35  1  0
 12 13  1  0
 12 36  1  0
 12 37  1  0
 13 14  1  0
 13 15  1  0
 13 57  1  1
 14 38  1  0
 14 39  1  0
 14 40  1  0
 15 16  1  0
 15 17  1  0
 15 41  1  6
 16 42  1  0
 16 43  1  0
 17 27  1  0
 17 18  1  0
 17 44  1  6
 18 19  2  0
 18 45  1  0
 19 20  1  0
 19 46  1  0
 20 21  1  0
 20 27  1  0
 20 47  1  1
 21 22  1  0
 22 23  1  0
 22 48  1  0
 22 49  1  0
 23 24  2  3
 23 50  1  0
 24 25  1  0
 24 26  1  0
 25 51  1  0
 25 52  1  0
 25 53  1  0
 26 54  1  0
 26 55  1  0
 26 56  1  0
M  CHG  1  13   1
M  END
>  <i_m_ct_stereo_status>  (12) 
1

>  <s_m_source_file>  (12) 
/var/tmp/pbs.5076255.sched01/tmpmzpp47sj/0ood7iq68.sdf

>  <i_m_source_file_index>  (12) 
5

>  <i_lp_mmshare_version>  (12) 
48012

>  <i_f3d_flags>  (12) 
0

>  <s_epik_input>  (12) 
W0NAXTEyM2M0YzVbY0hdW2NIXWMoT1tDSDNdKWM0T1tDQEBIXTFbQ0gyXVtDSDJdTihbQ0gzXSlbQ0BASF0oW0NIMl01KVtDQEBIXTJbQ0hdPVtDSF1bQ0BIXTNPW0NIMl1bQ0hdPUMoW0NIM10pW0NIM10=

>  <s_epik_cmdline>  (12) 
J2VwaWtfcHl0aG9uJywgJy1waHQnLCAnMi4wJywgJy1waCcsICc3LjAnLCAnLXRuJywgJzgnLCAnLW1hJywgJzIwMCcsICctaW1hZScsICc8aW5maWxlLm1hZT4nLCAnLW9tYWUnLCAnPG91dGZpbGUubWFlPic=

>  <r_lp_tautomer_probability>  (12) 
1

>  <r_epik_Ionization_Penalty>  (12) 
0.054021

>  <r_epik_Ionization_Penalty_Charging>  (12) 
0.054021

>  <r_epik_Ionization_Penalty_Neutral>  (12) 
1.8826e-13

>  <r_epik_State_Penalty>  (12) 
0.0464456

>  <r_epik_Charging_Adjusted_Penalty>  (12) 
0.100467

>  <i_epik_Tot_Q>  (12) 
1

>  <i_epik_Tot_abs_Q>  (12) 
1

>  <s_lp_Force_Field>  (12) 
OPLS3e

>  <r_lp_Energy>  (12) 
107.759

>  <b_lp_Chiralities_Consistent>  (12) 
1

>  <s_lp_Variant>  (12) 
4:0-1

>  <s_i_glide_gridfile>  (12) 
pfpi4k_grid

>  <i_i_glide_lignum>  (12) 
5

>  <i_i_glide_rotatable_bonds>  (12) 
4

>  <r_i_docking_score>  (12) 
-2.65162

>  <r_i_glide_ligand_efficiency>  (12) 
-0.0982082

>  <r_i_glide_ligand_efficiency_sa>  (12) 
-0.294625

>  <r_i_glide_ligand_efficiency_ln>  (12) 
-0.617254

>  <r_i_glide_gscore>  (12) 
-2.65162

>  <r_i_glide_lipo>  (12) 
-0.270845

>  <r_i_glide_hbond>  (12) 
0

>  <r_i_glide_metal>  (12) 
-0

>  <r_i_glide_rewards>  (12) 
-0.896665

>  <r_i_glide_evdw>  (12) 
-21.0974

>  <r_i_glide_ecoul>  (12) 
-5.5535

>  <r_i_glide_erotb>  (12) 
0.425758

>  <r_i_glide_esite>  (12) 
-0.0219733

>  <r_i_glide_emodel>  (12) 
-30.1893

>  <r_i_glide_energy>  (12) 
-26.651

>  <r_i_glide_einternal>  (12) 
4.4025

>  <r_i_glide_intrahb_reward>  (12) 
-0

>  <i_i_glide_confnum>  (12) 
3

>  <i_i_glide_posenum>  (12) 
14

>  <r_i_glide_eff_state_penalty>  (12) 
0

>  <ligand_id>  (12) 
4

>  <original_smiles>  (12) 
COc1ccc2c3c1OC1CCN(C)C(C2)C2C=CC(OCC=C(C)C)C312

>  <smiles>  (12) 
[H]C(=C(C([H])([H])[H])C([H])([H])[H])C([H])([H])OC1([H])C([H])=C([H])C2([H])C13c1c4c(OC([H])([H])[H])c([H])c([H])c1C([H])([H])C2([H])[N+]([H])(C([H])([H])[H])C([H])([H])C([H])([H])C3([H])O4

$$$$
4:0:1
     RDKit          3D

 57 61  0  0  1  0  0  0  0  0999 V2000
    1.0716   -4.7593    5.8673 C   0  0  0  0  0  0  0  0  0  0  0  0
   -0.0834   -5.4295    5.3338 O   0  0  0  0  0  0  0  0  0  0  0  0
    0.1265   -6.4724    4.4532 C   0  0  0  0  0  0  0  0  0  0  0  0
   -0.9857   -7.2788    4.1152 C   0  0  0  0  0  0  0  0  0  0  0  0
   -0.8245   -8.5358    3.4699 C   0  0  0  0  0  0  0  0  0  0  0  0
    0.4463   -8.9286    2.9924 C   0  0  0  0  0  0  0  0  0  0  0  0
    1.4459   -7.9272    3.0691 C   0  0  0  0  0  0  0  0  0  0  0  0
    1.3986   -6.8341    3.9457 C   0  0  0  0  0  0  0  0  0  0  0  0
    2.5899   -6.7158    4.6337 O   0  0  0  0  0  0  0  0  0  0  0  0
    3.0827   -8.0487    4.4859 C   0  0  2  0  0  0  0  0  0  0  0  0
    4.3186   -8.6700    5.1070 C   0  0  0  0  0  0  0  0  0  0  0  0
    4.2754  -10.2317    4.9311 C   0  0  0  0  0  0  0  0  0  0  0  0
    2.9611  -10.8354    4.4825 N   0  0  2  0  0  0  0  0  0  0  0  0
    2.8734  -12.2459    4.8953 C   0  0  0  0  0  0  0  0  0  0  0  0
    2.5435  -10.6667    3.0431 C   0  0  1  0  0  0  0  0  0  0  0  0
    0.9994  -10.3894    2.8342 C   0  0  0  0  0  0  0  0  0  0  0  0
    3.1962   -9.5309    2.2996 C   0  0  2  0  0  0  0  0  0  0  0  0
    4.6646   -9.4384    1.9721 C   0  0  0  0  0  0  0  0  0  0  0  0
    5.0178   -8.1617    1.8993 C   0  0  0  0  0  0  0  0  0  0  0  0
    3.8616   -7.2343    2.2340 C   0  0  1  0  0  0  0  0  0  0  0  0
    3.2597   -6.7355    1.0425 O   0  0  0  0  0  0  0  0  0  0  0  0
    3.9823   -5.6811    0.4208 C   0  0  0  0  0  0  0  0  0  0  0  0
    3.6252   -4.3528    1.0676 C   0  0  0  0  0  0  0  0  0  0  0  0
    3.0853   -3.2616    0.4908 C   0  0  0  0  0  0  0  0  0  0  0  0
    2.7331   -3.1208   -0.9823 C   0  0  0  0  0  0  0  0  0  0  0  0
    2.7602   -2.0417    1.3305 C   0  0  0  0  0  0  0  0  0  0  0  0
    2.8969   -8.2105    2.9741 C   0  0  1  0  0  0  0  0  0  0  0  0
    0.8406   -3.8854    6.4840 H   0  0  0  0  0  0  0  0  0  0  0  0
    1.7443   -4.4110    5.0708 H   0  0  0  0  0  0  0  0  0  0  0  0
    1.6186   -5.4544    6.5169 H   0  0  0  0  0  0  0  0  0  0  0  0
   -1.9468   -7.0180    4.5283 H   0  0  0  0  0  0  0  0  0  0  0  0
   -1.6429   -9.2548    3.4980 H   0  0  0  0  0  0  0  0  0  0  0  0
    2.3383   -8.6083    5.0655 H   0  0  0  0  0  0  0  0  0  0  0  0
    5.2384   -8.2413    4.6967 H   0  0  0  0  0  0  0  0  0  0  0  0
    4.3078   -8.4199    6.1724 H   0  0  0  0  0  0  0  0  0  0  0  0
    5.1111  -10.5539    4.3144 H   0  0  0  0  0  0  0  0  0  0  0  0
    4.4938  -10.6220    5.9244 H   0  0  0  0  0  0  0  0  0  0  0  0
    3.6317  -12.8437    4.3954 H   0  0  0  0  0  0  0  0  0  0  0  0
    1.8904  -12.6501    4.6616 H   0  0  0  0  0  0  0  0  0  0  0  0
    3.0292  -12.3200    5.9687 H   0  0  0  0  0  0  0  0  0  0  0  0
    2.8014  -11.5790    2.5108 H   0  0  0  0  0  0  0  0  0  0  0  0
    0.4136  -11.0500    3.4696 H   0  0  0  0  0  0  0  0  0  0  0  0
    0.7275  -10.6458    1.8138 H   0  0  0  0  0  0  0  0  0  0  0  0
    2.7435   -9.5077    1.3007 H   0  0  0  0  0  0  0  0  0  0  0  0
    5.3021  -10.2938    1.7672 H   0  0  0  0  0  0  0  0  0  0  0  0
    6.0037   -7.7769    1.6670 H   0  0  0  0  0  0  0  0  0  0  0  0
    4.1840   -6.4226    2.8867 H   0  0  0  0  0  0  0  0  0  0  0  0
    5.0627   -5.8406    0.4434 H   0  0  0  0  0  0  0  0  0  0  0  0
    3.7388   -5.6977   -0.6334 H   0  0  0  0  0  0  0  0  0  0  0  0
    3.8309   -4.2979    2.1273 H   0  0  0  0  0  0  0  0  0  0  0  0
    3.1460   -2.1884   -1.3697 H   0  0  0  0  0  0  0  0  0  0  0  0
    1.6517   -3.0890   -1.1097 H   0  0  0  0  0  0  0  0  0  0  0  0
    3.1094   -3.9205   -1.6118 H   0  0  0  0  0  0  0  0  0  0  0  0
    3.3096   -1.1732    0.9679 H   0  0  0  0  0  0  0  0  0  0  0  0
    3.0173   -2.1956    2.3797 H   0  0  0  0  0  0  0  0  0  0  0  0
    1.6955   -1.8155    1.2789 H   0  0  0  0  0  0  0  0  0  0  0  0
    2.2414  -10.3677    5.0124 H   0  0  0  0  0  0  0  0  0  0  0  0
  1  2  1  0
  1 28  1  0
  1 29  1  0
  1 30  1  0
  2  3  1  0
  3  8  2  0
  3  4  1  0
  4  5  2  0
  4 31  1  0
  5  6  1  0
  5 32  1  0
  6 16  1  0
  6  7  2  0
 27  7  1  1
  7  8  1  0
  8  9  1  0
  9 10  1  0
 10 27  1  0
 10 11  1  0
 10 33  1  1
 11 12  1  0
 11 34  1  0
 11 35  1  0
 12 13  1  0
 12 36  1  0
 12 37  1  0
 13 14  1  0
 13 15  1  0
 13 57  1  1
 14 38  1  0
 14 39  1  0
 14 40  1  0
 15 16  1  0
 15 17  1  0
 15 41  1  6
 16 42  1  0
 16 43  1  0
 17 27  1  0
 17 18  1  0
 17 44  1  6
 18 19  2  0
 18 45  1  0
 19 20  1  0
 19 46  1  0
 20 21  1  0
 20 27  1  0
 20 47  1  1
 21 22  1  0
 22 23  1  0
 22 48  1  0
 22 49  1  0
 23 24  2  3
 23 50  1  0
 24 25  1  0
 24 26  1  0
 25 51  1  0
 25 52  1  0
 25 53  1  0
 26 54  1  0
 26 55  1  0
 26 56  1  0
M  CHG  1  13   1
M  END
>  <i_m_ct_stereo_status>  (13) 
1

>  <s_m_source_file>  (13) 
/var/tmp/pbs.5076255.sched01/tmpmzpp47sj/0ood7iq68.sdf

>  <i_m_source_file_index>  (13) 
5

>  <i_lp_mmshare_version>  (13) 
48012

>  <i_f3d_flags>  (13) 
0

>  <s_epik_input>  (13) 
W0NAXTEyM2M0YzVbY0hdW2NIXWMoT1tDSDNdKWM0T1tDQEBIXTFbQ0gyXVtDSDJdTihbQ0gzXSlbQ0BASF0oW0NIMl01KVtDQEBIXTJbQ0hdPVtDSF1bQ0BIXTNPW0NIMl1bQ0hdPUMoW0NIM10pW0NIM10=

>  <s_epik_cmdline>  (13) 
J2VwaWtfcHl0aG9uJywgJy1waHQnLCAnMi4wJywgJy1waCcsICc3LjAnLCAnLXRuJywgJzgnLCAnLW1hJywgJzIwMCcsICctaW1hZScsICc8aW5maWxlLm1hZT4nLCAnLW9tYWUnLCAnPG91dGZpbGUubWFlPic=

>  <r_lp_tautomer_probability>  (13) 
1

>  <r_epik_Ionization_Penalty>  (13) 
0.054021

>  <r_epik_Ionization_Penalty_Charging>  (13) 
0.054021

>  <r_epik_Ionization_Penalty_Neutral>  (13) 
1.8826e-13

>  <r_epik_State_Penalty>  (13) 
0.0464456

>  <r_epik_Charging_Adjusted_Penalty>  (13) 
0.100467

>  <i_epik_Tot_Q>  (13) 
1

>  <i_epik_Tot_abs_Q>  (13) 
1

>  <s_lp_Force_Field>  (13) 
OPLS3e

>  <r_lp_Energy>  (13) 
107.759

>  <b_lp_Chiralities_Consistent>  (13) 
1

>  <s_lp_Variant>  (13) 
4:0-1

>  <s_i_glide_gridfile>  (13) 
pfpi4k_grid

>  <i_i_glide_lignum>  (13) 
5

>  <i_i_glide_rotatable_bonds>  (13) 
4

>  <r_i_docking_score>  (13) 
-2.57428

>  <r_i_glide_ligand_efficiency>  (13) 
-0.0953437

>  <r_i_glide_ligand_efficiency_sa>  (13) 
-0.286031

>  <r_i_glide_ligand_efficiency_ln>  (13) 
-0.59925

>  <r_i_glide_gscore>  (13) 
-2.57428

>  <r_i_glide_lipo>  (13) 
-0.267653

>  <r_i_glide_hbond>  (13) 
0

>  <r_i_glide_metal>  (13) 
-0

>  <r_i_glide_rewards>  (13) 
-0.896665

>  <r_i_glide_evdw>  (13) 
-21.4778

>  <r_i_glide_ecoul>  (13) 
-4.93765

>  <r_i_glide_erotb>  (13) 
0.425758

>  <r_i_glide_esite>  (13) 
-0.0211838

>  <r_i_glide_emodel>  (13) 
-28.4486

>  <r_i_glide_energy>  (13) 
-26.4154

>  <r_i_glide_einternal>  (13) 
6.78184

>  <r_i_glide_intrahb_reward>  (13) 
-0

>  <i_i_glide_confnum>  (13) 
3

>  <i_i_glide_posenum>  (13) 
1

>  <r_i_glide_eff_state_penalty>  (13) 
0

>  <ligand_id>  (13) 
4

>  <original_smiles>  (13) 
COc1ccc2c3c1OC1CCN(C)C(C2)C2C=CC(OCC=C(C)C)C312

>  <smiles>  (13) 
[H]C(=C(C([H])([H])[H])C([H])([H])[H])C([H])([H])OC1([H])C([H])=C([H])C2([H])C13c1c4c(OC([H])([H])[H])c([H])c([H])c1C([H])([H])C2([H])[N+]([H])(C([H])([H])[H])C([H])([H])C([H])([H])C3([H])O4

$$$$
4:0:2
     RDKit          3D

 57 61  0  0  1  0  0  0  0  0999 V2000
   -1.1375   -8.5128    4.2094 C   0  0  0  0  0  0  0  0  0  0  0  0
   -0.3042   -7.4639    3.7499 O   0  0  0  0  0  0  0  0  0  0  0  0
    0.7276   -7.7780    2.8977 C   0  0  0  0  0  0  0  0  0  0  0  0
    1.0679   -9.0984    2.4781 C   0  0  0  0  0  0  0  0  0  0  0  0
    2.2898   -9.3575    1.8166 C   0  0  0  0  0  0  0  0  0  0  0  0
    3.1246   -8.2930    1.4272 C   0  0  0  0  0  0  0  0  0  0  0  0
    2.5786   -7.0004    1.5932 C   0  0  0  0  0  0  0  0  0  0  0  0
    1.5567   -6.7183    2.5000 C   0  0  0  0  0  0  0  0  0  0  0  0
    1.9053   -5.6326    3.2749 O   0  0  0  0  0  0  0  0  0  0  0  0
    3.3350   -5.6486    3.0812 C   0  0  2  0  0  0  0  0  0  0  0  0
    4.4034   -4.7864    3.7349 C   0  0  0  0  0  0  0  0  0  0  0  0
    5.8268   -5.4235    3.4815 C   0  0  0  0  0  0  0  0  0  0  0  0
    5.8695   -6.8391    2.9201 N   0  0  2  0  0  0  0  0  0  0  0  0
    7.1495   -7.5082    3.2682 C   0  0  0  0  0  0  0  0  0  0  0  0
    5.5325   -7.0674    1.4599 C   0  0  1  0  0  0  0  0  0  0  0  0
    4.6611   -8.3583    1.1715 C   0  0  0  0  0  0  0  0  0  0  0  0
    4.7228   -5.9708    0.8070 C   0  0  2  0  0  0  0  0  0  0  0  0
    5.2307   -4.5738    0.5963 C   0  0  0  0  0  0  0  0  0  0  0  0
    4.2036   -3.7272    0.6774 C   0  0  0  0  0  0  0  0  0  0  0  0
    2.8813   -4.4435    0.9059 C   0  0  1  0  0  0  0  0  0  0  0  0
    2.1768   -4.6953   -0.3159 O   0  0  0  0  0  0  0  0  0  0  0  0
    1.8493   -3.5399   -1.0865 C   0  0  0  0  0  0  0  0  0  0  0  0
    2.7652   -3.3160   -2.2784 C   0  0  0  0  0  0  0  0  0  0  0  0
    3.7507   -2.4046   -2.4351 C   0  0  0  0  0  0  0  0  0  0  0  0
    4.1448   -1.3406   -1.4249 C   0  0  0  0  0  0  0  0  0  0  0  0
    4.6042   -2.3763   -3.6863 C   0  0  0  0  0  0  0  0  0  0  0  0
    3.3995   -5.7681    1.5464 C   0  0  1  0  0  0  0  0  0  0  0  0
   -1.8842   -8.0966    4.8809 H   0  0  0  0  0  0  0  0  0  0  0  0
   -0.5762   -9.2580    4.7721 H   0  0  0  0  0  0  0  0  0  0  0  0
   -1.6583   -8.9958    3.3820 H   0  0  0  0  0  0  0  0  0  0  0  0
    0.4764   -9.9378    2.7833 H   0  0  0  0  0  0  0  0  0  0  0  0
    2.6423  -10.3734    1.7098 H   0  0  0  0  0  0  0  0  0  0  0  0
    3.5856   -6.5812    3.6099 H   0  0  0  0  0  0  0  0  0  0  0  0
    4.3693   -3.7508    3.3858 H   0  0  0  0  0  0  0  0  0  0  0  0
    4.2096   -4.7526    4.8110 H   0  0  0  0  0  0  0  0  0  0  0  0
    6.4571   -4.7503    2.8896 H   0  0  0  0  0  0  0  0  0  0  0  0
    6.3057   -5.4517    4.4669 H   0  0  0  0  0  0  0  0  0  0  0  0
    7.9995   -6.9865    2.8017 H   0  0  0  0  0  0  0  0  0  0  0  0
    7.1450   -8.5484    2.9167 H   0  0  0  0  0  0  0  0  0  0  0  0
    7.2966   -7.5184    4.3563 H   0  0  0  0  0  0  0  0  0  0  0  0
    6.4762   -7.1407    0.9052 H   0  0  0  0  0  0  0  0  0  0  0  0
    5.0780   -9.2003    1.7315 H   0  0  0  0  0  0  0  0  0  0  0  0
    4.7824   -8.6102    0.1139 H   0  0  0  0  0  0  0  0  0  0  0  0
    4.5086   -6.3080   -0.2141 H   0  0  0  0  0  0  0  0  0  0  0  0
    6.2687   -4.3312    0.4221 H   0  0  0  0  0  0  0  0  0  0  0  0
    4.2808   -2.6562    0.6634 H   0  0  0  0  0  0  0  0  0  0  0  0
    2.2554   -3.8712    1.5847 H   0  0  0  0  0  0  0  0  0  0  0  0
    0.8471   -3.6543   -1.5014 H   0  0  0  0  0  0  0  0  0  0  0  0
    1.8321   -2.6722   -0.4332 H   0  0  0  0  0  0  0  0  0  0  0  0
    2.5730   -3.9791   -3.1098 H   0  0  0  0  0  0  0  0  0  0  0  0
    4.2353   -0.3586   -1.8887 H   0  0  0  0  0  0  0  0  0  0  0  0
    5.1191   -1.5990   -1.0057 H   0  0  0  0  0  0  0  0  0  0  0  0
    3.4339   -1.2716   -0.6001 H   0  0  0  0  0  0  0  0  0  0  0  0
    4.5541   -1.3908   -4.1538 H   0  0  0  0  0  0  0  0  0  0  0  0
    4.2881   -3.1317   -4.4068 H   0  0  0  0  0  0  0  0  0  0  0  0
    5.6422   -2.5879   -3.4195 H   0  0  0  0  0  0  0  0  0  0  0  0
    5.1469   -7.3449    3.4263 H   0  0  0  0  0  0  0  0  0  0  0  0
  1  2  1  0
  1 28  1  0
  1 29  1  0
  1 30  1  0
  2  3  1  0
  3  8  2  0
  3  4  1  0
  4  5  2  0
  4 31  1  0
  5  6  1  0
  5 32  1  0
  6 16  1  0
  6  7  2  0
 27  7  1  6
  7  8  1  0
  8  9  1  0
  9 10  1  0
 10 27  1  0
 10 11  1  0
 10 33  1  1
 11 12  1  0
 11 34  1  0
 11 35  1  0
 12 13  1  0
 12 36  1  0
 12 37  1  0
 13 14  1  0
 13 15  1  0
 13 57  1  1
 14 38  1  0
 14 39  1  0
 14 40  1  0
 15 16  1  0
 15 17  1  0
 15 41  1  6
 16 42  1  0
 16 43  1  0
 17 27  1  0
 17 18  1  0
 17 44  1  6
 18 19  2  0
 18 45  1  0
 19 20  1  0
 19 46  1  0
 20 21  1  0
 20 27  1  0
 20 47  1  1
 21 22  1  0
 22 23  1  0
 22 48  1  0
 22 49  1  0
 23 24  2  3
 23 50  1  0
 24 25  1  0
 24 26  1  0
 25 51  1  0
 25 52  1  0
 25 53  1  0
 26 54  1  0
 26 55  1  0
 26 56  1  0
M  CHG  1  13   1
M  END
>  <i_m_ct_stereo_status>  (14) 
1

>  <s_m_source_file>  (14) 
/var/tmp/pbs.5076255.sched01/tmpmzpp47sj/0ood7iq68.sdf

>  <i_m_source_file_index>  (14) 
5

>  <i_lp_mmshare_version>  (14) 
48012

>  <i_f3d_flags>  (14) 
0

>  <s_epik_input>  (14) 
W0NAXTEyM2M0YzVbY0hdW2NIXWMoT1tDSDNdKWM0T1tDQEBIXTFbQ0gyXVtDSDJdTihbQ0gzXSlbQ0BASF0oW0NIMl01KVtDQEBIXTJbQ0hdPVtDSF1bQ0BIXTNPW0NIMl1bQ0hdPUMoW0NIM10pW0NIM10=

>  <s_epik_cmdline>  (14) 
J2VwaWtfcHl0aG9uJywgJy1waHQnLCAnMi4wJywgJy1waCcsICc3LjAnLCAnLXRuJywgJzgnLCAnLW1hJywgJzIwMCcsICctaW1hZScsICc8aW5maWxlLm1hZT4nLCAnLW9tYWUnLCAnPG91dGZpbGUubWFlPic=

>  <r_lp_tautomer_probability>  (14) 
1

>  <r_epik_Ionization_Penalty>  (14) 
0.054021

>  <r_epik_Ionization_Penalty_Charging>  (14) 
0.054021

>  <r_epik_Ionization_Penalty_Neutral>  (14) 
1.8826e-13

>  <r_epik_State_Penalty>  (14) 
0.0464456

>  <r_epik_Charging_Adjusted_Penalty>  (14) 
0.100467

>  <i_epik_Tot_Q>  (14) 
1

>  <i_epik_Tot_abs_Q>  (14) 
1

>  <s_lp_Force_Field>  (14) 
OPLS3e

>  <r_lp_Energy>  (14) 
107.759

>  <b_lp_Chiralities_Consistent>  (14) 
1

>  <s_lp_Variant>  (14) 
4:0-1

>  <s_i_glide_gridfile>  (14) 
pfpi4k_grid

>  <i_i_glide_lignum>  (14) 
5

>  <i_i_glide_rotatable_bonds>  (14) 
4

>  <r_i_docking_score>  (14) 
-2.49165

>  <r_i_glide_ligand_efficiency>  (14) 
-0.0922835

>  <r_i_glide_ligand_efficiency_sa>  (14) 
-0.27685

>  <r_i_glide_ligand_efficiency_ln>  (14) 
-0.580016

>  <r_i_glide_gscore>  (14) 
-2.49165

>  <r_i_glide_lipo>  (14) 
-0.499556

>  <r_i_glide_hbond>  (14) 
0

>  <r_i_glide_metal>  (14) 
-0

>  <r_i_glide_rewards>  (14) 
-0.896665

>  <r_i_glide_evdw>  (14) 
-24.0979

>  <r_i_glide_ecoul>  (14) 
-2.10864

>  <r_i_glide_erotb>  (14) 
0.425758

>  <r_i_glide_esite>  (14) 
0

>  <r_i_glide_emodel>  (14) 
-29.8147

>  <r_i_glide_energy>  (14) 
-26.2065

>  <r_i_glide_einternal>  (14) 
2.98223

>  <r_i_glide_intrahb_reward>  (14) 
-0

>  <i_i_glide_confnum>  (14) 
4

>  <i_i_glide_posenum>  (14) 
4

>  <r_i_glide_eff_state_penalty>  (14) 
0

>  <ligand_id>  (14) 
4

>  <original_smiles>  (14) 
COc1ccc2c3c1OC1CCN(C)C(C2)C2C=CC(OCC=C(C)C)C312

>  <smiles>  (14) 
[H]C(=C(C([H])([H])[H])C([H])([H])[H])C([H])([H])OC1([H])C([H])=C([H])C2([H])C13c1c4c(OC([H])([H])[H])c([H])c([H])c1C([H])([H])C2([H])[N+]([H])(C([H])([H])[H])C([H])([H])C([H])([H])C3([H])O4

$$$$
4:1:0
     RDKit          3D

 56 60  0  0  1  0  0  0  0  0999 V2000
   -3.7270    3.0542   10.6080 C   0  0  0  0  0  0  0  0  0  0  0  0
   -3.5556    3.1030    9.2111 O   0  0  0  0  0  0  0  0  0  0  0  0
   -2.2651    3.1109    8.7451 C   0  0  0  0  0  0  0  0  0  0  0  0
   -1.2075    3.8383    9.3728 C   0  0  0  0  0  0  0  0  0  0  0  0
   -0.0039    4.0951    8.6590 C   0  0  0  0  0  0  0  0  0  0  0  0
    0.2397    3.4830    7.4050 C   0  0  0  0  0  0  0  0  0  0  0  0
   -0.7177    2.5170    7.0243 C   0  0  0  0  0  0  0  0  0  0  0  0
   -2.0294    2.5042    7.5144 C   0  0  0  0  0  0  0  0  0  0  0  0
   -2.9473    2.4406    6.4716 O   0  0  0  0  0  0  0  0  0  0  0  0
   -2.1050    2.8400    5.3786 C   0  0  2  0  0  0  0  0  0  0  0  0
   -2.4545    3.0953    3.9191 C   0  0  0  0  0  0  0  0  0  0  0  0
   -1.3152    3.9213    3.2267 C   0  0  0  0  0  0  0  0  0  0  0  0
   -0.3038    4.5307    4.1397 N   0  0  0  0  0  0  0  0  0  0  0  0
    0.2850    5.7278    3.5346 C   0  0  0  0  0  0  0  0  0  0  0  0
    0.7666    3.6734    4.7228 C   0  0  1  0  0  0  0  0  0  0  0  0
    1.0962    4.0655    6.2171 C   0  0  0  0  0  0  0  0  0  0  0  0
    0.4158    2.2174    4.8189 C   0  0  2  0  0  0  0  0  0  0  0  0
    0.2918    1.2975    3.6464 C   0  0  0  0  0  0  0  0  0  0  0  0
   -0.5521    0.3152    3.9634 C   0  0  0  0  0  0  0  0  0  0  0  0
   -1.1428    0.4862    5.3598 C   0  0  1  0  0  0  0  0  0  0  0  0
   -0.4936   -0.3535    6.3199 O   0  0  0  0  0  0  0  0  0  0  0  0
   -0.5654   -1.7443    6.0238 C   0  0  0  0  0  0  0  0  0  0  0  0
   -0.1497   -2.5595    7.2339 C   0  0  0  0  0  0  0  0  0  0  0  0
   -0.8116   -3.5822    7.8119 C   0  0  0  0  0  0  0  0  0  0  0  0
   -2.1263   -4.1706    7.3210 C   0  0  0  0  0  0  0  0  0  0  0  0
   -0.2595   -4.2737    9.0443 C   0  0  0  0  0  0  0  0  0  0  0  0
   -0.8429    1.9988    5.6402 C   0  0  1  0  0  0  0  0  0  0  0  0
   -4.7858    2.9473   10.8406 H   0  0  0  0  0  0  0  0  0  0  0  0
   -3.3547    3.9352   11.1319 H   0  0  0  0  0  0  0  0  0  0  0  0
   -3.2240    2.1640   10.9630 H   0  0  0  0  0  0  0  0  0  0  0  0
   -1.3975    4.3786   10.2851 H   0  0  0  0  0  0  0  0  0  0  0  0
    0.6463    4.8799    9.0097 H   0  0  0  0  0  0  0  0  0  0  0  0
   -1.9650    3.8867    5.6741 H   0  0  0  0  0  0  0  0  0  0  0  0
   -2.6589    2.1647    3.3856 H   0  0  0  0  0  0  0  0  0  0  0  0
   -3.3732    3.6733    3.8649 H   0  0  0  0  0  0  0  0  0  0  0  0
   -0.8248    3.2873    2.4947 H   0  0  0  0  0  0  0  0  0  0  0  0
   -1.7903    4.7159    2.6496 H   0  0  0  0  0  0  0  0  0  0  0  0
    0.9292    6.2406    4.2585 H   0  0  0  0  0  0  0  0  0  0  0  0
   -0.5044    6.4293    3.2482 H   0  0  0  0  0  0  0  0  0  0  0  0
    0.8796    5.4979    2.6456 H   0  0  0  0  0  0  0  0  0  0  0  0
    1.6676    3.7848    4.1151 H   0  0  0  0  0  0  0  0  0  0  0  0
    1.1074    5.1489    6.3088 H   0  0  0  0  0  0  0  0  0  0  0  0
    2.1129    3.7389    6.4405 H   0  0  0  0  0  0  0  0  0  0  0  0
    1.2384    1.7428    5.3594 H   0  0  0  0  0  0  0  0  0  0  0  0
    0.8196    1.4044    2.7148 H   0  0  0  0  0  0  0  0  0  0  0  0
   -0.8420   -0.4822    3.3014 H   0  0  0  0  0  0  0  0  0  0  0  0
   -2.2158    0.2733    5.3712 H   0  0  0  0  0  0  0  0  0  0  0  0
   -1.5685   -1.9660    5.6731 H   0  0  0  0  0  0  0  0  0  0  0  0
    0.1037   -2.0257    5.2071 H   0  0  0  0  0  0  0  0  0  0  0  0
    0.8019   -2.2618    7.6575 H   0  0  0  0  0  0  0  0  0  0  0  0
   -2.8352   -4.2364    8.1468 H   0  0  0  0  0  0  0  0  0  0  0  0
   -1.9589   -5.1857    6.9636 H   0  0  0  0  0  0  0  0  0  0  0  0
   -2.6014   -3.6166    6.5165 H   0  0  0  0  0  0  0  0  0  0  0  0
   -0.9653   -4.1948    9.8728 H   0  0  0  0  0  0  0  0  0  0  0  0
    0.6870   -3.8382    9.3692 H   0  0  0  0  0  0  0  0  0  0  0  0
   -0.0927   -5.3323    8.8464 H   0  0  0  0  0  0  0  0  0  0  0  0
  1  2  1  0
  1 28  1  0
  1 29  1  0
  1 30  1  0
  2  3  1  0
  3  8  2  0
  3  4  1  0
  4  5  2  0
  4 31  1  0
  5  6  1  0
  5 32  1  0
  6 16  1  0
  6  7  2  0
 27  7  1  1
  7  8  1  0
  8  9  1  0
  9 10  1  0
 10 27  1  0
 10 11  1  0
 10 33  1  1
 11 12  1  0
 11 34  1  0
 11 35  1  0
 12 13  1  0
 12 36  1  0
 12 37  1  0
 13 14  1  0
 13 15  1  0
 14 38  1  0
 14 39  1  0
 14 40  1  0
 15 16  1  0
 15 17  1  0
 15 41  1  6
 16 42  1  0
 16 43  1  0
 17 27  1  0
 17 18  1  0
 17 44  1  1
 18 19  2  0
 18 45  1  0
 19 20  1  0
 19 46  1  0
 20 21  1  0
 20 27  1  0
 20 47  1  6
 21 22  1  0
 22 23  1  0
 22 48  1  0
 22 49  1  0
 23 24  2  3
 23 50  1  0
 24 25  1  0
 24 26  1  0
 25 51  1  0
 25 52  1  0
 25 53  1  0
 26 54  1  0
 26 55  1  0
 26 56  1  0
M  END
>  <i_m_ct_stereo_status>  (15) 
1

>  <s_m_source_file>  (15) 
/var/tmp/pbs.5076255.sched01/tmpmzpp47sj/0ood7iq68.sdf

>  <i_m_source_file_index>  (15) 
6

>  <i_lp_mmshare_version>  (15) 
48012

>  <i_f3d_flags>  (15) 
0

>  <s_epik_input>  (15) 
W0NAXTEyM2M0YzVbY0hdW2NIXWMoT1tDSDNdKWM0T1tDQEBIXTFbQ0gyXVtDSDJdTihbQ0gzXSlbQ0BASF0oW0NIMl01KVtDQEBIXTJbQ0hdPVtDSF1bQ0BIXTNPW0NIMl1bQ0hdPUMoW0NIM10pW0NIM10=

>  <s_epik_cmdline>  (15) 
J2VwaWtfcHl0aG9uJywgJy1waHQnLCAnMi4wJywgJy1waCcsICc3LjAnLCAnLXRuJywgJzgnLCAnLW1hJywgJzIwMCcsICctaW1hZScsICc8aW5maWxlLm1hZT4nLCAnLW9tYWUnLCAnPG91dGZpbGUubWFlPic=

>  <r_lp_tautomer_probability>  (15) 
1

>  <r_epik_Ionization_Penalty>  (15) 
1.44578

>  <r_epik_Ionization_Penalty_Charging>  (15) 
0

>  <r_epik_Ionization_Penalty_Neutral>  (15) 
1.44578

>  <r_epik_State_Penalty>  (15) 
1.53157

>  <r_epik_Charging_Adjusted_Penalty>  (15) 
1.53157

>  <i_epik_Tot_Q>  (15) 
0

>  <i_epik_Tot_abs_Q>  (15) 
0

>  <s_lp_Force_Field>  (15) 
OPLS3e

>  <r_lp_Energy>  (15) 
103.458

>  <b_lp_Chiralities_Consistent>  (15) 
1

>  <s_lp_Variant>  (15) 
4:0-2

>  <s_i_glide_gridfile>  (15) 
pfpi4k_grid

>  <i_i_glide_lignum>  (15) 
6

>  <i_i_glide_rotatable_bonds>  (15) 
4

>  <r_i_docking_score>  (15) 
-2.3751

>  <r_i_glide_ligand_efficiency>  (15) 
-0.0879667

>  <r_i_glide_ligand_efficiency_sa>  (15) 
-0.2639

>  <r_i_glide_ligand_efficiency_ln>  (15) 
-0.552884

>  <r_i_glide_gscore>  (15) 
-2.3751

>  <r_i_glide_lipo>  (15) 
-0.0361435

>  <r_i_glide_hbond>  (15) 
0

>  <r_i_glide_metal>  (15) 
-0

>  <r_i_glide_rewards>  (15) 
-0.903537

>  <r_i_glide_evdw>  (15) 
-22.6117

>  <r_i_glide_ecoul>  (15) 
-4.88456

>  <r_i_glide_erotb>  (15) 
0.427846

>  <r_i_glide_esite>  (15) 
0

>  <r_i_glide_emodel>  (15) 
-28.9886

>  <r_i_glide_energy>  (15) 
-27.4962

>  <r_i_glide_einternal>  (15) 
4.02407

>  <r_i_glide_intrahb_reward>  (15) 
-0

>  <i_i_glide_confnum>  (15) 
2

>  <i_i_glide_posenum>  (15) 
3

>  <r_i_glide_eff_state_penalty>  (15) 
0

>  <ligand_id>  (15) 
4

>  <original_smiles>  (15) 
COc1ccc2c3c1OC1CCN(C)C(C2)C2C=CC(OCC=C(C)C)C312

>  <smiles>  (15) 
[H]C(=C(C([H])([H])[H])C([H])([H])[H])C([H])([H])OC1([H])C([H])=C([H])C2([H])C3([H])N(C([H])([H])[H])C([H])([H])C([H])([H])C4([H])Oc5c(OC([H])([H])[H])c([H])c([H])c(c5C142)C3([H])[H]

$$$$
4:1:1
     RDKit          3D

 56 60  0  0  1  0  0  0  0  0999 V2000
   -1.6578   -7.2843    4.4657 C   0  0  0  0  0  0  0  0  0  0  0  0
   -0.5214   -6.5578    4.0479 O   0  0  0  0  0  0  0  0  0  0  0  0
    0.3479   -7.1543    3.1668 C   0  0  0  0  0  0  0  0  0  0  0  0
    0.2976   -8.5277    2.7871 C   0  0  0  0  0  0  0  0  0  0  0  0
    1.3837   -9.1270    2.1072 C   0  0  0  0  0  0  0  0  0  0  0  0
    2.4521   -8.3422    1.6419 C   0  0  0  0  0  0  0  0  0  0  0  0
    2.2644   -6.9538    1.7501 C   0  0  0  0  0  0  0  0  0  0  0  0
    1.4021   -6.3693    2.6842 C   0  0  0  0  0  0  0  0  0  0  0  0
    2.0740   -5.3772    3.3975 O   0  0  0  0  0  0  0  0  0  0  0  0
    3.4373   -5.7687    3.1213 C   0  0  2  0  0  0  0  0  0  0  0  0
    4.7384   -5.1813    3.6687 C   0  0  0  0  0  0  0  0  0  0  0  0
    5.9404   -6.1551    3.3668 C   0  0  0  0  0  0  0  0  0  0  0  0
    5.5731   -7.5232    2.8990 N   0  0  0  0  0  0  0  0  0  0  0  0
    6.5747   -8.5092    3.2885 C   0  0  0  0  0  0  0  0  0  0  0  0
    5.1128   -7.7647    1.5055 C   0  0  1  0  0  0  0  0  0  0  0  0
    3.9329   -8.8143    1.3944 C   0  0  0  0  0  0  0  0  0  0  0  0
    4.5387   -6.5635    0.8095 C   0  0  2  0  0  0  0  0  0  0  0  0
    5.3588   -5.3685    0.4458 C   0  0  0  0  0  0  0  0  0  0  0  0
    4.5857   -4.2919    0.5108 C   0  0  0  0  0  0  0  0  0  0  0  0
    3.1549   -4.6089    0.8909 C   0  0  1  0  0  0  0  0  0  0  0  0
    2.2759   -4.7050   -0.2413 O   0  0  0  0  0  0  0  0  0  0  0  0
    2.0780   -3.4871   -0.9612 C   0  0  0  0  0  0  0  0  0  0  0  0
    3.0540   -3.2497   -2.1078 C   0  0  0  0  0  0  0  0  0  0  0  0
    4.0860   -2.3801   -2.1912 C   0  0  0  0  0  0  0  0  0  0  0  0
    4.5084   -1.3734   -1.1287 C   0  0  0  0  0  0  0  0  0  0  0  0
    4.9723   -2.3495   -3.4145 C   0  0  0  0  0  0  0  0  0  0  0  0
    3.3655   -5.9838    1.5961 C   0  0  1  0  0  0  0  0  0  0  0  0
   -2.2135   -6.6542    5.1539 H   0  0  0  0  0  0  0  0  0  0  0  0
   -1.3999   -8.2071    4.9842 H   0  0  0  0  0  0  0  0  0  0  0  0
   -2.3066   -7.5082    3.6199 H   0  0  0  0  0  0  0  0  0  0  0  0
   -0.4755   -9.1774    3.1628 H   0  0  0  0  0  0  0  0  0  0  0  0
    1.4490  -10.2017    2.0411 H   0  0  0  0  0  0  0  0  0  0  0  0
    3.4691   -6.7138    3.6820 H   0  0  0  0  0  0  0  0  0  0  0  0
    4.9258   -4.1738    3.2939 H   0  0  0  0  0  0  0  0  0  0  0  0
    4.6347   -5.0899    4.7500 H   0  0  0  0  0  0  0  0  0  0  0  0
    6.6555   -5.6894    2.6874 H   0  0  0  0  0  0  0  0  0  0  0  0
    6.4878   -6.2570    4.3075 H   0  0  0  0  0  0  0  0  0  0  0  0
    6.2141   -9.5166    3.0626 H   0  0  0  0  0  0  0  0  0  0  0  0
    6.7495   -8.4528    4.3667 H   0  0  0  0  0  0  0  0  0  0  0  0
    7.5234   -8.3498    2.7644 H   0  0  0  0  0  0  0  0  0  0  0  0
    5.9713   -8.1214    0.9302 H   0  0  0  0  0  0  0  0  0  0  0  0
    4.1304   -9.6423    2.0735 H   0  0  0  0  0  0  0  0  0  0  0  0
    3.9409   -9.2278    0.3849 H   0  0  0  0  0  0  0  0  0  0  0  0
    4.1781   -6.8926   -0.1651 H   0  0  0  0  0  0  0  0  0  0  0  0
    6.4018   -5.3997    0.2186 H   0  0  0  0  0  0  0  0  0  0  0  0
    4.9572   -3.2901    0.4274 H   0  0  0  0  0  0  0  0  0  0  0  0
    2.7611   -3.8655    1.5856 H   0  0  0  0  0  0  0  0  0  0  0  0
    1.0859   -3.5218   -1.4125 H   0  0  0  0  0  0  0  0  0  0  0  0
    2.0648   -2.6571   -0.2612 H   0  0  0  0  0  0  0  0  0  0  0  0
    2.8642   -3.8597   -2.9800 H   0  0  0  0  0  0  0  0  0  0  0  0
    4.5219   -0.3531   -1.5088 H   0  0  0  0  0  0  0  0  0  0  0  0
    5.5213   -1.6079   -0.7920 H   0  0  0  0  0  0  0  0  0  0  0  0
    3.8556   -1.3981   -0.2596 H   0  0  0  0  0  0  0  0  0  0  0  0
    5.0015   -1.3380   -3.8255 H   0  0  0  0  0  0  0  0  0  0  0  0
    4.6246   -3.0328   -4.1900 H   0  0  0  0  0  0  0  0  0  0  0  0
    5.9797   -2.6563   -3.1264 H   0  0  0  0  0  0  0  0  0  0  0  0
  1  2  1  0
  1 28  1  0
  1 29  1  0
  1 30  1  0
  2  3  1  0
  3  8  2  0
  3  4  1  0
  4  5  2  0
  4 31  1  0
  5  6  1  0
  5 32  1  0
  6 16  1  0
  6  7  2  0
 27  7  1  1
  7  8  1  0
  8  9  1  0
  9 10  1  0
 10 27  1  0
 10 11  1  0
 10 33  1  1
 11 12  1  0
 11 34  1  0
 11 35  1  0
 12 13  1  0
 12 36  1  0
 12 37  1  0
 13 14  1  0
 13 15  1  0
 14 38  1  0
 14 39  1  0
 14 40  1  0
 15 16  1  0
 15 17  1  0
 15 41  1  6
 16 42  1  0
 16 43  1  0
 17 27  1  0
 17 18  1  0
 17 44  1  6
 18 19  2  0
 18 45  1  0
 19 20  1  0
 19 46  1  0
 20 21  1  0
 20 27  1  0
 20 47  1  1
 21 22  1  0
 22 23  1  0
 22 48  1  0
 22 49  1  0
 23 24  2  3
 23 50  1  0
 24 25  1  0
 24 26  1  0
 25 51  1  0
 25 52  1  0
 25 53  1  0
 26 54  1  0
 26 55  1  0
 26 56  1  0
M  END
>  <i_m_ct_stereo_status>  (16) 
1

>  <s_m_source_file>  (16) 
/var/tmp/pbs.5076255.sched01/tmpmzpp47sj/0ood7iq68.sdf

>  <i_m_source_file_index>  (16) 
6

>  <i_lp_mmshare_version>  (16) 
48012

>  <i_f3d_flags>  (16) 
0

>  <s_epik_input>  (16) 
W0NAXTEyM2M0YzVbY0hdW2NIXWMoT1tDSDNdKWM0T1tDQEBIXTFbQ0gyXVtDSDJdTihbQ0gzXSlbQ0BASF0oW0NIMl01KVtDQEBIXTJbQ0hdPVtDSF1bQ0BIXTNPW0NIMl1bQ0hdPUMoW0NIM10pW0NIM10=

>  <s_epik_cmdline>  (16) 
J2VwaWtfcHl0aG9uJywgJy1waHQnLCAnMi4wJywgJy1waCcsICc3LjAnLCAnLXRuJywgJzgnLCAnLW1hJywgJzIwMCcsICctaW1hZScsICc8aW5maWxlLm1hZT4nLCAnLW9tYWUnLCAnPG91dGZpbGUubWFlPic=

>  <r_lp_tautomer_probability>  (16) 
1

>  <r_epik_Ionization_Penalty>  (16) 
1.44578

>  <r_epik_Ionization_Penalty_Charging>  (16) 
0

>  <r_epik_Ionization_Penalty_Neutral>  (16) 
1.44578

>  <r_epik_State_Penalty>  (16) 
1.53157

>  <r_epik_Charging_Adjusted_Penalty>  (16) 
1.53157

>  <i_epik_Tot_Q>  (16) 
0

>  <i_epik_Tot_abs_Q>  (16) 
0

>  <s_lp_Force_Field>  (16) 
OPLS3e

>  <r_lp_Energy>  (16) 
103.458

>  <b_lp_Chiralities_Consistent>  (16) 
1

>  <s_lp_Variant>  (16) 
4:0-2

>  <s_i_glide_gridfile>  (16) 
pfpi4k_grid

>  <i_i_glide_lignum>  (16) 
6

>  <i_i_glide_rotatable_bonds>  (16) 
4

>  <r_i_docking_score>  (16) 
-2.19473

>  <r_i_glide_ligand_efficiency>  (16) 
-0.0812865

>  <r_i_glide_ligand_efficiency_sa>  (16) 
-0.243859

>  <r_i_glide_ligand_efficiency_ln>  (16) 
-0.510898

>  <r_i_glide_gscore>  (16) 
-2.19473

>  <r_i_glide_lipo>  (16) 
-0.435638

>  <r_i_glide_hbond>  (16) 
-0.025657

>  <r_i_glide_metal>  (16) 
-0

>  <r_i_glide_rewards>  (16) 
-0.903537

>  <r_i_glide_evdw>  (16) 
-25.1795

>  <r_i_glide_ecoul>  (16) 
0.00817525

>  <r_i_glide_erotb>  (16) 
0.427846

>  <r_i_glide_esite>  (16) 
0

>  <r_i_glide_emodel>  (16) 
-26.7858

>  <r_i_glide_energy>  (16) 
-25.1713

>  <r_i_glide_einternal>  (16) 
2.28232

>  <r_i_glide_intrahb_reward>  (16) 
-0

>  <i_i_glide_confnum>  (16) 
3

>  <i_i_glide_posenum>  (16) 
18

>  <r_i_glide_eff_state_penalty>  (16) 
0

>  <ligand_id>  (16) 
4

>  <original_smiles>  (16) 
COc1ccc2c3c1OC1CCN(C)C(C2)C2C=CC(OCC=C(C)C)C312

>  <smiles>  (16) 
[H]C(=C(C([H])([H])[H])C([H])([H])[H])C([H])([H])OC1([H])C([H])=C([H])C2([H])C3([H])N(C([H])([H])[H])C([H])([H])C([H])([H])C4([H])Oc5c(OC([H])([H])[H])c([H])c([H])c(c5C142)C3([H])[H]

$$$$
4:1:2
     RDKit          3D

 56 60  0  0  1  0  0  0  0  0999 V2000
   -1.4072   -8.8371    2.6424 C   0  0  0  0  0  0  0  0  0  0  0  0
   -0.6768   -7.6217    2.5717 O   0  0  0  0  0  0  0  0  0  0  0  0
    0.6758   -7.6819    2.3051 C   0  0  0  0  0  0  0  0  0  0  0  0
    1.4060   -8.8804    2.0809 C   0  0  0  0  0  0  0  0  0  0  0  0
    2.8269   -8.8779    2.0679 C   0  0  0  0  0  0  0  0  0  0  0  0
    3.5387   -7.6585    2.1292 C   0  0  0  0  0  0  0  0  0  0  0  0
    2.7451   -6.4972    2.0252 C   0  0  0  0  0  0  0  0  0  0  0  0
    1.3824   -6.4635    2.3465 C   0  0  0  0  0  0  0  0  0  0  0  0
    1.1147   -5.4045    3.2009 O   0  0  0  0  0  0  0  0  0  0  0  0
    2.4478   -5.1561    3.6994 C   0  0  2  0  0  0  0  0  0  0  0  0
    2.9160   -4.1906    4.7833 C   0  0  0  0  0  0  0  0  0  0  0  0
    4.3850   -4.5358    5.2324 C   0  0  0  0  0  0  0  0  0  0  0  0
    4.9183   -5.8474    4.7695 N   0  0  0  0  0  0  0  0  0  0  0  0
    5.8925   -6.3945    5.7067 C   0  0  0  0  0  0  0  0  0  0  0  0
    5.3580   -6.0382    3.3609 C   0  0  1  0  0  0  0  0  0  0  0  0
    4.9624   -7.4477    2.7576 C   0  0  0  0  0  0  0  0  0  0  0  0
    4.7541   -5.0606    2.3852 C   0  0  2  0  0  0  0  0  0  0  0  0
    5.0581   -3.5938    2.3587 C   0  0  0  0  0  0  0  0  0  0  0  0
    4.0084   -2.9468    1.8617 C   0  0  0  0  0  0  0  0  0  0  0  0
    2.8552   -3.8892    1.5299 C   0  0  1  0  0  0  0  0  0  0  0  0
    2.8607   -4.2016    0.1373 O   0  0  0  0  0  0  0  0  0  0  0  0
    2.5012   -3.1133   -0.7111 C   0  0  0  0  0  0  0  0  0  0  0  0
    2.9789   -3.3381   -2.1283 C   0  0  0  0  0  0  0  0  0  0  0  0
    4.1260   -2.9010   -2.6807 C   0  0  0  0  0  0  0  0  0  0  0  0
    5.1646   -2.0562   -1.9646 C   0  0  0  0  0  0  0  0  0  0  0  0
    4.4822   -3.2458   -4.1086 C   0  0  0  0  0  0  0  0  0  0  0  0
    3.2375   -5.1433    2.3804 C   0  0  1  0  0  0  0  0  0  0  0  0
   -2.4521   -8.6162    2.8584 H   0  0  0  0  0  0  0  0  0  0  0  0
   -1.0399   -9.4800    3.4425 H   0  0  0  0  0  0  0  0  0  0  0  0
   -1.3795   -9.3787    1.6972 H   0  0  0  0  0  0  0  0  0  0  0  0
    0.9042   -9.8358    2.0809 H   0  0  0  0  0  0  0  0  0  0  0  0
    3.3465   -9.8217    2.1583 H   0  0  0  0  0  0  0  0  0  0  0  0
    2.5963   -6.0831    4.2693 H   0  0  0  0  0  0  0  0  0  0  0  0
    2.8226   -3.1520    4.4618 H   0  0  0  0  0  0  0  0  0  0  0  0
    2.2574   -4.3073    5.6450 H   0  0  0  0  0  0  0  0  0  0  0  0
    5.0707   -3.7325    4.9717 H   0  0  0  0  0  0  0  0  0  0  0  0
    4.3741   -4.5460    6.3248 H   0  0  0  0  0  0  0  0  0  0  0  0
    6.1558   -7.4190    5.4306 H   0  0  0  0  0  0  0  0  0  0  0  0
    5.4649   -6.4289    6.7116 H   0  0  0  0  0  0  0  0  0  0  0  0
    6.8070   -5.7963    5.7360 H   0  0  0  0  0  0  0  0  0  0  0  0
    6.4470   -5.9332    3.3325 H   0  0  0  0  0  0  0  0  0  0  0  0
    5.1075   -8.2105    3.5185 H   0  0  0  0  0  0  0  0  0  0  0  0
    5.6592   -7.6860    1.9579 H   0  0  0  0  0  0  0  0  0  0  0  0
    5.0993   -5.3688    1.3979 H   0  0  0  0  0  0  0  0  0  0  0  0
    5.9952   -3.1570    2.6549 H   0  0  0  0  0  0  0  0  0  0  0  0
    3.9416   -1.8776    1.7213 H   0  0  0  0  0  0  0  0  0  0  0  0
    1.8907   -3.4646    1.8261 H   0  0  0  0  0  0  0  0  0  0  0  0
    1.4181   -3.0595   -0.7379 H   0  0  0  0  0  0  0  0  0  0  0  0
    2.8260   -2.1353   -0.3599 H   0  0  0  0  0  0  0  0  0  0  0  0
    2.2997   -3.9093   -2.7414 H   0  0  0  0  0  0  0  0  0  0  0  0
    5.3994   -1.1704   -2.5558 H   0  0  0  0  0  0  0  0  0  0  0  0
    6.0772   -2.6357   -1.8332 H   0  0  0  0  0  0  0  0  0  0  0  0
    4.8373   -1.7175   -0.9841 H   0  0  0  0  0  0  0  0  0  0  0  0
    4.6056   -2.3303   -4.6859 H   0  0  0  0  0  0  0  0  0  0  0  0
    3.7102   -3.8527   -4.5814 H   0  0  0  0  0  0  0  0  0  0  0  0
    5.4103   -3.8178   -4.1312 H   0  0  0  0  0  0  0  0  0  0  0  0
  1  2  1  0
  1 28  1  0
  1 29  1  0
  1 30  1  0
  2  3  1  0
  3  8  2  0
  3  4  1  0
  4  5  2  0
  4 31  1  0
  5  6  1  0
  5 32  1  0
  6 16  1  0
  6  7  2  0
 27  7  1  6
  7  8  1  0
  8  9  1  0
  9 10  1  0
 10 27  1  0
 10 11  1  0
 10 33  1  1
 11 12  1  0
 11 34  1  0
 11 35  1  0
 12 13  1  0
 12 36  1  0
 12 37  1  0
 13 14  1  0
 13 15  1  0
 14 38  1  0
 14 39  1  0
 14 40  1  0
 15 16  1  0
 15 17  1  0
 15 41  1  1
 16 42  1  0
 16 43  1  0
 17 27  1  0
 17 18  1  0
 17 44  1  6
 18 19  2  0
 18 45  1  0
 19 20  1  0
 19 46  1  0
 20 21  1  0
 20 27  1  0
 20 47  1  1
 21 22  1  0
 22 23  1  0
 22 48  1  0
 22 49  1  0
 23 24  2  3
 23 50  1  0
 24 25  1  0
 24 26  1  0
 25 51  1  0
 25 52  1  0
 25 53  1  0
 26 54  1  0
 26 55  1  0
 26 56  1  0
M  END
>  <i_m_ct_stereo_status>  (17) 
1

>  <s_m_source_file>  (17) 
/var/tmp/pbs.5076255.sched01/tmpmzpp47sj/0ood7iq68.sdf

>  <i_m_source_file_index>  (17) 
6

>  <i_lp_mmshare_version>  (17) 
48012

>  <i_f3d_flags>  (17) 
0

>  <s_epik_input>  (17) 
W0NAXTEyM2M0YzVbY0hdW2NIXWMoT1tDSDNdKWM0T1tDQEBIXTFbQ0gyXVtDSDJdTihbQ0gzXSlbQ0BASF0oW0NIMl01KVtDQEBIXTJbQ0hdPVtDSF1bQ0BIXTNPW0NIMl1bQ0hdPUMoW0NIM10pW0NIM10=

>  <s_epik_cmdline>  (17) 
J2VwaWtfcHl0aG9uJywgJy1waHQnLCAnMi4wJywgJy1waCcsICc3LjAnLCAnLXRuJywgJzgnLCAnLW1hJywgJzIwMCcsICctaW1hZScsICc8aW5maWxlLm1hZT4nLCAnLW9tYWUnLCAnPG91dGZpbGUubWFlPic=

>  <r_lp_tautomer_probability>  (17) 
1

>  <r_epik_Ionization_Penalty>  (17) 
1.44578

>  <r_epik_Ionization_Penalty_Charging>  (17) 
0

>  <r_epik_Ionization_Penalty_Neutral>  (17) 
1.44578

>  <r_epik_State_Penalty>  (17) 
1.53157

>  <r_epik_Charging_Adjusted_Penalty>  (17) 
1.53157

>  <i_epik_Tot_Q>  (17) 
0

>  <i_epik_Tot_abs_Q>  (17) 
0

>  <s_lp_Force_Field>  (17) 
OPLS3e

>  <r_lp_Energy>  (17) 
103.458

>  <b_lp_Chiralities_Consistent>  (17) 
1

>  <s_lp_Variant>  (17) 
4:0-2

>  <s_i_glide_gridfile>  (17) 
pfpi4k_grid

>  <i_i_glide_lignum>  (17) 
6

>  <i_i_glide_rotatable_bonds>  (17) 
4

>  <r_i_docking_score>  (17) 
-1.97799

>  <r_i_glide_ligand_efficiency>  (17) 
-0.0732588

>  <r_i_glide_ligand_efficiency_sa>  (17) 
-0.219776

>  <r_i_glide_ligand_efficiency_ln>  (17) 
-0.460443

>  <r_i_glide_gscore>  (17) 
-1.97799

>  <r_i_glide_lipo>  (17) 
-0.157066

>  <r_i_glide_hbond>  (17) 
0

>  <r_i_glide_metal>  (17) 
-0

>  <r_i_glide_rewards>  (17) 
-0.903537

>  <r_i_glide_evdw>  (17) 
-22.7131

>  <r_i_glide_ecoul>  (17) 
-1.39719

>  <r_i_glide_erotb>  (17) 
0.427846

>  <r_i_glide_esite>  (17) 
0

>  <r_i_glide_emodel>  (17) 
-25.8109

>  <r_i_glide_energy>  (17) 
-24.1103

>  <r_i_glide_einternal>  (17) 
2.89502

>  <r_i_glide_intrahb_reward>  (17) 
-0

>  <i_i_glide_confnum>  (17) 
3

>  <i_i_glide_posenum>  (17) 
2

>  <r_i_glide_eff_state_penalty>  (17) 
0

>  <ligand_id>  (17) 
4

>  <original_smiles>  (17) 
COc1ccc2c3c1OC1CCN(C)C(C2)C2C=CC(OCC=C(C)C)C312

>  <smiles>  (17) 
[H]C(=C(C([H])([H])[H])C([H])([H])[H])C([H])([H])OC1([H])C([H])=C([H])C2([H])C3([H])N(C([H])([H])[H])C([H])([H])C([H])([H])C4([H])Oc5c(OC([H])([H])[H])c([H])c([H])c(c5C142)C3([H])[H]

$$$$
6:0:0
     RDKit          3D

 79 85  0  0  1  0  0  0  0  0999 V2000
    1.1647    0.0359    4.3305 O   0  0  0  0  0  0  0  0  0  0  0  0
    0.5817    0.6946    3.4604 C   0  0  0  0  0  0  0  0  0  0  0  0
    0.9125    0.6865    2.1595 N   0  0  0  0  0  0  0  0  0  0  0  0
    2.0870    0.0494    1.5759 C   0  0  2  0  0  0  0  0  0  0  0  0
    2.0520   -1.4716    1.7642 C   0  0  0  0  0  0  0  0  0  0  0  0
    3.3115   -2.1491    1.2180 C   0  0  0  0  0  0  0  0  0  0  0  0
    4.6369   -1.5863    1.8341 C   0  0  1  0  0  0  0  0  0  0  0  0
    4.7183   -1.8182    3.3842 C   0  0  0  0  0  0  0  0  0  0  0  0
    4.7780   -3.3002    3.7985 C   0  0  0  0  0  0  0  0  0  0  0  0
    4.3856   -3.5882    5.2076 N   0  0  2  0  0  0  0  0  0  0  0  0
    4.5217   -5.0059    5.6561 C   0  0  1  0  0  0  0  0  0  0  0  0
    3.9753   -4.9205    7.0803 C   0  0  0  0  0  0  0  0  0  0  0  0
    2.9594   -3.7461    7.0449 C   0  0  0  0  0  0  0  0  0  0  0  0
    2.9897   -3.2573    5.6045 C   0  0  2  0  0  0  0  0  0  0  0  0
    1.9691   -4.0166    4.7205 C   0  0  0  0  0  0  0  0  0  0  0  0
    2.1786   -5.5501    4.7411 C   0  0  1  0  0  0  0  0  0  0  0  0
    1.4684   -6.1736    3.6207 N   0  0  0  0  0  0  0  0  0  0  0  0
    1.7146   -6.0117    2.3086 C   0  0  0  0  0  0  0  0  0  0  0  0
    0.8965   -6.6166    1.4452 N   0  0  0  0  0  0  0  0  0  0  0  0
    0.0565   -7.2843    2.3076 C   0  0  0  0  0  0  0  0  0  0  0  0
   -1.0231   -8.1505    2.0617 C   0  0  0  0  0  0  0  0  0  0  0  0
   -1.7466   -8.6382    3.1538 C   0  0  0  0  0  0  0  0  0  0  0  0
   -1.3774   -8.2555    4.4538 C   0  0  0  0  0  0  0  0  0  0  0  0
   -0.3335   -7.4445    4.7524 N   0  0  0  0  0  0  0  0  0  0  0  0
    0.3523   -7.0052    3.6675 C   0  0  0  0  0  0  0  0  0  0  0  0
    3.6766   -5.9549    4.7648 C   0  0  0  0  0  0  0  0  0  0  0  0
    5.8462   -2.2497    1.1255 C   0  0  0  0  0  0  0  0  0  0  0  0
    6.9389   -1.4880    0.6186 C   0  0  0  0  0  0  0  0  0  0  0  0
    8.0655   -2.1217    0.0485 C   0  0  0  0  0  0  0  0  0  0  0  0
    8.1279   -3.5269   -0.0283 C   0  0  0  0  0  0  0  0  0  0  0  0
    7.0534   -4.2955    0.4676 C   0  0  0  0  0  0  0  0  0  0  0  0
    5.9121   -3.6666    0.9975 C   0  0  0  0  0  0  0  0  0  0  0  0
    4.6121   -0.0465    1.5927 C   0  0  0  0  0  0  0  0  0  0  0  0
    3.3759    0.6762    2.1281 C   0  0  0  0  0  0  0  0  0  0  0  0
   -0.5202    1.6230    3.8485 C   0  0  0  0  0  0  0  0  0  0  0  0
   -0.6450    2.0244    5.1922 C   0  0  0  0  0  0  0  0  0  0  0  0
   -1.6954    2.8899    5.5344 C   0  0  0  0  0  0  0  0  0  0  0  0
   -2.5869    3.3491    4.6356 N   0  0  0  0  0  0  0  0  0  0  0  0
   -2.4643    2.9593    3.3480 C   0  0  0  0  0  0  0  0  0  0  0  0
   -1.4521    2.0968    2.8983 C   0  0  0  0  0  0  0  0  0  0  0  0
    0.3603    1.2590    1.5325 H   0  0  0  0  0  0  0  0  0  0  0  0
    2.0789    0.2329    0.5044 H   0  0  0  0  0  0  0  0  0  0  0  0
    1.9540   -1.7353    2.8125 H   0  0  0  0  0  0  0  0  0  0  0  0
    1.1639   -1.8726    1.2783 H   0  0  0  0  0  0  0  0  0  0  0  0
    3.1810   -3.2180    1.3814 H   0  0  0  0  0  0  0  0  0  0  0  0
    3.3381   -2.0190    0.1325 H   0  0  0  0  0  0  0  0  0  0  0  0
    5.5836   -1.3116    3.8281 H   0  0  0  0  0  0  0  0  0  0  0  0
    3.8568   -1.3338    3.8541 H   0  0  0  0  0  0  0  0  0  0  0  0
    4.1218   -3.8957    3.1794 H   0  0  0  0  0  0  0  0  0  0  0  0
    5.7888   -3.6964    3.7205 H   0  0  0  0  0  0  0  0  0  0  0  0
    5.5718   -5.2857    5.6180 H   0  0  0  0  0  0  0  0  0  0  0  0
    3.5361   -5.8552    7.4206 H   0  0  0  0  0  0  0  0  0  0  0  0
    4.7871   -4.6586    7.7580 H   0  0  0  0  0  0  0  0  0  0  0  0
    1.9493   -4.0271    7.3370 H   0  0  0  0  0  0  0  0  0  0  0  0
    3.3069   -2.9447    7.6921 H   0  0  0  0  0  0  0  0  0  0  0  0
    2.8028   -2.1849    5.5525 H   0  0  0  0  0  0  0  0  0  0  0  0
    0.9610   -3.7700    5.0333 H   0  0  0  0  0  0  0  0  0  0  0  0
    2.0371   -3.6641    3.6927 H   0  0  0  0  0  0  0  0  0  0  0  0
    1.7261   -5.9060    5.6694 H   0  0  0  0  0  0  0  0  0  0  0  0
    2.5325   -5.3882    1.9734 H   0  0  0  0  0  0  0  0  0  0  0  0
   -1.2831   -8.4350    1.0503 H   0  0  0  0  0  0  0  0  0  0  0  0
   -2.5542   -9.3369    3.0134 H   0  0  0  0  0  0  0  0  0  0  0  0
   -1.9397   -8.6614    5.2761 H   0  0  0  0  0  0  0  0  0  0  0  0
    4.0861   -5.9995    3.7446 H   0  0  0  0  0  0  0  0  0  0  0  0
    3.7579   -6.9799    5.1145 H   0  0  0  0  0  0  0  0  0  0  0  0
    6.9478   -0.4091    0.6570 H   0  0  0  0  0  0  0  0  0  0  0  0
    8.8826   -1.5199   -0.3222 H   0  0  0  0  0  0  0  0  0  0  0  0
    8.9832   -4.0135   -0.4739 H   0  0  0  0  0  0  0  0  0  0  0  0
    7.0850   -5.3759    0.4703 H   0  0  0  0  0  0  0  0  0  0  0  0
    5.1041   -4.3158    1.3145 H   0  0  0  0  0  0  0  0  0  0  0  0
    5.4746    0.4180    2.0666 H   0  0  0  0  0  0  0  0  0  0  0  0
    4.6674    0.1664    0.5221 H   0  0  0  0  0  0  0  0  0  0  0  0
    3.4157    1.7339    1.8649 H   0  0  0  0  0  0  0  0  0  0  0  0
    3.4096    0.6668    3.2167 H   0  0  0  0  0  0  0  0  0  0  0  0
    0.0511    1.6827    5.9410 H   0  0  0  0  0  0  0  0  0  0  0  0
   -1.8212    3.2205    6.5534 H   0  0  0  0  0  0  0  0  0  0  0  0
   -3.2001    3.3390    2.6577 H   0  0  0  0  0  0  0  0  0  0  0  0
   -1.4102    1.8099    1.8596 H   0  0  0  0  0  0  0  0  0  0  0  0
    5.0089   -3.0193    5.8079 H   0  0  0  0  0  0  0  0  0  0  0  0
  1  2  2  0
  2  3  1  0
  2 35  1  0
  3  4  1  0
  3 41  1  0
  4 34  1  0
  4  5  1  0
  4 42  1  6
  5  6  1  0
  5 43  1  0
  5 44  1  0
  6  7  1  0
  6 45  1  0
  6 46  1  0
  7  8  1  1
  7 27  1  0
  7 33  1  0
  8  9  1  0
  8 47  1  0
  8 48  1  0
  9 10  1  0
  9 49  1  0
  9 50  1  0
 10 14  1  0
 10 11  1  0
 10 79  1  1
 11 26  1  0
 11 12  1  0
 11 51  1  1
 12 13  1  0
 12 52  1  0
 12 53  1  0
 13 14  1  0
 13 54  1  0
 13 55  1  0
 14 15  1  0
 14 56  1  1
 15 16  1  0
 15 57  1  0
 15 58  1  0
 16 17  1  0
 16 26  1  0
 16 59  1  1
 17 25  1  0
 17 18  1  0
 18 19  2  0
 18 60  1  0
 19 20  1  0
 20 25  2  0
 20 21  1  0
 21 22  2  0
 21 61  1  0
 22 23  1  0
 22 62  1  0
 23 24  2  0
 23 63  1  0
 24 25  1  0
 26 64  1  0
 26 65  1  0
 27 32  1  0
 27 28  2  0
 28 29  1  0
 28 66  1  0
 29 30  2  0
 29 67  1  0
 30 31  1  0
 30 68  1  0
 31 32  2  0
 31 69  1  0
 32 70  1  0
 33 34  1  0
 33 71  1  0
 33 72  1  0
 34 73  1  0
 34 74  1  0
 35 40  1  0
 35 36  2  0
 36 37  1  0
 36 75  1  0
 37 38  2  0
 37 76  1  0
 38 39  1  0
 39 40  2  0
 39 77  1  0
 40 78  1  0
M  CHG  1  10   1
M  END
>  <i_m_ct_stereo_status>  (18) 
1

>  <s_m_source_file>  (18) 
/var/tmp/pbs.5076255.sched01/tmpmzpp47sj/0ood7iq68.sdf

>  <i_m_source_file_index>  (18) 
13

>  <i_lp_mmshare_version>  (18) 
48012

>  <i_f3d_flags>  (18) 
0

>  <s_epik_input>  (18) 
W2NIXTFbY0hdbltjSF1bY0hdYzFDKD1PKVtOSF1bQ0BASF0oW0NIMl1bQ0gyXTIpW0NIMl1bQ0gyXVtDQF0yKGMzW2NIXVtjSF1bY0hdW2NIXVtjSF0zKVtDSDJdW0NIMl1OKFtDQEBIXTQ1KVtDQEhdKFtDSDJdW0NIMl00KVtDSDJdW0NASF0oW0NIMl01KW4oW2NIXW42KWMoYzY3KW5bY0hdW2NIXVtjSF03

>  <s_epik_cmdline>  (18) 
J2VwaWtfcHl0aG9uJywgJy1waHQnLCAnMi4wJywgJy1waCcsICc3LjAnLCAnLXRuJywgJzgnLCAnLW1hJywgJzIwMCcsICctaW1hZScsICc8aW5maWxlLm1hZT4nLCAnLW9tYWUnLCAnPG91dGZpbGUubWFlPic=

>  <r_lp_tautomer_probability>  (18) 
1

>  <r_epik_Ionization_Penalty>  (18) 
0.00259698

>  <r_epik_Ionization_Penalty_Charging>  (18) 
0.00240666

>  <r_epik_Ionization_Penalty_Neutral>  (18) 
0.000190318

>  <r_epik_State_Penalty>  (18) 
-0

>  <r_epik_Charging_Adjusted_Penalty>  (18) 
0.00240666

>  <i_epik_Tot_Q>  (18) 
1

>  <i_epik_Tot_abs_Q>  (18) 
1

>  <s_lp_Force_Field>  (18) 
OPLS3e

>  <r_lp_Energy>  (18) 
89.5948

>  <b_lp_Chiralities_Consistent>  (18) 
1

>  <s_lp_Variant>  (18) 
6:0-1

>  <s_i_glide_gridfile>  (18) 
pfpi4k_grid

>  <i_i_glide_lignum>  (18) 
13

>  <i_i_glide_rotatable_bonds>  (18) 
8

>  <r_i_docking_score>  (18) 
-3.29982

>  <r_i_glide_ligand_efficiency>  (18) 
-0.0824955

>  <r_i_glide_ligand_efficiency_sa>  (18) 
-0.28213

>  <r_i_glide_ligand_efficiency_ln>  (18) 
-0.703754

>  <r_i_glide_gscore>  (18) 
-3.29982

>  <r_i_glide_lipo>  (18) 
-0.846034

>  <r_i_glide_hbond>  (18) 
-0.0496219

>  <r_i_glide_metal>  (18) 
-0

>  <r_i_glide_rewards>  (18) 
0

>  <r_i_glide_evdw>  (18) 
-38.056

>  <r_i_glide_ecoul>  (18) 
-6.17122

>  <r_i_glide_erotb>  (18) 
0.575544

>  <r_i_glide_esite>  (18) 
-0.151226

>  <r_i_glide_emodel>  (18) 
-51.7058

>  <r_i_glide_energy>  (18) 
-44.2272

>  <r_i_glide_einternal>  (18) 
3.32983

>  <r_i_glide_intrahb_reward>  (18) 
-0

>  <i_i_glide_confnum>  (18) 
5

>  <i_i_glide_posenum>  (18) 
8

>  <r_i_glide_eff_state_penalty>  (18) 
0

>  <ligand_id>  (18) 
6

>  <original_smiles>  (18) 
O=C(NC1CCC(CCN2C3CCC2CC(n2cnc4cccnc42)C3)(c2ccccc2)CC1)c1ccncc1

>  <smiles>  (18) 
[H]c1nc([H])c([H])c(C(=O)N([H])C2([H])C([H])([H])C([H])([H])C(c3c([H])c([H])c([H])c([H])c3[H])(C([H])([H])C([H])([H])[N+]3([H])C4([H])C([H])([H])C([H])([H])C3([H])C([H])([H])C([H])(n3c([H])nc5c([H])c([H])c([H])nc53)C4([H])[H])C([H])([H])C2([H])[H])c1[H]

$$$$
6:0:1
     RDKit          3D

 79 85  0  0  1  0  0  0  0  0999 V2000
    1.6795   -0.2470    4.4511 O   0  0  0  0  0  0  0  0  0  0  0  0
    0.9129    0.4687    3.7995 C   0  0  0  0  0  0  0  0  0  0  0  0
    1.0013    0.6446    2.4729 N   0  0  0  0  0  0  0  0  0  0  0  0
    2.0415    0.1122    1.6067 C   0  0  2  0  0  0  0  0  0  0  0  0
    2.0537   -1.4285    1.6330 C   0  0  0  0  0  0  0  0  0  0  0  0
    3.1851   -1.9673    0.7595 C   0  0  0  0  0  0  0  0  0  0  0  0
    4.5990   -1.4273    1.1652 C   0  0  1  0  0  0  0  0  0  0  0  0
    4.9514   -1.8854    2.6227 C   0  0  0  0  0  0  0  0  0  0  0  0
    5.1713   -3.4120    2.7563 C   0  0  0  0  0  0  0  0  0  0  0  0
    5.1658   -3.8642    4.1714 N   0  0  2  0  0  0  0  0  0  0  0  0
    5.4335   -5.2988    4.4130 C   0  0  1  0  0  0  0  0  0  0  0  0
    5.2932   -5.3972    5.9427 C   0  0  0  0  0  0  0  0  0  0  0  0
    4.3007   -4.2720    6.3142 C   0  0  0  0  0  0  0  0  0  0  0  0
    3.9453   -3.6238    4.9764 C   0  0  2  0  0  0  0  0  0  0  0  0
    2.7212   -4.3090    4.3255 C   0  0  0  0  0  0  0  0  0  0  0  0
    2.9270   -5.8318    4.1139 C   0  0  1  0  0  0  0  0  0  0  0  0
    1.9481   -6.3420    3.1640 N   0  0  0  0  0  0  0  0  0  0  0  0
    1.8738   -6.0573    1.8480 C   0  0  0  0  0  0  0  0  0  0  0  0
    0.8574   -6.5763    1.1626 N   0  0  0  0  0  0  0  0  0  0  0  0
    0.2185   -7.3081    2.1446 C   0  0  0  0  0  0  0  0  0  0  0  0
   -0.9170   -8.1373    2.0859 C   0  0  0  0  0  0  0  0  0  0  0  0
   -1.3769   -8.7126    3.2852 C   0  0  0  0  0  0  0  0  0  0  0  0
   -0.6775   -8.4717    4.4874 C   0  0  0  0  0  0  0  0  0  0  0  0
    0.4343   -7.7078    4.5899 N   0  0  0  0  0  0  0  0  0  0  0  0
    0.8498   -7.1620    3.4088 C   0  0  0  0  0  0  0  0  0  0  0  0
    4.3799   -6.1785    3.6842 C   0  0  0  0  0  0  0  0  0  0  0  0
    5.6990   -1.9143    0.2023 C   0  0  0  0  0  0  0  0  0  0  0  0
    5.4056   -2.5696   -1.0183 C   0  0  0  0  0  0  0  0  0  0  0  0
    6.4396   -3.0563   -1.8359 C   0  0  0  0  0  0  0  0  0  0  0  0
    7.7819   -2.9231   -1.4374 C   0  0  0  0  0  0  0  0  0  0  0  0
    8.0942   -2.2574   -0.2379 C   0  0  0  0  0  0  0  0  0  0  0  0
    7.0592   -1.7299    0.5532 C   0  0  0  0  0  0  0  0  0  0  0  0
    4.5413    0.1202    1.1089 C   0  0  0  0  0  0  0  0  0  0  0  0
    3.4141    0.7076    1.9720 C   0  0  0  0  0  0  0  0  0  0  0  0
   -0.1571    1.2450    4.4948 C   0  0  0  0  0  0  0  0  0  0  0  0
   -0.1231    1.3763    5.8976 C   0  0  0  0  0  0  0  0  0  0  0  0
   -1.1379    2.1083    6.5333 C   0  0  0  0  0  0  0  0  0  0  0  0
   -2.1595    2.6842    5.8651 N   0  0  0  0  0  0  0  0  0  0  0  0
   -2.1903    2.5528    4.5214 C   0  0  0  0  0  0  0  0  0  0  0  0
   -1.2260    1.8439    3.7890 C   0  0  0  0  0  0  0  0  0  0  0  0
    0.3180    1.2431    2.0293 H   0  0  0  0  0  0  0  0  0  0  0  0
    1.8112    0.4494    0.5933 H   0  0  0  0  0  0  0  0  0  0  0  0
    2.1550   -1.8185    2.6404 H   0  0  0  0  0  0  0  0  0  0  0  0
    1.1002   -1.8160    1.2823 H   0  0  0  0  0  0  0  0  0  0  0  0
    3.1373   -3.0564    0.7650 H   0  0  0  0  0  0  0  0  0  0  0  0
    2.9406   -1.6573   -0.2556 H   0  0  0  0  0  0  0  0  0  0  0  0
    5.8312   -1.3678    3.0212 H   0  0  0  0  0  0  0  0  0  0  0  0
    4.1615   -1.5504    3.2938 H   0  0  0  0  0  0  0  0  0  0  0  0
    4.4259   -3.9507    2.1880 H   0  0  0  0  0  0  0  0  0  0  0  0
    6.1326   -3.6923    2.3283 H   0  0  0  0  0  0  0  0  0  0  0  0
    6.4387   -5.5560    4.0785 H   0  0  0  0  0  0  0  0  0  0  0  0
    4.9574   -6.3828    6.2729 H   0  0  0  0  0  0  0  0  0  0  0  0
    6.2570   -5.2002    6.4162 H   0  0  0  0  0  0  0  0  0  0  0  0
    3.4150   -4.6368    6.8385 H   0  0  0  0  0  0  0  0  0  0  0  0
    4.7937   -3.5432    6.9557 H   0  0  0  0  0  0  0  0  0  0  0  0
    3.7423   -2.5650    5.1232 H   0  0  0  0  0  0  0  0  0  0  0  0
    1.8297   -4.1394    4.9350 H   0  0  0  0  0  0  0  0  0  0  0  0
    2.5102   -3.8339    3.3669 H   0  0  0  0  0  0  0  0  0  0  0  0
    2.7472   -6.3136    5.0792 H   0  0  0  0  0  0  0  0  0  0  0  0
    2.6014   -5.4080    1.3770 H   0  0  0  0  0  0  0  0  0  0  0  0
   -1.3920   -8.3314    1.1389 H   0  0  0  0  0  0  0  0  0  0  0  0
   -2.2309   -9.3712    3.2936 H   0  0  0  0  0  0  0  0  0  0  0  0
   -1.0148   -8.9414    5.4033 H   0  0  0  0  0  0  0  0  0  0  0  0
    4.5051   -6.0733    2.6021 H   0  0  0  0  0  0  0  0  0  0  0  0
    4.5691   -7.2365    3.8743 H   0  0  0  0  0  0  0  0  0  0  0  0
    4.3971   -2.7396   -1.3576 H   0  0  0  0  0  0  0  0  0  0  0  0
    6.1846   -3.5697   -2.7479 H   0  0  0  0  0  0  0  0  0  0  0  0
    8.5749   -3.3262   -2.0480 H   0  0  0  0  0  0  0  0  0  0  0  0
    9.1214   -2.1429    0.0803 H   0  0  0  0  0  0  0  0  0  0  0  0
    7.3288   -1.2015    1.4546 H   0  0  0  0  0  0  0  0  0  0  0  0
    5.4990    0.5359    1.4184 H   0  0  0  0  0  0  0  0  0  0  0  0
    4.3957    0.4326    0.0758 H   0  0  0  0  0  0  0  0  0  0  0  0
    3.3822    1.7862    1.8565 H   0  0  0  0  0  0  0  0  0  0  0  0
    3.6573    0.5492    3.0212 H   0  0  0  0  0  0  0  0  0  0  0  0
    0.6769    0.9335    6.4743 H   0  0  0  0  0  0  0  0  0  0  0  0
   -1.1331    2.2205    7.6073 H   0  0  0  0  0  0  0  0  0  0  0  0
   -3.0205    3.0231    4.0115 H   0  0  0  0  0  0  0  0  0  0  0  0
   -1.3177    1.7816    2.7141 H   0  0  0  0  0  0  0  0  0  0  0  0
    5.9062   -3.3526    4.6334 H   0  0  0  0  0  0  0  0  0  0  0  0
  1  2  2  0
  2  3  1  0
  2 35  1  0
  3  4  1  0
  3 41  1  0
  4 34  1  0
  4  5  1  0
  4 42  1  6
  5  6  1  0
  5 43  1  0
  5 44  1  0
  6  7  1  0
  6 45  1  0
  6 46  1  0
  7  8  1  1
  7 27  1  0
  7 33  1  0
  8  9  1  0
  8 47  1  0
  8 48  1  0
  9 10  1  0
  9 49  1  0
  9 50  1  0
 10 14  1  0
 10 11  1  0
 10 79  1  1
 11 26  1  0
 11 12  1  0
 11 51  1  1
 12 13  1  0
 12 52  1  0
 12 53  1  0
 13 14  1  0
 13 54  1  0
 13 55  1  0
 14 15  1  0
 14 56  1  1
 15 16  1  0
 15 57  1  0
 15 58  1  0
 16 17  1  0
 16 26  1  0
 16 59  1  1
 17 25  1  0
 17 18  1  0
 18 19  2  0
 18 60  1  0
 19 20  1  0
 20 25  2  0
 20 21  1  0
 21 22  2  0
 21 61  1  0
 22 23  1  0
 22 62  1  0
 23 24  2  0
 23 63  1  0
 24 25  1  0
 26 64  1  0
 26 65  1  0
 27 32  1  0
 27 28  2  0
 28 29  1  0
 28 66  1  0
 29 30  2  0
 29 67  1  0
 30 31  1  0
 30 68  1  0
 31 32  2  0
 31 69  1  0
 32 70  1  0
 33 34  1  0
 33 71  1  0
 33 72  1  0
 34 73  1  0
 34 74  1  0
 35 40  1  0
 35 36  2  0
 36 37  1  0
 36 75  1  0
 37 38  2  0
 37 76  1  0
 38 39  1  0
 39 40  2  0
 39 77  1  0
 40 78  1  0
M  CHG  1  10   1
M  END
>  <i_m_ct_stereo_status>  (19) 
1

>  <s_m_source_file>  (19) 
/var/tmp/pbs.5076255.sched01/tmpmzpp47sj/0ood7iq68.sdf

>  <i_m_source_file_index>  (19) 
13

>  <i_lp_mmshare_version>  (19) 
48012

>  <i_f3d_flags>  (19) 
0

>  <s_epik_input>  (19) 
W2NIXTFbY0hdbltjSF1bY0hdYzFDKD1PKVtOSF1bQ0BASF0oW0NIMl1bQ0gyXTIpW0NIMl1bQ0gyXVtDQF0yKGMzW2NIXVtjSF1bY0hdW2NIXVtjSF0zKVtDSDJdW0NIMl1OKFtDQEBIXTQ1KVtDQEhdKFtDSDJdW0NIMl00KVtDSDJdW0NASF0oW0NIMl01KW4oW2NIXW42KWMoYzY3KW5bY0hdW2NIXVtjSF03

>  <s_epik_cmdline>  (19) 
J2VwaWtfcHl0aG9uJywgJy1waHQnLCAnMi4wJywgJy1waCcsICc3LjAnLCAnLXRuJywgJzgnLCAnLW1hJywgJzIwMCcsICctaW1hZScsICc8aW5maWxlLm1hZT4nLCAnLW9tYWUnLCAnPG91dGZpbGUubWFlPic=

>  <r_lp_tautomer_probability>  (19) 
1

>  <r_epik_Ionization_Penalty>  (19) 
0.00259698

>  <r_epik_Ionization_Penalty_Charging>  (19) 
0.00240666

>  <r_epik_Ionization_Penalty_Neutral>  (19) 
0.000190318

>  <r_epik_State_Penalty>  (19) 
-0

>  <r_epik_Charging_Adjusted_Penalty>  (19) 
0.00240666

>  <i_epik_Tot_Q>  (19) 
1

>  <i_epik_Tot_abs_Q>  (19) 
1

>  <s_lp_Force_Field>  (19) 
OPLS3e

>  <r_lp_Energy>  (19) 
89.5948

>  <b_lp_Chiralities_Consistent>  (19) 
1

>  <s_lp_Variant>  (19) 
6:0-1

>  <s_i_glide_gridfile>  (19) 
pfpi4k_grid

>  <i_i_glide_lignum>  (19) 
13

>  <i_i_glide_rotatable_bonds>  (19) 
8

>  <r_i_docking_score>  (19) 
-3.11679

>  <r_i_glide_ligand_efficiency>  (19) 
-0.0779198

>  <r_i_glide_ligand_efficiency_sa>  (19) 
-0.266482

>  <r_i_glide_ligand_efficiency_ln>  (19) 
-0.66472

>  <r_i_glide_gscore>  (19) 
-3.11679

>  <r_i_glide_lipo>  (19) 
-0.367756

>  <r_i_glide_hbond>  (19) 
-0.0990467

>  <r_i_glide_metal>  (19) 
-0

>  <r_i_glide_rewards>  (19) 
0

>  <r_i_glide_evdw>  (19) 
-38.4249

>  <r_i_glide_ecoul>  (19) 
-7.93568

>  <r_i_glide_erotb>  (19) 
0.575544

>  <r_i_glide_esite>  (19) 
-0.113937

>  <r_i_glide_emodel>  (19) 
-53.7493

>  <r_i_glide_energy>  (19) 
-46.3605

>  <r_i_glide_einternal>  (19) 
3.08968

>  <r_i_glide_intrahb_reward>  (19) 
-0

>  <i_i_glide_confnum>  (19) 
5

>  <i_i_glide_posenum>  (19) 
2

>  <r_i_glide_eff_state_penalty>  (19) 
0

>  <ligand_id>  (19) 
6

>  <original_smiles>  (19) 
O=C(NC1CCC(CCN2C3CCC2CC(n2cnc4cccnc42)C3)(c2ccccc2)CC1)c1ccncc1

>  <smiles>  (19) 
[H]c1nc([H])c([H])c(C(=O)N([H])C2([H])C([H])([H])C([H])([H])C(c3c([H])c([H])c([H])c([H])c3[H])(C([H])([H])C([H])([H])[N+]3([H])C4([H])C([H])([H])C([H])([H])C3([H])C([H])([H])C([H])(n3c([H])nc5c([H])c([H])c([H])nc53)C4([H])[H])C([H])([H])C2([H])[H])c1[H]

$$$$
6:0:2
     RDKit          3D

 79 85  0  0  1  0  0  0  0  0999 V2000
    1.0586   -0.1713    4.4009 O   0  0  0  0  0  0  0  0  0  0  0  0
    0.5196    0.5867    3.5851 C   0  0  0  0  0  0  0  0  0  0  0  0
    0.8832    0.6723    2.2961 N   0  0  0  0  0  0  0  0  0  0  0  0
    2.0561    0.0557    1.6946 C   0  0  2  0  0  0  0  0  0  0  0  0
    1.9988   -1.4813    1.7863 C   0  0  0  0  0  0  0  0  0  0  0  0
    3.2539   -2.1269    1.1937 C   0  0  0  0  0  0  0  0  0  0  0  0
    4.5546   -1.6292    1.8943 C   0  0  1  0  0  0  0  0  0  0  0  0
    4.5929   -2.0133    3.4085 C   0  0  0  0  0  0  0  0  0  0  0  0
    4.4901   -3.5242    3.6714 C   0  0  0  0  0  0  0  0  0  0  0  0
    4.3328   -3.8478    5.1334 N   0  0  2  0  0  0  0  0  0  0  0  0
    4.9120   -5.1482    5.5968 C   0  0  1  0  0  0  0  0  0  0  0  0
    4.5334   -5.1443    7.0721 C   0  0  0  0  0  0  0  0  0  0  0  0
    3.2133   -4.3312    7.1485 C   0  0  0  0  0  0  0  0  0  0  0  0
    2.9392   -3.9152    5.7001 C   0  0  2  0  0  0  0  0  0  0  0  0
    2.0809   -4.9863    4.9795 C   0  0  0  0  0  0  0  0  0  0  0  0
    2.7527   -6.3895    4.9745 C   0  0  1  0  0  0  0  0  0  0  0  0
    2.1394   -7.2481    3.9494 N   0  0  0  0  0  0  0  0  0  0  0  0
    1.8954   -6.9327    2.6622 C   0  0  0  0  0  0  0  0  0  0  0  0
    1.3066   -7.8568    1.9065 N   0  0  0  0  0  0  0  0  0  0  0  0
    1.1728   -8.8972    2.7993 C   0  0  0  0  0  0  0  0  0  0  0  0
    0.6419  -10.1935    2.6333 C   0  0  0  0  0  0  0  0  0  0  0  0
    0.6438  -11.0501    3.7466 C   0  0  0  0  0  0  0  0  0  0  0  0
    1.1588  -10.5847    4.9733 C   0  0  0  0  0  0  0  0  0  0  0  0
    1.6830   -9.3570    5.1769 N   0  0  0  0  0  0  0  0  0  0  0  0
    1.6761   -8.5570    4.0817 C   0  0  0  0  0  0  0  0  0  0  0  0
    4.2910   -6.3098    4.7986 C   0  0  0  0  0  0  0  0  0  0  0  0
    5.7726   -2.2565    1.1793 C   0  0  0  0  0  0  0  0  0  0  0  0
    6.8430   -1.4830    0.6625 C   0  0  0  0  0  0  0  0  0  0  0  0
    7.9687   -2.0929    0.0819 C   0  0  0  0  0  0  0  0  0  0  0  0
    8.0323   -3.4889   -0.0275 C   0  0  0  0  0  0  0  0  0  0  0  0
    6.9757   -4.2760    0.4759 C   0  0  0  0  0  0  0  0  0  0  0  0
    5.8576   -3.6625    1.0578 C   0  0  0  0  0  0  0  0  0  0  0  0
    4.5851   -0.0778    1.7712 C   0  0  0  0  0  0  0  0  0  0  0  0
    3.3410    0.6244    2.3231 C   0  0  0  0  0  0  0  0  0  0  0  0
   -0.5595    1.5231    4.0306 C   0  0  0  0  0  0  0  0  0  0  0  0
   -0.6911    1.8383    5.3953 C   0  0  0  0  0  0  0  0  0  0  0  0
   -1.7121    2.7164    5.7897 C   0  0  0  0  0  0  0  0  0  0  0  0
   -2.5826    3.2716    4.9188 N   0  0  0  0  0  0  0  0  0  0  0  0
   -2.4559    2.9610    3.6095 C   0  0  0  0  0  0  0  0  0  0  0  0
   -1.4666    2.0967    3.1142 C   0  0  0  0  0  0  0  0  0  0  0  0
    0.3598    1.3066    1.7048 H   0  0  0  0  0  0  0  0  0  0  0  0
    2.0586    0.3278    0.6401 H   0  0  0  0  0  0  0  0  0  0  0  0
    1.8878   -1.8270    2.8102 H   0  0  0  0  0  0  0  0  0  0  0  0
    1.1103   -1.8545    1.2793 H   0  0  0  0  0  0  0  0  0  0  0  0
    3.1274   -3.2078    1.2600 H   0  0  0  0  0  0  0  0  0  0  0  0
    3.3060   -1.9044    0.1242 H   0  0  0  0  0  0  0  0  0  0  0  0
    5.5140   -1.6419    3.8707 H   0  0  0  0  0  0  0  0  0  0  0  0
    3.8004   -1.5090    3.9690 H   0  0  0  0  0  0  0  0  0  0  0  0
    3.6587   -3.9700    3.1449 H   0  0  0  0  0  0  0  0  0  0  0  0
    5.3785   -4.0173    3.2980 H   0  0  0  0  0  0  0  0  0  0  0  0
    5.9866   -5.0975    5.4408 H   0  0  0  0  0  0  0  0  0  0  0  0
    4.4390   -6.1613    7.4617 H   0  0  0  0  0  0  0  0  0  0  0  0
    5.3074   -4.6376    7.6518 H   0  0  0  0  0  0  0  0  0  0  0  0
    2.3911   -4.9179    7.5716 H   0  0  0  0  0  0  0  0  0  0  0  0
    3.3580   -3.4454    7.7677 H   0  0  0  0  0  0  0  0  0  0  0  0
    2.4478   -2.9457    5.6318 H   0  0  0  0  0  0  0  0  0  0  0  0
    1.0974   -5.0710    5.4466 H   0  0  0  0  0  0  0  0  0  0  0  0
    1.8736   -4.6397    3.9671 H   0  0  0  0  0  0  0  0  0  0  0  0
    2.5632   -6.8507    5.9454 H   0  0  0  0  0  0  0  0  0  0  0  0
    2.1670   -5.9660    2.2576 H   0  0  0  0  0  0  0  0  0  0  0  0
    0.2484  -10.5144    1.6788 H   0  0  0  0  0  0  0  0  0  0  0  0
    0.2465  -12.0493    3.6778 H   0  0  0  0  0  0  0  0  0  0  0  0
    1.1346  -11.2366    5.8300 H   0  0  0  0  0  0  0  0  0  0  0  0
    4.5435   -6.2379    3.7340 H   0  0  0  0  0  0  0  0  0  0  0  0
    4.7452   -7.2460    5.1220 H   0  0  0  0  0  0  0  0  0  0  0  0
    6.8434   -0.4055    0.7153 H   0  0  0  0  0  0  0  0  0  0  0  0
    8.7722   -1.4771   -0.3057 H   0  0  0  0  0  0  0  0  0  0  0  0
    8.8963   -3.9532   -0.4890 H   0  0  0  0  0  0  0  0  0  0  0  0
    7.0386   -5.3546    0.4433 H   0  0  0  0  0  0  0  0  0  0  0  0
    5.0736   -4.2859    1.4773 H   0  0  0  0  0  0  0  0  0  0  0  0
    5.4563    0.3186    2.2910 H   0  0  0  0  0  0  0  0  0  0  0  0
    4.6679    0.2112    0.7213 H   0  0  0  0  0  0  0  0  0  0  0  0
    3.4101    1.6972    2.1338 H   0  0  0  0  0  0  0  0  0  0  0  0
    3.3392    0.5308    3.4074 H   0  0  0  0  0  0  0  0  0  0  0  0
   -0.0133    1.4217    6.1267 H   0  0  0  0  0  0  0  0  0  0  0  0
   -1.8353    2.9748    6.8301 H   0  0  0  0  0  0  0  0  0  0  0  0
   -3.1705    3.4090    2.9364 H   0  0  0  0  0  0  0  0  0  0  0  0
   -1.4211    1.8893    2.0558 H   0  0  0  0  0  0  0  0  0  0  0  0
    4.7989   -3.1116    5.6646 H   0  0  0  0  0  0  0  0  0  0  0  0
  1  2  2  0
  2  3  1  0
  2 35  1  0
  3  4  1  0
  3 41  1  0
  4 34  1  0
  4  5  1  0
  4 42  1  6
  5  6  1  0
  5 43  1  0
  5 44  1  0
  6  7  1  0
  6 45  1  0
  6 46  1  0
  7  8  1  1
  7 27  1  0
  7 33  1  0
  8  9  1  0
  8 47  1  0
  8 48  1  0
  9 10  1  0
  9 49  1  0
  9 50  1  0
 10 14  1  0
 10 11  1  0
 10 79  1  1
 11 26  1  0
 11 12  1  0
 11 51  1  1
 12 13  1  0
 12 52  1  0
 12 53  1  0
 13 14  1  0
 13 54  1  0
 13 55  1  0
 14 15  1  0
 14 56  1  1
 15 16  1  0
 15 57  1  0
 15 58  1  0
 16 17  1  0
 16 26  1  0
 16 59  1  1
 17 25  1  0
 17 18  1  0
 18 19  2  0
 18 60  1  0
 19 20  1  0
 20 25  2  0
 20 21  1  0
 21 22  2  0
 21 61  1  0
 22 23  1  0
 22 62  1  0
 23 24  2  0
 23 63  1  0
 24 25  1  0
 26 64  1  0
 26 65  1  0
 27 32  1  0
 27 28  2  0
 28 29  1  0
 28 66  1  0
 29 30  2  0
 29 67  1  0
 30 31  1  0
 30 68  1  0
 31 32  2  0
 31 69  1  0
 32 70  1  0
 33 34  1  0
 33 71  1  0
 33 72  1  0
 34 73  1  0
 34 74  1  0
 35 40  1  0
 35 36  2  0
 36 37  1  0
 36 75  1  0
 37 38  2  0
 37 76  1  0
 38 39  1  0
 39 40  2  0
 39 77  1  0
 40 78  1  0
M  CHG  1  10   1
M  END
>  <i_m_ct_stereo_status>  (20) 
1

>  <s_m_source_file>  (20) 
/var/tmp/pbs.5076255.sched01/tmpmzpp47sj/0ood7iq68.sdf

>  <i_m_source_file_index>  (20) 
13

>  <i_lp_mmshare_version>  (20) 
48012

>  <i_f3d_flags>  (20) 
0

>  <s_epik_input>  (20) 
W2NIXTFbY0hdbltjSF1bY0hdYzFDKD1PKVtOSF1bQ0BASF0oW0NIMl1bQ0gyXTIpW0NIMl1bQ0gyXVtDQF0yKGMzW2NIXVtjSF1bY0hdW2NIXVtjSF0zKVtDSDJdW0NIMl1OKFtDQEBIXTQ1KVtDQEhdKFtDSDJdW0NIMl00KVtDSDJdW0NASF0oW0NIMl01KW4oW2NIXW42KWMoYzY3KW5bY0hdW2NIXVtjSF03

>  <s_epik_cmdline>  (20) 
J2VwaWtfcHl0aG9uJywgJy1waHQnLCAnMi4wJywgJy1waCcsICc3LjAnLCAnLXRuJywgJzgnLCAnLW1hJywgJzIwMCcsICctaW1hZScsICc8aW5maWxlLm1hZT4nLCAnLW9tYWUnLCAnPG91dGZpbGUubWFlPic=

>  <r_lp_tautomer_probability>  (20) 
1

>  <r_epik_Ionization_Penalty>  (20) 
0.00259698

>  <r_epik_Ionization_Penalty_Charging>  (20) 
0.00240666

>  <r_epik_Ionization_Penalty_Neutral>  (20) 
0.000190318

>  <r_epik_State_Penalty>  (20) 
-0

>  <r_epik_Charging_Adjusted_Penalty>  (20) 
0.00240666

>  <i_epik_Tot_Q>  (20) 
1

>  <i_epik_Tot_abs_Q>  (20) 
1

>  <s_lp_Force_Field>  (20) 
OPLS3e

>  <r_lp_Energy>  (20) 
89.5948

>  <b_lp_Chiralities_Consistent>  (20) 
1

>  <s_lp_Variant>  (20) 
6:0-1

>  <s_i_glide_gridfile>  (20) 
pfpi4k_grid

>  <i_i_glide_lignum>  (20) 
13

>  <i_i_glide_rotatable_bonds>  (20) 
8

>  <r_i_docking_score>  (20) 
-2.9394

>  <r_i_glide_ligand_efficiency>  (20) 
-0.073485

>  <r_i_glide_ligand_efficiency_sa>  (20) 
-0.251315

>  <r_i_glide_ligand_efficiency_ln>  (20) 
-0.626887

>  <r_i_glide_gscore>  (20) 
-2.9394

>  <r_i_glide_lipo>  (20) 
-0.983565

>  <r_i_glide_hbond>  (20) 
0

>  <r_i_glide_metal>  (20) 
-0

>  <r_i_glide_rewards>  (20) 
0

>  <r_i_glide_evdw>  (20) 
-35.3114

>  <r_i_glide_ecoul>  (20) 
-4.52322

>  <r_i_glide_erotb>  (20) 
0.575544

>  <r_i_glide_esite>  (20) 
-0.0873243

>  <r_i_glide_emodel>  (20) 
-44.8531

>  <r_i_glide_energy>  (20) 
-39.8346

>  <r_i_glide_einternal>  (20) 
4.93079

>  <r_i_glide_intrahb_reward>  (20) 
-0

>  <i_i_glide_confnum>  (20) 
5

>  <i_i_glide_posenum>  (20) 
30

>  <r_i_glide_eff_state_penalty>  (20) 
0

>  <ligand_id>  (20) 
6

>  <original_smiles>  (20) 
O=C(NC1CCC(CCN2C3CCC2CC(n2cnc4cccnc42)C3)(c2ccccc2)CC1)c1ccncc1

>  <smiles>  (20) 
[H]c1nc([H])c([H])c(C(=O)N([H])C2([H])C([H])([H])C([H])([H])C(c3c([H])c([H])c([H])c([H])c3[H])(C([H])([H])C([H])([H])[N+]3([H])C4([H])C([H])([H])C([H])([H])C3([H])C([H])([H])C([H])(n3c([H])nc5c([H])c([H])c([H])nc53)C4([H])[H])C([H])([H])C2([H])[H])c1[H]

$$$$
7:0:0
     RDKit          3D

 48 51  0  0  1  0  0  0  0  0999 V2000
    3.6047   -1.3017    2.7929 O   0  0  0  0  0  0  0  0  0  0  0  0
    3.0064   -1.0318    1.7513 C   0  0  0  0  0  0  0  0  0  0  0  0
    3.6390   -1.3803    0.4187 C   0  0  0  0  0  0  0  0  0  0  0  0
    3.2511   -2.7900   -0.0973 C   0  0  2  0  0  0  0  0  0  0  0  0
    4.4672   -3.7365   -0.1404 C   0  0  0  0  0  0  0  0  0  0  0  0
    5.3827   -3.2662   -1.1238 O   0  0  0  0  0  0  0  0  0  0  0  0
    4.8195   -3.2519   -2.4296 C   0  0  0  0  0  0  0  0  0  0  0  0
    3.5985   -2.3151   -2.4767 C   0  0  0  0  0  0  0  0  0  0  0  0
    2.6216   -2.7025   -1.4351 N   0  0  0  0  0  0  0  0  0  0  0  0
    1.8250   -0.3934    1.6888 N   0  0  0  0  0  0  0  0  0  0  0  0
    1.0987    0.2403    2.7873 C   0  0  1  0  0  0  0  0  0  0  0  0
   -0.1865    0.8912    2.2077 C   0  0  0  0  0  0  0  0  0  0  0  0
   -0.9834    1.5855    3.3401 C   0  0  2  0  0  0  0  0  0  0  0  0
   -0.1022    2.6917    3.9577 C   0  0  0  0  0  0  0  0  0  0  0  0
    1.1662    2.0553    4.5556 C   0  0  1  0  0  0  0  0  0  0  0  0
    0.7691    1.0257    5.6370 C   0  0  0  0  0  0  0  0  0  0  0  0
   -0.0995   -0.0828    4.9990 C   0  0  1  0  0  0  0  0  0  0  0  0
   -0.4542   -1.0327    5.9886 O   0  0  0  0  0  0  0  0  0  0  0  0
   -1.3783    0.5391    4.4073 C   0  0  0  0  0  0  0  0  0  0  0  0
    0.6997   -0.7898    3.8815 C   0  0  0  0  0  0  0  0  0  0  0  0
    1.9611    1.3553    3.4383 C   0  0  0  0  0  0  0  0  0  0  0  0
    3.3599   -0.5977   -0.2865 H   0  0  0  0  0  0  0  0  0  0  0  0
    4.7218   -1.2875    0.5246 H   0  0  0  0  0  0  0  0  0  0  0  0
    2.5061   -3.2397    0.5636 H   0  0  0  0  0  0  0  0  0  0  0  0
    4.9616   -3.7614    0.8328 H   0  0  0  0  0  0  0  0  0  0  0  0
    4.1640   -4.7606   -0.3608 H   0  0  0  0  0  0  0  0  0  0  0  0
    5.5793   -2.9064   -3.1289 H   0  0  0  0  0  0  0  0  0  0  0  0
    4.5488   -4.2609   -2.7285 H   0  0  0  0  0  0  0  0  0  0  0  0
    3.9238   -1.2860   -2.3228 H   0  0  0  0  0  0  0  0  0  0  0  0
    3.1156   -2.3380   -3.4535 H   0  0  0  0  0  0  0  0  0  0  0  0
    2.2324   -3.6032   -1.6814 H   0  0  0  0  0  0  0  0  0  0  0  0
    1.4036   -0.3085    0.7626 H   0  0  0  0  0  0  0  0  0  0  0  0
    0.0598    1.6107    1.4246 H   0  0  0  0  0  0  0  0  0  0  0  0
   -0.8185    0.1482    1.7201 H   0  0  0  0  0  0  0  0  0  0  0  0
   -1.8862    2.0312    2.9215 H   0  0  0  0  0  0  0  0  0  0  0  0
    0.1719    3.4110    3.1834 H   0  0  0  0  0  0  0  0  0  0  0  0
   -0.6530    3.2507    4.7124 H   0  0  0  0  0  0  0  0  0  0  0  0
    1.7849    2.8337    5.0029 H   0  0  0  0  0  0  0  0  0  0  0  0
    1.6664    0.5952    6.0841 H   0  0  0  0  0  0  0  0  0  0  0  0
    0.2262    1.5177    6.4437 H   0  0  0  0  0  0  0  0  0  0  0  0
    0.3373   -1.4730    6.2596 H   0  0  0  0  0  0  0  0  0  0  0  0
   -1.9869    0.9964    5.1852 H   0  0  0  0  0  0  0  0  0  0  0  0
   -1.9932   -0.2382    3.9569 H   0  0  0  0  0  0  0  0  0  0  0  0
    0.1317   -1.6130    3.4481 H   0  0  0  0  0  0  0  0  0  0  0  0
    1.5878   -1.2436    4.3193 H   0  0  0  0  0  0  0  0  0  0  0  0
    2.8830    0.9564    3.8605 H   0  0  0  0  0  0  0  0  0  0  0  0
    2.2730    2.0798    2.6840 H   0  0  0  0  0  0  0  0  0  0  0  0
    1.8574   -2.0157   -1.3723 H   0  0  0  0  0  0  0  0  0  0  0  0
  1  2  2  0
  2  3  1  0
  2 10  1  0
  3  4  1  0
  3 22  1  0
  3 23  1  0
  4  9  1  0
  4  5  1  0
  4 24  1  1
  5  6  1  0
  5 25  1  0
  5 26  1  0
  6  7  1  0
  7  8  1  0
  7 27  1  0
  7 28  1  0
  8  9  1  0
  8 29  1  0
  8 30  1  0
  9 31  1  0
  9 48  1  0
 11 10  1  6
 10 32  1  0
 11 20  1  0
 11 21  1  0
 11 12  1  0
 12 13  1  0
 12 33  1  0
 12 34  1  0
 13 19  1  0
 13 14  1  0
 13 35  1  6
 14 15  1  0
 14 36  1  0
 14 37  1  0
 15 16  1  0
 15 21  1  0
 15 38  1  1
 16 17  1  0
 16 39  1  0
 16 40  1  0
 17 18  1  1
 17 19  1  0
 17 20  1  0
 18 41  1  0
 19 42  1  0
 19 43  1  0
 20 44  1  0
 20 45  1  0
 21 46  1  0
 21 47  1  0
M  CHG  1   9   1
M  END
>  <i_m_ct_stereo_status>  (21) 
1

>  <s_m_source_file>  (21) 
/var/tmp/pbs.5076255.sched01/tmpmzpp47sj/0ood7iq68.sdf

>  <i_m_source_file_index>  (21) 
15

>  <i_lp_mmshare_version>  (21) 
48012

>  <i_f3d_flags>  (21) 
0

>  <s_epik_input>  (21) 
W05IXTFbQ0gyXVtDSDJdT1tDSDJdW0NASF0xW0NIMl1DKD1PKVtOSF1bQ0BAXTIzW0NIMl1bQ0BASF00W0NIMl1bQ0BIXShbQ0gyXTMpW0NIMl1bQ0BAXShbT0hdKShbQ0gyXTQpW0NIMl0y

>  <s_epik_cmdline>  (21) 
J2VwaWtfcHl0aG9uJywgJy1waHQnLCAnMi4wJywgJy1waCcsICc3LjAnLCAnLXRuJywgJzgnLCAnLW1hJywgJzIwMCcsICctaW1hZScsICc8aW5maWxlLm1hZT4nLCAnLW9tYWUnLCAnPG91dGZpbGUubWFlPic=

>  <r_epik_Ionization_Penalty>  (21) 
0.0323829

>  <r_epik_Ionization_Penalty_Charging>  (21) 
0.032382

>  <r_epik_Ionization_Penalty_Neutral>  (21) 
8.77208e-07

>  <r_epik_State_Penalty>  (21) 
0.0268212

>  <r_epik_Charging_Adjusted_Penalty>  (21) 
0.0592031

>  <i_epik_Tot_Q>  (21) 
1

>  <i_epik_Tot_abs_Q>  (21) 
1

>  <s_lp_Force_Field>  (21) 
OPLS3e

>  <r_lp_Energy>  (21) 
-16.4197

>  <b_lp_Chiralities_Consistent>  (21) 
1

>  <s_lp_Variant>  (21) 
7:0-1

>  <s_i_glide_gridfile>  (21) 
pfpi4k_grid

>  <i_i_glide_lignum>  (21) 
15

>  <i_i_glide_rotatable_bonds>  (21) 
5

>  <r_i_docking_score>  (21) 
-3.91779

>  <r_i_glide_ligand_efficiency>  (21) 
-0.186561

>  <r_i_glide_ligand_efficiency_sa>  (21) 
-0.514708

>  <r_i_glide_ligand_efficiency_ln>  (21) 
-0.968665

>  <r_i_glide_gscore>  (21) 
-3.91779

>  <r_i_glide_lipo>  (21) 
-0.12097

>  <r_i_glide_hbond>  (21) 
-0.36

>  <r_i_glide_metal>  (21) 
-0

>  <r_i_glide_rewards>  (21) 
-1.39502

>  <r_i_glide_evdw>  (21) 
-17.9749

>  <r_i_glide_ecoul>  (21) 
-10.6846

>  <r_i_glide_erotb>  (21) 
0.629285

>  <r_i_glide_esite>  (21) 
-0.169646

>  <r_i_glide_emodel>  (21) 
-35.0407

>  <r_i_glide_energy>  (21) 
-28.6595

>  <r_i_glide_einternal>  (21) 
5.29329

>  <r_i_glide_intrahb_reward>  (21) 
-0

>  <i_i_glide_confnum>  (21) 
3

>  <i_i_glide_posenum>  (21) 
1

>  <r_i_glide_eff_state_penalty>  (21) 
0

>  <ligand_id>  (21) 
7

>  <original_smiles>  (21) 
O=C(CC1COCCN1)NC12CC3CC(CC(O)(C3)C1)C2

>  <smiles>  (21) 
[H]OC12C([H])([H])C3([H])C([H])([H])C([H])(C1([H])[H])C([H])([H])C(N([H])C(=O)C([H])([H])C1([H])C([H])([H])OC([H])([H])C([H])([H])[N+]1([H])[H])(C3([H])[H])C2([H])[H]

$$$$
7:0:1
     RDKit          3D

 48 51  0  0  1  0  0  0  0  0999 V2000
    2.5692   -0.7551    3.6078 O   0  0  0  0  0  0  0  0  0  0  0  0
    2.2833   -0.0778    2.6266 C   0  0  0  0  0  0  0  0  0  0  0  0
    2.9608   -0.3635    1.2869 C   0  0  0  0  0  0  0  0  0  0  0  0
    3.1639   -1.8797    1.0375 C   0  0  2  0  0  0  0  0  0  0  0  0
    4.5297   -2.3680    1.5646 C   0  0  0  0  0  0  0  0  0  0  0  0
    5.5656   -1.7678    0.7924 O   0  0  0  0  0  0  0  0  0  0  0  0
    5.4841   -2.1082   -0.5856 C   0  0  0  0  0  0  0  0  0  0  0  0
    4.1454   -1.6383   -1.1813 C   0  0  0  0  0  0  0  0  0  0  0  0
    3.0199   -2.1885   -0.3996 N   0  0  0  0  0  0  0  0  0  0  0  0
    1.3950    0.9261    2.6283 N   0  0  0  0  0  0  0  0  0  0  0  0
    0.6339    1.4408    3.7680 C   0  0  1  0  0  0  0  0  0  0  0  0
   -0.1473    2.6908    3.2842 C   0  0  0  0  0  0  0  0  0  0  0  0
   -0.9537    3.2843    4.4615 C   0  0  2  0  0  0  0  0  0  0  0  0
    0.0136    3.6975    5.5896 C   0  0  0  0  0  0  0  0  0  0  0  0
    0.7689    2.4522    6.0867 C   0  0  1  0  0  0  0  0  0  0  0  0
   -0.2403    1.4011    6.6074 C   0  0  0  0  0  0  0  0  0  0  0  0
   -1.1943    0.9914    5.4605 C   0  0  1  0  0  0  0  0  0  0  0  0
   -2.1233    0.0297    5.9263 O   0  0  0  0  0  0  0  0  0  0  0  0
   -1.9617    2.2332    4.9642 C   0  0  0  0  0  0  0  0  0  0  0  0
   -0.3753    0.3848    4.2972 C   0  0  0  0  0  0  0  0  0  0  0  0
    1.5853    1.8592    4.9259 C   0  0  0  0  0  0  0  0  0  0  0  0
    2.3520    0.0872    0.5022 H   0  0  0  0  0  0  0  0  0  0  0  0
    3.9133    0.1719    1.2705 H   0  0  0  0  0  0  0  0  0  0  0  0
    2.3774   -2.4489    1.5379 H   0  0  0  0  0  0  0  0  0  0  0  0
    4.6694   -2.0993    2.6139 H   0  0  0  0  0  0  0  0  0  0  0  0
    4.6084   -3.4545    1.5130 H   0  0  0  0  0  0  0  0  0  0  0  0
    6.3097   -1.6233   -1.1068 H   0  0  0  0  0  0  0  0  0  0  0  0
    5.6140   -3.1828   -0.7074 H   0  0  0  0  0  0  0  0  0  0  0  0
    4.1007   -0.5491   -1.1672 H   0  0  0  0  0  0  0  0  0  0  0  0
    4.0500   -1.9386   -2.2247 H   0  0  0  0  0  0  0  0  0  0  0  0
    2.9876   -3.1887   -0.5266 H   0  0  0  0  0  0  0  0  0  0  0  0
    1.2292    1.4054    1.7526 H   0  0  0  0  0  0  0  0  0  0  0  0
    0.5375    3.4365    2.8768 H   0  0  0  0  0  0  0  0  0  0  0  0
   -0.8105    2.4344    2.4566 H   0  0  0  0  0  0  0  0  0  0  0  0
   -1.4935    4.1603    4.1166 H   0  0  0  0  0  0  0  0  0  0  0  0
    0.7261    4.4306    5.2102 H   0  0  0  0  0  0  0  0  0  0  0  0
   -0.5160    4.1803    6.4098 H   0  0  0  0  0  0  0  0  0  0  0  0
    1.4510    2.7322    6.8920 H   0  0  0  0  0  0  0  0  0  0  0  0
    0.2950    0.5265    6.9818 H   0  0  0  0  0  0  0  0  0  0  0  0
   -0.8040    1.8074    7.4473 H   0  0  0  0  0  0  0  0  0  0  0  0
   -2.6704   -0.2040    5.1879 H   0  0  0  0  0  0  0  0  0  0  0  0
   -2.5912    2.6427    5.7530 H   0  0  0  0  0  0  0  0  0  0  0  0
   -2.6271    1.9619    4.1449 H   0  0  0  0  0  0  0  0  0  0  0  0
   -1.0286    0.0480    3.4895 H   0  0  0  0  0  0  0  0  0  0  0  0
    0.1547   -0.5027    4.6463 H   0  0  0  0  0  0  0  0  0  0  0  0
    2.1563    1.0179    5.3195 H   0  0  0  0  0  0  0  0  0  0  0  0
    2.3249    2.5773    4.5663 H   0  0  0  0  0  0  0  0  0  0  0  0
    2.1217   -1.7882   -0.7111 H   0  0  0  0  0  0  0  0  0  0  0  0
  1  2  2  0
  2  3  1  0
  2 10  1  0
  3  4  1  0
  3 22  1  0
  3 23  1  0
  4  9  1  0
  4  5  1  0
  4 24  1  1
  5  6  1  0
  5 25  1  0
  5 26  1  0
  6  7  1  0
  7  8  1  0
  7 27  1  0
  7 28  1  0
  8  9  1  0
  8 29  1  0
  8 30  1  0
  9 31  1  0
  9 48  1  0
 11 10  1  6
 10 32  1  0
 11 20  1  0
 11 21  1  0
 11 12  1  0
 12 13  1  0
 12 33  1  0
 12 34  1  0
 13 19  1  0
 13 14  1  0
 13 35  1  6
 14 15  1  0
 14 36  1  0
 14 37  1  0
 15 16  1  0
 15 21  1  0
 15 38  1  1
 16 17  1  0
 16 39  1  0
 16 40  1  0
 17 18  1  1
 17 19  1  0
 17 20  1  0
 18 41  1  0
 19 42  1  0
 19 43  1  0
 20 44  1  0
 20 45  1  0
 21 46  1  0
 21 47  1  0
M  CHG  1   9   1
M  END
>  <i_m_ct_stereo_status>  (22) 
1

>  <s_m_source_file>  (22) 
/var/tmp/pbs.5076255.sched01/tmpmzpp47sj/0ood7iq68.sdf

>  <i_m_source_file_index>  (22) 
15

>  <i_lp_mmshare_version>  (22) 
48012

>  <i_f3d_flags>  (22) 
0

>  <s_epik_input>  (22) 
W05IXTFbQ0gyXVtDSDJdT1tDSDJdW0NASF0xW0NIMl1DKD1PKVtOSF1bQ0BAXTIzW0NIMl1bQ0BASF00W0NIMl1bQ0BIXShbQ0gyXTMpW0NIMl1bQ0BAXShbT0hdKShbQ0gyXTQpW0NIMl0y

>  <s_epik_cmdline>  (22) 
J2VwaWtfcHl0aG9uJywgJy1waHQnLCAnMi4wJywgJy1waCcsICc3LjAnLCAnLXRuJywgJzgnLCAnLW1hJywgJzIwMCcsICctaW1hZScsICc8aW5maWxlLm1hZT4nLCAnLW9tYWUnLCAnPG91dGZpbGUubWFlPic=

>  <r_epik_Ionization_Penalty>  (22) 
0.0323829

>  <r_epik_Ionization_Penalty_Charging>  (22) 
0.032382

>  <r_epik_Ionization_Penalty_Neutral>  (22) 
8.77208e-07

>  <r_epik_State_Penalty>  (22) 
0.0268212

>  <r_epik_Charging_Adjusted_Penalty>  (22) 
0.0592031

>  <i_epik_Tot_Q>  (22) 
1

>  <i_epik_Tot_abs_Q>  (22) 
1

>  <s_lp_Force_Field>  (22) 
OPLS3e

>  <r_lp_Energy>  (22) 
-16.4197

>  <b_lp_Chiralities_Consistent>  (22) 
1

>  <s_lp_Variant>  (22) 
7:0-1

>  <s_i_glide_gridfile>  (22) 
pfpi4k_grid

>  <i_i_glide_lignum>  (22) 
15

>  <i_i_glide_rotatable_bonds>  (22) 
5

>  <r_i_docking_score>  (22) 
-3.44949

>  <r_i_glide_ligand_efficiency>  (22) 
-0.164261

>  <r_i_glide_ligand_efficiency_sa>  (22) 
-0.453184

>  <r_i_glide_ligand_efficiency_ln>  (22) 
-0.852879

>  <r_i_glide_gscore>  (22) 
-3.44949

>  <r_i_glide_lipo>  (22) 
-0.0187999

>  <r_i_glide_hbond>  (22) 
-0.354065

>  <r_i_glide_metal>  (22) 
-0

>  <r_i_glide_rewards>  (22) 
-1.39502

>  <r_i_glide_evdw>  (22) 
-15.8523

>  <r_i_glide_ecoul>  (22) 
-9.28493

>  <r_i_glide_erotb>  (22) 
0.629285

>  <r_i_glide_esite>  (22) 
-0.125534

>  <r_i_glide_emodel>  (22) 
-31.8012

>  <r_i_glide_energy>  (22) 
-25.1372

>  <r_i_glide_einternal>  (22) 
2.36444

>  <r_i_glide_intrahb_reward>  (22) 
-0

>  <i_i_glide_confnum>  (22) 
3

>  <i_i_glide_posenum>  (22) 
14

>  <r_i_glide_eff_state_penalty>  (22) 
0

>  <ligand_id>  (22) 
7

>  <original_smiles>  (22) 
O=C(CC1COCCN1)NC12CC3CC(CC(O)(C3)C1)C2

>  <smiles>  (22) 
[H]OC12C([H])([H])C3([H])C([H])([H])C([H])(C1([H])[H])C([H])([H])C(N([H])C(=O)C([H])([H])C1([H])C([H])([H])OC([H])([H])C([H])([H])[N+]1([H])[H])(C3([H])[H])C2([H])[H]

$$$$
7:0:2
     RDKit          3D

 48 51  0  0  1  0  0  0  0  0999 V2000
    2.2563    1.3152    1.8851 O   0  0  0  0  0  0  0  0  0  0  0  0
    1.7657    0.3137    2.4090 C   0  0  0  0  0  0  0  0  0  0  0  0
    2.2250   -1.0780    1.9903 C   0  0  0  0  0  0  0  0  0  0  0  0
    3.2080   -1.0728    0.7922 C   0  0  2  0  0  0  0  0  0  0  0  0
    3.5985   -2.4997    0.3721 C   0  0  0  0  0  0  0  0  0  0  0  0
    4.3821   -3.0806    1.4111 O   0  0  0  0  0  0  0  0  0  0  0  0
    5.5926   -2.3691    1.6538 C   0  0  0  0  0  0  0  0  0  0  0  0
    5.2943   -0.9173    2.0741 C   0  0  0  0  0  0  0  0  0  0  0  0
    4.4279   -0.2714    1.0637 N   0  0  0  0  0  0  0  0  0  0  0  0
    0.8357    0.3537    3.3729 N   0  0  0  0  0  0  0  0  0  0  0  0
    0.1793    1.5432    3.9154 C   0  0  1  0  0  0  0  0  0  0  0  0
   -0.7435    1.0823    5.0737 C   0  0  0  0  0  0  0  0  0  0  0  0
   -1.4873    2.2983    5.6642 C   0  0  2  0  0  0  0  0  0  0  0  0
   -2.3396    2.9523    4.5548 C   0  0  0  0  0  0  0  0  0  0  0  0
   -1.4233    3.4385    3.4177 C   0  0  1  0  0  0  0  0  0  0  0  0
   -0.4059    4.4568    3.9732 C   0  0  0  0  0  0  0  0  0  0  0  0
    0.4522    3.7818    5.0652 C   0  0  1  0  0  0  0  0  0  0  0  0
    1.3891    4.7167    5.5575 O   0  0  0  0  0  0  0  0  0  0  0  0
   -0.4532    3.3042    6.2180 C   0  0  0  0  0  0  0  0  0  0  0  0
    1.2027    2.5782    4.4687 C   0  0  0  0  0  0  0  0  0  0  0  0
   -0.6891    2.2231    2.8249 C   0  0  0  0  0  0  0  0  0  0  0  0
    2.6643   -1.5680    2.8608 H   0  0  0  0  0  0  0  0  0  0  0  0
    1.3439   -1.6705    1.7417 H   0  0  0  0  0  0  0  0  0  0  0  0
    2.7052   -0.6004   -0.0488 H   0  0  0  0  0  0  0  0  0  0  0  0
    2.7024   -3.1009    0.2023 H   0  0  0  0  0  0  0  0  0  0  0  0
    4.1502   -2.4919   -0.5697 H   0  0  0  0  0  0  0  0  0  0  0  0
    6.1419   -2.8840    2.4407 H   0  0  0  0  0  0  0  0  0  0  0  0
    6.2146   -2.3859    0.7595 H   0  0  0  0  0  0  0  0  0  0  0  0
    4.7992   -0.9041    3.0461 H   0  0  0  0  0  0  0  0  0  0  0  0
    6.2139   -0.3451    2.2050 H   0  0  0  0  0  0  0  0  0  0  0  0
    4.9408   -0.1432    0.2029 H   0  0  0  0  0  0  0  0  0  0  0  0
    0.5166   -0.5325    3.7387 H   0  0  0  0  0  0  0  0  0  0  0  0
   -1.4557    0.3392    4.7161 H   0  0  0  0  0  0  0  0  0  0  0  0
   -0.1579    0.5795    5.8430 H   0  0  0  0  0  0  0  0  0  0  0  0
   -2.1366    1.9709    6.4736 H   0  0  0  0  0  0  0  0  0  0  0  0
   -3.0396    2.2258    4.1448 H   0  0  0  0  0  0  0  0  0  0  0  0
   -2.9381    3.7603    4.9678 H   0  0  0  0  0  0  0  0  0  0  0  0
   -2.0226    3.9106    2.6382 H   0  0  0  0  0  0  0  0  0  0  0  0
    0.2265    4.8239    3.1642 H   0  0  0  0  0  0  0  0  0  0  0  0
   -0.9185    5.3271    4.3826 H   0  0  0  0  0  0  0  0  0  0  0  0
    1.9430    4.9821    4.8397 H   0  0  0  0  0  0  0  0  0  0  0  0
   -0.9489    4.1485    6.6949 H   0  0  0  0  0  0  0  0  0  0  0  0
    0.1483    2.8250    6.9930 H   0  0  0  0  0  0  0  0  0  0  0  0
    1.8595    2.1132    5.2046 H   0  0  0  0  0  0  0  0  0  0  0  0
    1.8521    2.9473    3.6790 H   0  0  0  0  0  0  0  0  0  0  0  0
   -0.0668    2.5461    1.9958 H   0  0  0  0  0  0  0  0  0  0  0  0
   -1.4015    1.5160    2.4000 H   0  0  0  0  0  0  0  0  0  0  0  0
    4.1184    0.6410    1.3872 H   0  0  0  0  0  0  0  0  0  0  0  0
  1  2  2  0
  2  3  1  0
  2 10  1  0
  3  4  1  0
  3 22  1  0
  3 23  1  0
  4  9  1  0
  4  5  1  0
  4 24  1  6
  5  6  1  0
  5 25  1  0
  5 26  1  0
  6  7  1  0
  7  8  1  0
  7 27  1  0
  7 28  1  0
  8  9  1  0
  8 29  1  0
  8 30  1  0
  9 31  1  0
  9 48  1  0
 11 10  1  6
 10 32  1  0
 11 20  1  0
 11 21  1  0
 11 12  1  0
 12 13  1  0
 12 33  1  0
 12 34  1  0
 13 19  1  0
 13 14  1  0
 13 35  1  1
 14 15  1  0
 14 36  1  0
 14 37  1  0
 15 16  1  0
 15 21  1  0
 15 38  1  6
 16 17  1  0
 16 39  1  0
 16 40  1  0
 17 18  1  1
 17 19  1  0
 17 20  1  0
 18 41  1  0
 19 42  1  0
 19 43  1  0
 20 44  1  0
 20 45  1  0
 21 46  1  0
 21 47  1  0
M  CHG  1   9   1
M  END
>  <i_m_ct_stereo_status>  (23) 
1

>  <s_m_source_file>  (23) 
/var/tmp/pbs.5076255.sched01/tmpmzpp47sj/0ood7iq68.sdf

>  <i_m_source_file_index>  (23) 
15

>  <i_lp_mmshare_version>  (23) 
48012

>  <i_f3d_flags>  (23) 
0

>  <s_epik_input>  (23) 
W05IXTFbQ0gyXVtDSDJdT1tDSDJdW0NASF0xW0NIMl1DKD1PKVtOSF1bQ0BAXTIzW0NIMl1bQ0BASF00W0NIMl1bQ0BIXShbQ0gyXTMpW0NIMl1bQ0BAXShbT0hdKShbQ0gyXTQpW0NIMl0y

>  <s_epik_cmdline>  (23) 
J2VwaWtfcHl0aG9uJywgJy1waHQnLCAnMi4wJywgJy1waCcsICc3LjAnLCAnLXRuJywgJzgnLCAnLW1hJywgJzIwMCcsICctaW1hZScsICc8aW5maWxlLm1hZT4nLCAnLW9tYWUnLCAnPG91dGZpbGUubWFlPic=

>  <r_epik_Ionization_Penalty>  (23) 
0.0323829

>  <r_epik_Ionization_Penalty_Charging>  (23) 
0.032382

>  <r_epik_Ionization_Penalty_Neutral>  (23) 
8.77208e-07

>  <r_epik_State_Penalty>  (23) 
0.0268212

>  <r_epik_Charging_Adjusted_Penalty>  (23) 
0.0592031

>  <i_epik_Tot_Q>  (23) 
1

>  <i_epik_Tot_abs_Q>  (23) 
1

>  <s_lp_Force_Field>  (23) 
OPLS3e

>  <r_lp_Energy>  (23) 
-16.4197

>  <b_lp_Chiralities_Consistent>  (23) 
1

>  <s_lp_Variant>  (23) 
7:0-1

>  <s_i_glide_gridfile>  (23) 
pfpi4k_grid

>  <i_i_glide_lignum>  (23) 
15

>  <i_i_glide_rotatable_bonds>  (23) 
5

>  <r_i_docking_score>  (23) 
-2.98479

>  <r_i_glide_ligand_efficiency>  (23) 
-0.142133

>  <r_i_glide_ligand_efficiency_sa>  (23) 
-0.392133

>  <r_i_glide_ligand_efficiency_ln>  (23) 
-0.737983

>  <r_i_glide_gscore>  (23) 
-2.98479

>  <r_i_glide_lipo>  (23) 
-0.184295

>  <r_i_glide_hbond>  (23) 
0

>  <r_i_glide_metal>  (23) 
-0

>  <r_i_glide_rewards>  (23) 
-1.89502

>  <r_i_glide_evdw>  (23) 
-17.2951

>  <r_i_glide_ecoul>  (23) 
-4.19165

>  <r_i_glide_erotb>  (23) 
0.629285

>  <r_i_glide_esite>  (23) 
-0.0412548

>  <r_i_glide_emodel>  (23) 
-32.9348

>  <r_i_glide_energy>  (23) 
-21.4868

>  <r_i_glide_einternal>  (23) 
0.484892

>  <r_i_glide_intrahb_reward>  (23) 
-0.5

>  <i_i_glide_confnum>  (23) 
3

>  <i_i_glide_posenum>  (23) 
2

>  <r_i_glide_eff_state_penalty>  (23) 
0

>  <ligand_id>  (23) 
7

>  <original_smiles>  (23) 
O=C(CC1COCCN1)NC12CC3CC(CC(O)(C3)C1)C2

>  <smiles>  (23) 
[H]OC12C([H])([H])C3([H])C([H])([H])C([H])(C1([H])[H])C([H])([H])C(N([H])C(=O)C([H])([H])C1([H])C([H])([H])OC([H])([H])C([H])([H])[N+]1([H])[H])(C3([H])[H])C2([H])[H]

$$$$
7:1:0
     RDKit          3D

 47 50  0  0  1  0  0  0  0  0999 V2000
    4.7347   -0.8751    1.2639 O   0  0  0  0  0  0  0  0  0  0  0  0
    3.6457   -1.0445    0.7290 C   0  0  0  0  0  0  0  0  0  0  0  0
    3.5502   -1.6669   -0.6741 C   0  0  0  0  0  0  0  0  0  0  0  0
    4.6843   -1.2467   -1.6295 C   0  0  2  0  0  0  0  0  0  0  0  0
    4.3042   -1.5671   -3.0863 C   0  0  0  0  0  0  0  0  0  0  0  0
    4.2512   -2.9740   -3.2550 O   0  0  0  0  0  0  0  0  0  0  0  0
    5.5043   -3.5892   -2.9675 C   0  0  0  0  0  0  0  0  0  0  0  0
    5.9571   -3.3066   -1.5224 C   0  0  0  0  0  0  0  0  0  0  0  0
    5.9744   -1.8628   -1.2672 N   0  0  0  0  0  0  0  0  0  0  0  0
    2.4639   -0.7417    1.2819 N   0  0  0  0  0  0  0  0  0  0  0  0
    2.1944   -0.1594    2.5974 C   0  0  1  0  0  0  0  0  0  0  0  0
    2.7111    1.3017    2.6835 C   0  0  0  0  0  0  0  0  0  0  0  0
    2.3974    1.8905    4.0818 C   0  0  2  0  0  0  0  0  0  0  0  0
    3.0891    1.0301    5.1572 C   0  0  0  0  0  0  0  0  0  0  0  0
    2.5376   -0.4086    5.0943 C   0  0  1  0  0  0  0  0  0  0  0  0
    1.0161   -0.4123    5.3182 C   0  0  0  0  0  0  0  0  0  0  0  0
    0.3414    0.4439    4.2257 C   0  0  1  0  0  0  0  0  0  0  0  0
   -1.0595    0.4336    4.4239 O   0  0  0  0  0  0  0  0  0  0  0  0
    0.8685    1.8934    4.3038 C   0  0  0  0  0  0  0  0  0  0  0  0
    0.6616   -0.1369    2.8242 C   0  0  0  0  0  0  0  0  0  0  0  0
    2.8493   -1.0172    3.7165 C   0  0  0  0  0  0  0  0  0  0  0  0
    3.4548   -2.7475   -0.5522 H   0  0  0  0  0  0  0  0  0  0  0  0
    2.6172   -1.3760   -1.1382 H   0  0  0  0  0  0  0  0  0  0  0  0
    4.7890   -0.1651   -1.5531 H   0  0  0  0  0  0  0  0  0  0  0  0
    3.3281   -1.1432   -3.3244 H   0  0  0  0  0  0  0  0  0  0  0  0
    5.0141   -1.1305   -3.7868 H   0  0  0  0  0  0  0  0  0  0  0  0
    5.3853   -4.6593   -3.1168 H   0  0  0  0  0  0  0  0  0  0  0  0
    6.2654   -3.2403   -3.6597 H   0  0  0  0  0  0  0  0  0  0  0  0
    5.2869   -3.8135   -0.8270 H   0  0  0  0  0  0  0  0  0  0  0  0
    6.9433   -3.7360   -1.3344 H   0  0  0  0  0  0  0  0  0  0  0  0
    6.1238   -1.7066   -0.2731 H   0  0  0  0  0  0  0  0  0  0  0  0
    1.6557   -0.9226    0.6791 H   0  0  0  0  0  0  0  0  0  0  0  0
    3.7849    1.3370    2.5098 H   0  0  0  0  0  0  0  0  0  0  0  0
    2.2600    1.9275    1.9088 H   0  0  0  0  0  0  0  0  0  0  0  0
    2.7758    2.9109    4.1349 H   0  0  0  0  0  0  0  0  0  0  0  0
    4.1647    1.0192    4.9869 H   0  0  0  0  0  0  0  0  0  0  0  0
    2.9435    1.4585    6.1501 H   0  0  0  0  0  0  0  0  0  0  0  0
    3.0189   -1.0128    5.8593 H   0  0  0  0  0  0  0  0  0  0  0  0
    0.6432   -1.4326    5.2748 H   0  0  0  0  0  0  0  0  0  0  0  0
    0.7720   -0.0382    6.3147 H   0  0  0  0  0  0  0  0  0  0  0  0
   -1.4686    0.9374    3.7301 H   0  0  0  0  0  0  0  0  0  0  0  0
    0.6271    2.3403    5.2703 H   0  0  0  0  0  0  0  0  0  0  0  0
    0.3916    2.5153    3.5428 H   0  0  0  0  0  0  0  0  0  0  0  0
    0.1818    0.4663    2.0486 H   0  0  0  0  0  0  0  0  0  0  0  0
    0.2414   -1.1389    2.7330 H   0  0  0  0  0  0  0  0  0  0  0  0
    2.4905   -2.0454    3.6518 H   0  0  0  0  0  0  0  0  0  0  0  0
    3.9331   -1.0750    3.6041 H   0  0  0  0  0  0  0  0  0  0  0  0
  1  2  2  0
  2  3  1  0
  2 10  1  0
  3  4  1  0
  3 22  1  0
  3 23  1  0
  4  9  1  0
  4  5  1  0
  4 24  1  6
  5  6  1  0
  5 25  1  0
  5 26  1  0
  6  7  1  0
  7  8  1  0
  7 27  1  0
  7 28  1  0
  8  9  1  0
  8 29  1  0
  8 30  1  0
  9 31  1  0
 11 10  1  6
 10 32  1  0
 11 20  1  0
 11 21  1  0
 11 12  1  0
 12 13  1  0
 12 33  1  0
 12 34  1  0
 13 19  1  0
 13 14  1  0
 13 35  1  6
 14 15  1  0
 14 36  1  0
 14 37  1  0
 15 16  1  0
 15 21  1  0
 15 38  1  1
 16 17  1  0
 16 39  1  0
 16 40  1  0
 17 18  1  1
 17 19  1  0
 17 20  1  0
 18 41  1  0
 19 42  1  0
 19 43  1  0
 20 44  1  0
 20 45  1  0
 21 46  1  0
 21 47  1  0
M  END
>  <i_m_ct_stereo_status>  (24) 
1

>  <s_m_source_file>  (24) 
/var/tmp/pbs.5076255.sched01/tmpmzpp47sj/0ood7iq68.sdf

>  <i_m_source_file_index>  (24) 
16

>  <i_lp_mmshare_version>  (24) 
48012

>  <i_f3d_flags>  (24) 
0

>  <s_epik_input>  (24) 
W05IXTFbQ0gyXVtDSDJdT1tDSDJdW0NASF0xW0NIMl1DKD1PKVtOSF1bQ0BAXTIzW0NIMl1bQ0BASF00W0NIMl1bQ0BIXShbQ0gyXTMpW0NIMl1bQ0BAXShbT0hdKShbQ0gyXTQpW0NIMl0y

>  <s_epik_cmdline>  (24) 
J2VwaWtfcHl0aG9uJywgJy1waHQnLCAnMi4wJywgJy1waCcsICc3LjAnLCAnLXRuJywgJzgnLCAnLW1hJywgJzIwMCcsICctaW1hZScsICc8aW5maWxlLm1hZT4nLCAnLW9tYWUnLCAnPG91dGZpbGUubWFlPic=

>  <r_epik_Ionization_Penalty>  (24) 
1.73831

>  <r_epik_Ionization_Penalty_Charging>  (24) 
0

>  <r_epik_Ionization_Penalty_Neutral>  (24) 
1.73831

>  <r_epik_State_Penalty>  (24) 
1.84718

>  <r_epik_Charging_Adjusted_Penalty>  (24) 
1.84718

>  <i_epik_Tot_Q>  (24) 
0

>  <i_epik_Tot_abs_Q>  (24) 
0

>  <s_lp_Force_Field>  (24) 
OPLS3e

>  <r_lp_Energy>  (24) 
-20.6567

>  <b_lp_Chiralities_Consistent>  (24) 
1

>  <s_lp_Variant>  (24) 
7:0-2

>  <s_i_glide_gridfile>  (24) 
pfpi4k_grid

>  <i_i_glide_lignum>  (24) 
16

>  <i_i_glide_rotatable_bonds>  (24) 
5

>  <r_i_docking_score>  (24) 
-3.88511

>  <r_i_glide_ligand_efficiency>  (24) 
-0.185005

>  <r_i_glide_ligand_efficiency_sa>  (24) 
-0.510416

>  <r_i_glide_ligand_efficiency_ln>  (24) 
-0.960587

>  <r_i_glide_gscore>  (24) 
-3.88511

>  <r_i_glide_lipo>  (24) 
-0.331918

>  <r_i_glide_hbond>  (24) 
-0.233381

>  <r_i_glide_metal>  (24) 
-0

>  <r_i_glide_rewards>  (24) 
-1.90189

>  <r_i_glide_evdw>  (24) 
-17.0402

>  <r_i_glide_ecoul>  (24) 
-7.25154

>  <r_i_glide_erotb>  (24) 
0.633053

>  <r_i_glide_esite>  (24) 
-0.111238

>  <r_i_glide_emodel>  (24) 
-34.9038

>  <r_i_glide_energy>  (24) 
-24.2917

>  <r_i_glide_einternal>  (24) 
1.69284

>  <r_i_glide_intrahb_reward>  (24) 
-0.5

>  <i_i_glide_confnum>  (24) 
1

>  <i_i_glide_posenum>  (24) 
13

>  <r_i_glide_eff_state_penalty>  (24) 
0

>  <ligand_id>  (24) 
7

>  <original_smiles>  (24) 
O=C(CC1COCCN1)NC12CC3CC(CC(O)(C3)C1)C2

>  <smiles>  (24) 
[H]OC12C([H])([H])C3([H])C([H])([H])C([H])(C1([H])[H])C([H])([H])C(N([H])C(=O)C([H])([H])C1([H])N([H])C([H])([H])C([H])([H])OC1([H])[H])(C3([H])[H])C2([H])[H]

$$$$
7:1:1
     RDKit          3D

 47 50  0  0  1  0  0  0  0  0999 V2000
    3.9945   -0.2989    0.4799 O   0  0  0  0  0  0  0  0  0  0  0  0
    3.8775   -1.3105    1.1699 C   0  0  0  0  0  0  0  0  0  0  0  0
    4.5745   -2.6139    0.7664 C   0  0  0  0  0  0  0  0  0  0  0  0
    5.4847   -2.4972   -0.4826 C   0  0  2  0  0  0  0  0  0  0  0  0
    6.1365   -3.8553   -0.8006 C   0  0  0  0  0  0  0  0  0  0  0  0
    7.0489   -4.1982    0.2401 O   0  0  0  0  0  0  0  0  0  0  0  0
    8.0951   -3.2394    0.3565 C   0  0  0  0  0  0  0  0  0  0  0  0
    7.5100   -1.8503    0.6824 C   0  0  0  0  0  0  0  0  0  0  0  0
    6.5273   -1.4678   -0.3260 N   0  0  0  0  0  0  0  0  0  0  0  0
    3.1614   -1.3671    2.3011 N   0  0  0  0  0  0  0  0  0  0  0  0
    2.2926   -0.3288    2.8552 C   0  0  1  0  0  0  0  0  0  0  0  0
    3.0238    1.0308    3.0434 C   0  0  0  0  0  0  0  0  0  0  0  0
    2.0593    2.0647    3.6488 C   0  0  2  0  0  0  0  0  0  0  0  0
    1.5911    1.5681    5.0290 C   0  0  0  0  0  0  0  0  0  0  0  0
    0.8369    0.2318    4.8585 C   0  0  1  0  0  0  0  0  0  0  0  0
   -0.3806    0.4211    3.9294 C   0  0  0  0  0  0  0  0  0  0  0  0
    0.1056    0.9012    2.5468 C   0  0  1  0  0  0  0  0  0  0  0  0
   -1.0200    1.0365    1.7055 O   0  0  0  0  0  0  0  0  0  0  0  0
    0.8471    2.2450    2.7041 C   0  0  0  0  0  0  0  0  0  0  0  0
    1.0721   -0.1224    1.9298 C   0  0  0  0  0  0  0  0  0  0  0  0
    1.7845   -0.8162    4.2381 C   0  0  0  0  0  0  0  0  0  0  0  0
    5.1445   -2.9664    1.6270 H   0  0  0  0  0  0  0  0  0  0  0  0
    3.8114   -3.3749    0.5930 H   0  0  0  0  0  0  0  0  0  0  0  0
    4.8534   -2.2192   -1.3284 H   0  0  0  0  0  0  0  0  0  0  0  0
    5.3700   -4.6312   -0.8733 H   0  0  0  0  0  0  0  0  0  0  0  0
    6.6448   -3.8252   -1.7656 H   0  0  0  0  0  0  0  0  0  0  0  0
    8.7645   -3.5591    1.1545 H   0  0  0  0  0  0  0  0  0  0  0  0
    8.6798   -3.2114   -0.5649 H   0  0  0  0  0  0  0  0  0  0  0  0
    7.0283   -1.8625    1.6611 H   0  0  0  0  0  0  0  0  0  0  0  0
    8.3071   -1.1078    0.7415 H   0  0  0  0  0  0  0  0  0  0  0  0
    6.0585   -0.6116   -0.0284 H   0  0  0  0  0  0  0  0  0  0  0  0
    3.1494   -2.2528    2.7863 H   0  0  0  0  0  0  0  0  0  0  0  0
    3.9062    0.9033    3.6722 H   0  0  0  0  0  0  0  0  0  0  0  0
    3.3812    1.4323    2.0976 H   0  0  0  0  0  0  0  0  0  0  0  0
    2.5817    3.0164    3.7594 H   0  0  0  0  0  0  0  0  0  0  0  0
    2.4525    1.4211    5.6830 H   0  0  0  0  0  0  0  0  0  0  0  0
    0.9590    2.3106    5.5123 H   0  0  0  0  0  0  0  0  0  0  0  0
    0.4966   -0.1188    5.8331 H   0  0  0  0  0  0  0  0  0  0  0  0
   -0.9177   -0.5207    3.8283 H   0  0  0  0  0  0  0  0  0  0  0  0
   -1.0860    1.1304    4.3597 H   0  0  0  0  0  0  0  0  0  0  0  0
   -0.7608    0.9584    0.7800 H   0  0  0  0  0  0  0  0  0  0  0  0
    0.1810    3.0209    3.0810 H   0  0  0  0  0  0  0  0  0  0  0  0
    1.2003    2.5734    1.7275 H   0  0  0  0  0  0  0  0  0  0  0  0
    1.4035    0.2344    0.9562 H   0  0  0  0  0  0  0  0  0  0  0  0
    0.5771   -1.0734    1.7490 H   0  0  0  0  0  0  0  0  0  0  0  0
    1.2658   -1.7726    4.1363 H   0  0  0  0  0  0  0  0  0  0  0  0
    2.6257   -1.0090    4.9091 H   0  0  0  0  0  0  0  0  0  0  0  0
  1  2  2  0
  2  3  1  0
  2 10  1  0
  3  4  1  0
  3 22  1  0
  3 23  1  0
  4  9  1  0
  4  5  1  0
  4 24  1  6
  5  6  1  0
  5 25  1  0
  5 26  1  0
  6  7  1  0
  7  8  1  0
  7 27  1  0
  7 28  1  0
  8  9  1  0
  8 29  1  0
  8 30  1  0
  9 31  1  0
 11 10  1  6
 10 32  1  0
 11 20  1  0
 11 21  1  0
 11 12  1  0
 12 13  1  0
 12 33  1  0
 12 34  1  0
 13 19  1  0
 13 14  1  0
 13 35  1  1
 14 15  1  0
 14 36  1  0
 14 37  1  0
 15 16  1  0
 15 21  1  0
 15 38  1  1
 16 17  1  0
 16 39  1  0
 16 40  1  0
 17 18  1  6
 17 19  1  0
 17 20  1  0
 18 41  1  0
 19 42  1  0
 19 43  1  0
 20 44  1  0
 20 45  1  0
 21 46  1  0
 21 47  1  0
M  END
>  <i_m_ct_stereo_status>  (25) 
1

>  <s_m_source_file>  (25) 
/var/tmp/pbs.5076255.sched01/tmpmzpp47sj/0ood7iq68.sdf

>  <i_m_source_file_index>  (25) 
16

>  <i_lp_mmshare_version>  (25) 
48012

>  <i_f3d_flags>  (25) 
0

>  <s_epik_input>  (25) 
W05IXTFbQ0gyXVtDSDJdT1tDSDJdW0NASF0xW0NIMl1DKD1PKVtOSF1bQ0BAXTIzW0NIMl1bQ0BASF00W0NIMl1bQ0BIXShbQ0gyXTMpW0NIMl1bQ0BAXShbT0hdKShbQ0gyXTQpW0NIMl0y

>  <s_epik_cmdline>  (25) 
J2VwaWtfcHl0aG9uJywgJy1waHQnLCAnMi4wJywgJy1waCcsICc3LjAnLCAnLXRuJywgJzgnLCAnLW1hJywgJzIwMCcsICctaW1hZScsICc8aW5maWxlLm1hZT4nLCAnLW9tYWUnLCAnPG91dGZpbGUubWFlPic=

>  <r_epik_Ionization_Penalty>  (25) 
1.73831

>  <r_epik_Ionization_Penalty_Charging>  (25) 
0

>  <r_epik_Ionization_Penalty_Neutral>  (25) 
1.73831

>  <r_epik_State_Penalty>  (25) 
1.84718

>  <r_epik_Charging_Adjusted_Penalty>  (25) 
1.84718

>  <i_epik_Tot_Q>  (25) 
0

>  <i_epik_Tot_abs_Q>  (25) 
0

>  <s_lp_Force_Field>  (25) 
OPLS3e

>  <r_lp_Energy>  (25) 
-20.6567

>  <b_lp_Chiralities_Consistent>  (25) 
1

>  <s_lp_Variant>  (25) 
7:0-2

>  <s_i_glide_gridfile>  (25) 
pfpi4k_grid

>  <i_i_glide_lignum>  (25) 
16

>  <i_i_glide_rotatable_bonds>  (25) 
5

>  <r_i_docking_score>  (25) 
-3.57501

>  <r_i_glide_ligand_efficiency>  (25) 
-0.170239

>  <r_i_glide_ligand_efficiency_sa>  (25) 
-0.469675

>  <r_i_glide_ligand_efficiency_ln>  (25) 
-0.883914

>  <r_i_glide_gscore>  (25) 
-3.57501

>  <r_i_glide_lipo>  (25) 
-0.311227

>  <r_i_glide_hbond>  (25) 
-0.268828

>  <r_i_glide_metal>  (25) 
-0

>  <r_i_glide_rewards>  (25) 
-1.90189

>  <r_i_glide_evdw>  (25) 
-16.6354

>  <r_i_glide_ecoul>  (25) 
-5.80082

>  <r_i_glide_erotb>  (25) 
0.633053

>  <r_i_glide_esite>  (25) 
-0.0242251

>  <r_i_glide_emodel>  (25) 
-32.6548

>  <r_i_glide_energy>  (25) 
-22.4362

>  <r_i_glide_einternal>  (25) 
1.20622

>  <r_i_glide_intrahb_reward>  (25) 
-0.5

>  <i_i_glide_confnum>  (25) 
1

>  <i_i_glide_posenum>  (25) 
14

>  <r_i_glide_eff_state_penalty>  (25) 
0

>  <ligand_id>  (25) 
7

>  <original_smiles>  (25) 
O=C(CC1COCCN1)NC12CC3CC(CC(O)(C3)C1)C2

>  <smiles>  (25) 
[H]OC12C([H])([H])C3([H])C([H])([H])C([H])(C1([H])[H])C([H])([H])C(N([H])C(=O)C([H])([H])C1([H])N([H])C([H])([H])C([H])([H])OC1([H])[H])(C3([H])[H])C2([H])[H]

$$$$
7:1:2
     RDKit          3D

 47 50  0  0  1  0  0  0  0  0999 V2000
    2.0820   -1.3366    2.0482 O   0  0  0  0  0  0  0  0  0  0  0  0
    2.7835   -0.3329    1.8989 C   0  0  0  0  0  0  0  0  0  0  0  0
    4.1405   -0.4225    1.2003 C   0  0  0  0  0  0  0  0  0  0  0  0
    4.5362   -1.8469    0.7242 C   0  0  2  0  0  0  0  0  0  0  0  0
    5.9137   -1.8247    0.0315 C   0  0  0  0  0  0  0  0  0  0  0  0
    5.8111   -1.0894   -1.1853 O   0  0  0  0  0  0  0  0  0  0  0  0
    4.8942   -1.6894   -2.0921 C   0  0  0  0  0  0  0  0  0  0  0  0
    3.4887   -1.7499   -1.4682 C   0  0  0  0  0  0  0  0  0  0  0  0
    3.5453   -2.4458   -0.1849 N   0  0  0  0  0  0  0  0  0  0  0  0
    2.4403    0.8896    2.3380 N   0  0  0  0  0  0  0  0  0  0  0  0
    1.2229    1.2607    3.0589 C   0  0  1  0  0  0  0  0  0  0  0  0
   -0.0342    1.1437    2.1535 C   0  0  0  0  0  0  0  0  0  0  0  0
   -1.2843    1.5781    2.9411 C   0  0  2  0  0  0  0  0  0  0  0  0
   -1.1295    3.0477    3.3769 C   0  0  0  0  0  0  0  0  0  0  0  0
    0.1079    3.1825    4.2877 C   0  0  1  0  0  0  0  0  0  0  0  0
   -0.0590    2.2971    5.5416 C   0  0  0  0  0  0  0  0  0  0  0  0
   -0.2155    0.8316    5.0989 C   0  0  1  0  0  0  0  0  0  0  0  0
   -0.3611    0.0190    6.2479 O   0  0  0  0  0  0  0  0  0  0  0  0
   -1.4526    0.6809    4.1887 C   0  0  0  0  0  0  0  0  0  0  0  0
    1.0324    0.3810    4.3273 C   0  0  0  0  0  0  0  0  0  0  0  0
    1.3697    2.7377    3.5073 C   0  0  0  0  0  0  0  0  0  0  0  0
    4.1259    0.2741    0.3625 H   0  0  0  0  0  0  0  0  0  0  0  0
    4.9052   -0.0374    1.8772 H   0  0  0  0  0  0  0  0  0  0  0  0
    4.6136   -2.4833    1.6082 H   0  0  0  0  0  0  0  0  0  0  0  0
    6.6493   -1.3477    0.6835 H   0  0  0  0  0  0  0  0  0  0  0  0
    6.2685   -2.8400   -0.1596 H   0  0  0  0  0  0  0  0  0  0  0  0
    4.8620   -1.0920   -3.0015 H   0  0  0  0  0  0  0  0  0  0  0  0
    5.2328   -2.6902   -2.3656 H   0  0  0  0  0  0  0  0  0  0  0  0
    3.0956   -0.7436   -1.3269 H   0  0  0  0  0  0  0  0  0  0  0  0
    2.7837   -2.2490   -2.1352 H   0  0  0  0  0  0  0  0  0  0  0  0
    2.6272   -2.3613    0.2558 H   0  0  0  0  0  0  0  0  0  0  0  0
    3.1073    1.6351    2.1826 H   0  0  0  0  0  0  0  0  0  0  0  0
    0.0797    1.7521    1.2545 H   0  0  0  0  0  0  0  0  0  0  0  0
   -0.1691    0.1269    1.7949 H   0  0  0  0  0  0  0  0  0  0  0  0
   -2.1612    1.4962    2.2982 H   0  0  0  0  0  0  0  0  0  0  0  0
   -1.0122    3.6804    2.4983 H   0  0  0  0  0  0  0  0  0  0  0  0
   -2.0233    3.3973    3.8850 H   0  0  0  0  0  0  0  0  0  0  0  0
    0.2218    4.2208    4.5964 H   0  0  0  0  0  0  0  0  0  0  0  0
    0.8134    2.4045    6.1861 H   0  0  0  0  0  0  0  0  0  0  0  0
   -0.9168    2.6153    6.1264 H   0  0  0  0  0  0  0  0  0  0  0  0
    0.4642    0.0260    6.7102 H   0  0  0  0  0  0  0  0  0  0  0  0
   -2.3575    0.9511    4.7295 H   0  0  0  0  0  0  0  0  0  0  0  0
   -1.5743   -0.3565    3.8781 H   0  0  0  0  0  0  0  0  0  0  0  0
    0.8933   -0.6650    4.0649 H   0  0  0  0  0  0  0  0  0  0  0  0
    1.9242    0.4146    4.9526 H   0  0  0  0  0  0  0  0  0  0  0  0
    2.2610    2.8571    4.1231 H   0  0  0  0  0  0  0  0  0  0  0  0
    1.5333    3.3906    2.6470 H   0  0  0  0  0  0  0  0  0  0  0  0
  1  2  2  0
  2  3  1  0
  2 10  1  0
  3  4  1  0
  3 22  1  0
  3 23  1  0
  4  9  1  0
  4  5  1  0
  4 24  1  1
  5  6  1  0
  5 25  1  0
  5 26  1  0
  6  7  1  0
  7  8  1  0
  7 27  1  0
  7 28  1  0
  8  9  1  0
  8 29  1  0
  8 30  1  0
  9 31  1  0
 11 10  1  6
 10 32  1  0
 11 20  1  0
 11 21  1  0
 11 12  1  0
 12 13  1  0
 12 33  1  0
 12 34  1  0
 13 19  1  0
 13 14  1  0
 13 35  1  6
 14 15  1  0
 14 36  1  0
 14 37  1  0
 15 16  1  0
 15 21  1  0
 15 38  1  1
 16 17  1  0
 16 39  1  0
 16 40  1  0
 17 18  1  1
 17 19  1  0
 17 20  1  0
 18 41  1  0
 19 42  1  0
 19 43  1  0
 20 44  1  0
 20 45  1  0
 21 46  1  0
 21 47  1  0
M  END
>  <i_m_ct_stereo_status>  (26) 
1

>  <s_m_source_file>  (26) 
/var/tmp/pbs.5076255.sched01/tmpmzpp47sj/0ood7iq68.sdf

>  <i_m_source_file_index>  (26) 
16

>  <i_lp_mmshare_version>  (26) 
48012

>  <i_f3d_flags>  (26) 
0

>  <s_epik_input>  (26) 
W05IXTFbQ0gyXVtDSDJdT1tDSDJdW0NASF0xW0NIMl1DKD1PKVtOSF1bQ0BAXTIzW0NIMl1bQ0BASF00W0NIMl1bQ0BIXShbQ0gyXTMpW0NIMl1bQ0BAXShbT0hdKShbQ0gyXTQpW0NIMl0y

>  <s_epik_cmdline>  (26) 
J2VwaWtfcHl0aG9uJywgJy1waHQnLCAnMi4wJywgJy1waCcsICc3LjAnLCAnLXRuJywgJzgnLCAnLW1hJywgJzIwMCcsICctaW1hZScsICc8aW5maWxlLm1hZT4nLCAnLW9tYWUnLCAnPG91dGZpbGUubWFlPic=

>  <r_epik_Ionization_Penalty>  (26) 
1.73831

>  <r_epik_Ionization_Penalty_Charging>  (26) 
0

>  <r_epik_Ionization_Penalty_Neutral>  (26) 
1.73831

>  <r_epik_State_Penalty>  (26) 
1.84718

>  <r_epik_Charging_Adjusted_Penalty>  (26) 
1.84718

>  <i_epik_Tot_Q>  (26) 
0

>  <i_epik_Tot_abs_Q>  (26) 
0

>  <s_lp_Force_Field>  (26) 
OPLS3e

>  <r_lp_Energy>  (26) 
-20.6567

>  <b_lp_Chiralities_Consistent>  (26) 
1

>  <s_lp_Variant>  (26) 
7:0-2

>  <s_i_glide_gridfile>  (26) 
pfpi4k_grid

>  <i_i_glide_lignum>  (26) 
16

>  <i_i_glide_rotatable_bonds>  (26) 
5

>  <r_i_docking_score>  (26) 
-2.89907

>  <r_i_glide_ligand_efficiency>  (26) 
-0.138051

>  <r_i_glide_ligand_efficiency_sa>  (26) 
-0.380872

>  <r_i_glide_ligand_efficiency_ln>  (26) 
-0.716788

>  <r_i_glide_gscore>  (26) 
-2.89907

>  <r_i_glide_lipo>  (26) 
-0.10733

>  <r_i_glide_hbond>  (26) 
-0.0683511

>  <r_i_glide_metal>  (26) 
-0

>  <r_i_glide_rewards>  (26) 
-1.90189

>  <r_i_glide_evdw>  (26) 
-20.7193

>  <r_i_glide_ecoul>  (26) 
-2.5649

>  <r_i_glide_erotb>  (26) 
0.633053

>  <r_i_glide_esite>  (26) 
-0.0338498

>  <r_i_glide_emodel>  (26) 
-32.7572

>  <r_i_glide_energy>  (26) 
-23.2842

>  <r_i_glide_einternal>  (26) 
0.836137

>  <r_i_glide_intrahb_reward>  (26) 
-0.5

>  <i_i_glide_confnum>  (26) 
1

>  <i_i_glide_posenum>  (26) 
8

>  <r_i_glide_eff_state_penalty>  (26) 
0

>  <ligand_id>  (26) 
7

>  <original_smiles>  (26) 
O=C(CC1COCCN1)NC12CC3CC(CC(O)(C3)C1)C2

>  <smiles>  (26) 
[H]OC12C([H])([H])C3([H])C([H])([H])C([H])(C1([H])[H])C([H])([H])C(N([H])C(=O)C([H])([H])C1([H])N([H])C([H])([H])C([H])([H])OC1([H])[H])(C3([H])[H])C2([H])[H]

$$$$
8:0:0
     RDKit          3D

 61 65  0  0  1  0  0  0  0  0999 V2000
    2.9327  -10.3209    4.3117 C   0  0  0  0  0  0  0  0  0  0  0  0
    1.7603   -9.3605    4.0443 C   0  0  2  0  0  0  0  0  0  0  0  0
    0.5483  -10.1246    3.4474 C   0  0  0  0  0  0  0  0  0  0  0  0
   -0.6578   -9.2131    3.1188 C   0  0  0  0  0  0  0  0  0  0  0  0
   -0.2790   -7.9584    2.3001 C   0  0  0  0  0  0  0  0  0  0  0  0
    0.8903   -7.2550    3.0035 C   0  0  1  0  0  0  0  0  0  0  0  0
    2.0971   -8.1959    3.0823 C   0  0  1  0  0  0  0  0  0  0  0  0
    3.3034   -7.2703    3.3519 C   0  0  0  0  0  0  0  0  0  0  0  0
    2.7863   -5.8010    3.2781 C   0  0  2  0  0  0  0  0  0  0  0  0
    2.5016   -5.3657    4.7424 C   0  0  0  0  0  0  0  0  0  0  0  0
    1.4609   -5.9282    2.4728 C   0  0  1  0  0  0  0  0  0  0  0  0
    1.6874   -5.9771    0.9478 C   0  0  0  0  0  0  0  0  0  0  0  0
    2.6402   -4.9013    0.4189 C   0  0  0  0  0  0  0  0  0  0  0  0
    4.0305   -5.0119    1.0992 C   0  0  2  0  0  0  0  0  0  0  0  0
    3.8073   -4.7940    2.6274 C   0  0  1  0  0  0  0  0  0  0  0  0
    3.4788   -3.3019    2.8967 C   0  0  0  0  0  0  0  0  0  0  0  0
    4.4004   -2.3545    2.1529 C   0  0  0  0  0  0  0  0  0  0  0  0
    5.1704   -2.7001    1.1077 C   0  0  0  0  0  0  0  0  0  0  0  0
    6.1420   -1.7078    0.4833 C   0  0  0  0  0  0  0  0  0  0  0  0
    7.5648   -2.2655    0.4413 C   0  0  0  0  0  0  0  0  0  0  0  0
    8.5217   -1.4954    0.4759 O   0  0  0  0  0  0  0  0  0  0  0  0
    7.7713   -3.8008    0.3271 C   0  0  0  0  0  0  0  0  0  0  0  0
    8.8647   -4.2688   -0.0077 O   0  0  0  0  0  0  0  0  0  0  0  0
    6.6028   -4.7365    0.6887 C   0  0  1  0  0  0  0  0  0  0  0  0
    6.8400   -5.2162    1.9943 O   0  0  0  0  0  0  0  0  0  0  0  0
    5.1778   -4.1050    0.4875 C   0  0  1  0  0  0  0  0  0  0  0  0
    4.9735   -3.9807   -1.0494 C   0  0  0  0  0  0  0  0  0  0  0  0
    3.2992  -10.7809    3.3946 H   0  0  0  0  0  0  0  0  0  0  0  0
    2.6213  -11.1236    4.9829 H   0  0  0  0  0  0  0  0  0  0  0  0
    3.7641   -9.8084    4.7937 H   0  0  0  0  0  0  0  0  0  0  0  0
    1.4613   -8.9510    5.0112 H   0  0  0  0  0  0  0  0  0  0  0  0
    0.8572  -10.6451    2.5403 H   0  0  0  0  0  0  0  0  0  0  0  0
    0.2225  -10.9029    4.1400 H   0  0  0  0  0  0  0  0  0  0  0  0
   -1.4142   -9.7917    2.5886 H   0  0  0  0  0  0  0  0  0  0  0  0
   -1.1194   -8.9051    4.0574 H   0  0  0  0  0  0  0  0  0  0  0  0
    0.0100   -8.2515    1.2886 H   0  0  0  0  0  0  0  0  0  0  0  0
   -1.1428   -7.2989    2.2131 H   0  0  0  0  0  0  0  0  0  0  0  0
    0.5374   -7.0550    4.0147 H   0  0  0  0  0  0  0  0  0  0  0  0
    2.2633   -8.6431    2.1004 H   0  0  0  0  0  0  0  0  0  0  0  0
    3.7917   -7.4885    4.2998 H   0  0  0  0  0  0  0  0  0  0  0  0
    4.0488   -7.4611    2.5834 H   0  0  0  0  0  0  0  0  0  0  0  0
    1.8654   -4.4818    4.7894 H   0  0  0  0  0  0  0  0  0  0  0  0
    3.4300   -5.1426    5.2680 H   0  0  0  0  0  0  0  0  0  0  0  0
    2.0067   -6.1456    5.3215 H   0  0  0  0  0  0  0  0  0  0  0  0
    0.7912   -5.1038    2.7126 H   0  0  0  0  0  0  0  0  0  0  0  0
    2.0892   -6.9456    0.6634 H   0  0  0  0  0  0  0  0  0  0  0  0
    0.7362   -5.8985    0.4298 H   0  0  0  0  0  0  0  0  0  0  0  0
    2.7032   -5.0550   -0.6568 H   0  0  0  0  0  0  0  0  0  0  0  0
    2.2172   -3.9044    0.5464 H   0  0  0  0  0  0  0  0  0  0  0  0
    4.3574   -6.0354    0.9320 H   0  0  0  0  0  0  0  0  0  0  0  0
    4.7450   -4.9722    3.1445 H   0  0  0  0  0  0  0  0  0  0  0  0
    2.4498   -3.0534    2.6367 H   0  0  0  0  0  0  0  0  0  0  0  0
    3.6011   -3.0711    3.9545 H   0  0  0  0  0  0  0  0  0  0  0  0
    4.4235   -1.3390    2.5235 H   0  0  0  0  0  0  0  0  0  0  0  0
    5.8362   -1.4608   -0.5290 H   0  0  0  0  0  0  0  0  0  0  0  0
    6.1521   -0.7816    1.0548 H   0  0  0  0  0  0  0  0  0  0  0  0
    6.6818   -5.6083    0.0397 H   0  0  0  0  0  0  0  0  0  0  0  0
    7.6352   -5.7298    1.9784 H   0  0  0  0  0  0  0  0  0  0  0  0
    4.8541   -4.9662   -1.5016 H   0  0  0  0  0  0  0  0  0  0  0  0
    5.8092   -3.5100   -1.5697 H   0  0  0  0  0  0  0  0  0  0  0  0
    4.0911   -3.3847   -1.2914 H   0  0  0  0  0  0  0  0  0  0  0  0
  1  2  1  0
  1 28  1  0
  1 29  1  0
  1 30  1  0
  2  7  1  0
  2  3  1  0
  2 31  1  1
  3  4  1  0
  3 32  1  0
  3 33  1  0
  4  5  1  0
  4 34  1  0
  4 35  1  0
  5  6  1  0
  5 36  1  0
  5 37  1  0
  6 11  1  0
  6  7  1  0
  6 38  1  1
  7  8  1  0
  7 39  1  6
  8  9  1  0
  8 40  1  0
  8 41  1  0
  9 15  1  0
  9 10  1  1
  9 11  1  0
 10 42  1  0
 10 43  1  0
 10 44  1  0
 11 12  1  0
 11 45  1  6
 12 13  1  0
 12 46  1  0
 12 47  1  0
 13 14  1  0
 13 48  1  0
 13 49  1  0
 14 26  1  0
 14 15  1  0
 14 50  1  1
 15 16  1  0
 15 51  1  1
 16 17  1  0
 16 52  1  0
 16 53  1  0
 17 18  2  0
 17 54  1  0
 18 26  1  0
 18 19  1  0
 19 20  1  0
 19 55  1  0
 19 56  1  0
 20 21  2  0
 20 22  1  0
 22 23  2  0
 22 24  1  0
 24 25  1  0
 24 26  1  0
 24 57  1  6
 25 58  1  0
 26 27  1  6
 27 59  1  0
 27 60  1  0
 27 61  1  0
M  END
>  <i_m_ct_stereo_status>  (27) 
1

>  <s_m_source_file>  (27) 
/var/tmp/pbs.5076255.sched01/tmpmzpp47sj/0ood7iq68.sdf

>  <i_m_source_file_index>  (27) 
17

>  <i_lp_mmshare_version>  (27) 
48012

>  <i_f3d_flags>  (27) 
0

>  <s_epik_input>  (27) 
W0NIMl0xW0NIMl1bQ0gyXVtDQEBIXShbQ0gzXSlbQ0BIXShbQ0gyXTIpW0NASF0xW0NAQEhdKFtDQEBdMjNbQ0gzXSlbQ0gyXVtDSDJdW0NAQEhdNFtDQEhdM1tDSDJdW0NIXT1DNVtDQEBdNChbQ0gzXSlbQ0BIXShbT0hdKUMoPU8pQyg9TylbQ0gyXTU=

>  <s_epik_cmdline>  (27) 
J2VwaWtfcHl0aG9uJywgJy1waHQnLCAnMi4wJywgJy1waCcsICc3LjAnLCAnLXRuJywgJzgnLCAnLW1hJywgJzIwMCcsICctaW1hZScsICc8aW5maWxlLm1hZT4nLCAnLW9tYWUnLCAnPG91dGZpbGUubWFlPic=

>  <r_epik_Ionization_Penalty>  (27) 
0.00174996

>  <r_epik_Ionization_Penalty_Charging>  (27) 
0

>  <r_epik_Ionization_Penalty_Neutral>  (27) 
0.00174996

>  <r_epik_State_Penalty>  (27) 
0.00118465

>  <r_epik_Charging_Adjusted_Penalty>  (27) 
0.00118465

>  <i_epik_Tot_Q>  (27) 
0

>  <i_epik_Tot_abs_Q>  (27) 
0

>  <s_lp_Force_Field>  (27) 
OPLS3e

>  <r_lp_Energy>  (27) 
66.0672

>  <b_lp_Chiralities_Consistent>  (27) 
1

>  <s_lp_Variant>  (27) 
8:0-1

>  <s_i_glide_gridfile>  (27) 
pfpi4k_grid

>  <i_i_glide_lignum>  (27) 
17

>  <i_i_glide_rotatable_bonds>  (27) 
1

>  <r_i_docking_score>  (27) 
-3.49424

>  <r_i_glide_ligand_efficiency>  (27) 
-0.129416

>  <r_i_glide_ligand_efficiency_sa>  (27) 
-0.388249

>  <r_i_glide_ligand_efficiency_ln>  (27) 
-0.813402

>  <r_i_glide_gscore>  (27) 
-3.49424

>  <r_i_glide_lipo>  (27) 
-0.338582

>  <r_i_glide_hbond>  (27) 
-0.0581042

>  <r_i_glide_metal>  (27) 
-0

>  <r_i_glide_rewards>  (27) 
-1.33654

>  <r_i_glide_evdw>  (27) 
-30.6248

>  <r_i_glide_ecoul>  (27) 
-1.53184

>  <r_i_glide_erotb>  (27) 
0

>  <r_i_glide_esite>  (27) 
0

>  <r_i_glide_emodel>  (27) 
-38.0772

>  <r_i_glide_energy>  (27) 
-32.1566

>  <r_i_glide_einternal>  (27) 
1.6945

>  <r_i_glide_intrahb_reward>  (27) 
-0

>  <i_i_glide_confnum>  (27) 
2

>  <i_i_glide_posenum>  (27) 
28

>  <r_i_glide_eff_state_penalty>  (27) 
0

>  <ligand_id>  (27) 
8

>  <original_smiles>  (27) 
CC1CCCC2C1CC1(C)C2CCC2C1CC=C1CC(=O)C(=O)C(O)C12C

>  <smiles>  (27) 
[H]OC1([H])C(=O)C(=O)C([H])([H])C2=C([H])C([H])([H])C3([H])C([H])(C([H])([H])C([H])([H])C4([H])C5([H])C([H])([H])C([H])([H])C([H])([H])C([H])(C([H])([H])[H])C5([H])C([H])([H])C34C([H])([H])[H])C21C([H])([H])[H]

$$$$
8:0:1
     RDKit          3D

 61 65  0  0  1  0  0  0  0  0999 V2000
    3.0235  -10.4132    4.1727 C   0  0  0  0  0  0  0  0  0  0  0  0
    1.8429   -9.4456    3.9650 C   0  0  2  0  0  0  0  0  0  0  0  0
    0.6164  -10.1912    3.3780 C   0  0  0  0  0  0  0  0  0  0  0  0
   -0.5947   -9.2699    3.1036 C   0  0  0  0  0  0  0  0  0  0  0  0
   -0.2327   -7.9908    2.3163 C   0  0  0  0  0  0  0  0  0  0  0  0
    0.9532   -7.3100    3.0130 C   0  0  1  0  0  0  0  0  0  0  0  0
    2.1588   -8.2521    3.0326 C   0  0  1  0  0  0  0  0  0  0  0  0
    3.3737   -7.3328    3.2998 C   0  0  0  0  0  0  0  0  0  0  0  0
    2.8544   -5.8635    3.2823 C   0  0  2  0  0  0  0  0  0  0  0  0
    2.6071   -5.4736    4.7660 C   0  0  0  0  0  0  0  0  0  0  0  0
    1.5111   -5.9681    2.5072 C   0  0  1  0  0  0  0  0  0  0  0  0
    1.7019   -5.9700    0.9768 C   0  0  0  0  0  0  0  0  0  0  0  0
    2.6407   -4.8774    0.4564 C   0  0  0  0  0  0  0  0  0  0  0  0
    4.0462   -5.0082    1.1011 C   0  0  2  0  0  0  0  0  0  0  0  0
    3.8586   -4.8381    2.6418 C   0  0  1  0  0  0  0  0  0  0  0  0
    3.5388   -3.3548    2.9629 C   0  0  0  0  0  0  0  0  0  0  0  0
    4.4446   -2.3850    2.2264 C   0  0  0  0  0  0  0  0  0  0  0  0
    5.1885   -2.6965    1.1511 C   0  0  0  0  0  0  0  0  0  0  0  0
    6.1491   -1.6898    0.5362 C   0  0  0  0  0  0  0  0  0  0  0  0
    7.5719   -2.2467    0.4453 C   0  0  0  0  0  0  0  0  0  0  0  0
    8.5273   -1.4781    0.4732 O   0  0  0  0  0  0  0  0  0  0  0  0
    7.7731   -3.7722    0.2714 C   0  0  0  0  0  0  0  0  0  0  0  0
    8.8500   -4.2302   -0.1157 O   0  0  0  0  0  0  0  0  0  0  0  0
    6.6115   -4.7139    0.6420 C   0  0  1  0  0  0  0  0  0  0  0  0
    6.8681   -5.2079    1.9383 O   0  0  0  0  0  0  0  0  0  0  0  0
    5.1802   -4.0821    0.4894 C   0  0  1  0  0  0  0  0  0  0  0  0
    4.9393   -3.9096   -1.0385 C   0  0  0  0  0  0  0  0  0  0  0  0
    3.3655  -10.8464    3.2329 H   0  0  0  0  0  0  0  0  0  0  0  0
    2.7279  -11.2369    4.8275 H   0  0  0  0  0  0  0  0  0  0  0  0
    3.8685   -9.9169    4.6491 H   0  0  0  0  0  0  0  0  0  0  0  0
    1.5714   -9.0663    4.9503 H   0  0  0  0  0  0  0  0  0  0  0  0
    0.9057  -10.6812    2.4490 H   0  0  0  0  0  0  0  0  0  0  0  0
    0.3082  -10.9903    4.0533 H   0  0  0  0  0  0  0  0  0  0  0  0
   -1.3642   -9.8322    2.5719 H   0  0  0  0  0  0  0  0  0  0  0  0
   -1.0360   -8.9900    4.0614 H   0  0  0  0  0  0  0  0  0  0  0  0
    0.0298   -8.2528    1.2882 H   0  0  0  0  0  0  0  0  0  0  0  0
   -1.0970   -7.3292    2.2667 H   0  0  0  0  0  0  0  0  0  0  0  0
    0.6230   -7.1403    4.0374 H   0  0  0  0  0  0  0  0  0  0  0  0
    2.3017   -8.6687    2.0340 H   0  0  0  0  0  0  0  0  0  0  0  0
    3.8834   -7.5830    4.2289 H   0  0  0  0  0  0  0  0  0  0  0  0
    4.0994   -7.5040    2.5064 H   0  0  0  0  0  0  0  0  0  0  0  0
    1.9746   -4.5893    4.8563 H   0  0  0  0  0  0  0  0  0  0  0  0
    3.5475   -5.2674    5.2784 H   0  0  0  0  0  0  0  0  0  0  0  0
    2.1241   -6.2692    5.3346 H   0  0  0  0  0  0  0  0  0  0  0  0
    0.8495   -5.1486    2.7858 H   0  0  0  0  0  0  0  0  0  0  0  0
    2.0955   -6.9259    0.6521 H   0  0  0  0  0  0  0  0  0  0  0  0
    0.7344   -5.8752    0.4897 H   0  0  0  0  0  0  0  0  0  0  0  0
    2.6786   -4.9993   -0.6235 H   0  0  0  0  0  0  0  0  0  0  0  0
    2.2175   -3.8871    0.6231 H   0  0  0  0  0  0  0  0  0  0  0  0
    4.3646   -6.0286    0.8907 H   0  0  0  0  0  0  0  0  0  0  0  0
    4.8032   -5.0279    3.1394 H   0  0  0  0  0  0  0  0  0  0  0  0
    2.5032   -3.0975    2.7344 H   0  0  0  0  0  0  0  0  0  0  0  0
    3.6887   -3.1576    4.0253 H   0  0  0  0  0  0  0  0  0  0  0  0
    4.4810   -1.3810    2.6273 H   0  0  0  0  0  0  0  0  0  0  0  0
    5.8153   -1.4075   -0.4594 H   0  0  0  0  0  0  0  0  0  0  0  0
    6.1725   -0.7799    1.1378 H   0  0  0  0  0  0  0  0  0  0  0  0
    6.6761   -5.5753   -0.0228 H   0  0  0  0  0  0  0  0  0  0  0  0
    6.2380   -5.8852    2.1355 H   0  0  0  0  0  0  0  0  0  0  0  0
    4.8084   -4.8812   -1.5180 H   0  0  0  0  0  0  0  0  0  0  0  0
    5.7636   -3.4234   -1.5618 H   0  0  0  0  0  0  0  0  0  0  0  0
    4.0520   -3.3067   -1.2412 H   0  0  0  0  0  0  0  0  0  0  0  0
  1  2  1  0
  1 28  1  0
  1 29  1  0
  1 30  1  0
  2  7  1  0
  2  3  1  0
  2 31  1  1
  3  4  1  0
  3 32  1  0
  3 33  1  0
  4  5  1  0
  4 34  1  0
  4 35  1  0
  5  6  1  0
  5 36  1  0
  5 37  1  0
  6 11  1  0
  6  7  1  0
  6 38  1  1
  7  8  1  0
  7 39  1  6
  8  9  1  0
  8 40  1  0
  8 41  1  0
  9 15  1  0
  9 10  1  1
  9 11  1  0
 10 42  1  0
 10 43  1  0
 10 44  1  0
 11 12  1  0
 11 45  1  6
 12 13  1  0
 12 46  1  0
 12 47  1  0
 13 14  1  0
 13 48  1  0
 13 49  1  0
 14 26  1  0
 14 15  1  0
 14 50  1  1
 15 16  1  0
 15 51  1  1
 16 17  1  0
 16 52  1  0
 16 53  1  0
 17 18  2  0
 17 54  1  0
 18 26  1  0
 18 19  1  0
 19 20  1  0
 19 55  1  0
 19 56  1  0
 20 21  2  0
 20 22  1  0
 22 23  2  0
 22 24  1  0
 24 25  1  0
 24 26  1  0
 24 57  1  6
 25 58  1  0
 26 27  1  6
 27 59  1  0
 27 60  1  0
 27 61  1  0
M  END
>  <i_m_ct_stereo_status>  (28) 
1

>  <s_m_source_file>  (28) 
/var/tmp/pbs.5076255.sched01/tmpmzpp47sj/0ood7iq68.sdf

>  <i_m_source_file_index>  (28) 
17

>  <i_lp_mmshare_version>  (28) 
48012

>  <i_f3d_flags>  (28) 
0

>  <s_epik_input>  (28) 
W0NIMl0xW0NIMl1bQ0gyXVtDQEBIXShbQ0gzXSlbQ0BIXShbQ0gyXTIpW0NASF0xW0NAQEhdKFtDQEBdMjNbQ0gzXSlbQ0gyXVtDSDJdW0NAQEhdNFtDQEhdM1tDSDJdW0NIXT1DNVtDQEBdNChbQ0gzXSlbQ0BIXShbT0hdKUMoPU8pQyg9TylbQ0gyXTU=

>  <s_epik_cmdline>  (28) 
J2VwaWtfcHl0aG9uJywgJy1waHQnLCAnMi4wJywgJy1waCcsICc3LjAnLCAnLXRuJywgJzgnLCAnLW1hJywgJzIwMCcsICctaW1hZScsICc8aW5maWxlLm1hZT4nLCAnLW9tYWUnLCAnPG91dGZpbGUubWFlPic=

>  <r_epik_Ionization_Penalty>  (28) 
0.00174996

>  <r_epik_Ionization_Penalty_Charging>  (28) 
0

>  <r_epik_Ionization_Penalty_Neutral>  (28) 
0.00174996

>  <r_epik_State_Penalty>  (28) 
0.00118465

>  <r_epik_Charging_Adjusted_Penalty>  (28) 
0.00118465

>  <i_epik_Tot_Q>  (28) 
0

>  <i_epik_Tot_abs_Q>  (28) 
0

>  <s_lp_Force_Field>  (28) 
OPLS3e

>  <r_lp_Energy>  (28) 
66.0672

>  <b_lp_Chiralities_Consistent>  (28) 
1

>  <s_lp_Variant>  (28) 
8:0-1

>  <s_i_glide_gridfile>  (28) 
pfpi4k_grid

>  <i_i_glide_lignum>  (28) 
17

>  <i_i_glide_rotatable_bonds>  (28) 
1

>  <r_i_docking_score>  (28) 
-3.47178

>  <r_i_glide_ligand_efficiency>  (28) 
-0.128584

>  <r_i_glide_ligand_efficiency_sa>  (28) 
-0.385753

>  <r_i_glide_ligand_efficiency_ln>  (28) 
-0.808173

>  <r_i_glide_gscore>  (28) 
-3.47178

>  <r_i_glide_lipo>  (28) 
-0.354008

>  <r_i_glide_hbond>  (28) 
-0.0624774

>  <r_i_glide_metal>  (28) 
-0

>  <r_i_glide_rewards>  (28) 
-1.3247

>  <r_i_glide_evdw>  (28) 
-30.7902

>  <r_i_glide_ecoul>  (28) 
-1.27391

>  <r_i_glide_erotb>  (28) 
0

>  <r_i_glide_esite>  (28) 
0

>  <r_i_glide_emodel>  (28) 
-38.8016

>  <r_i_glide_energy>  (28) 
-32.0641

>  <r_i_glide_einternal>  (28) 
0.00399563

>  <r_i_glide_intrahb_reward>  (28) 
-0

>  <i_i_glide_confnum>  (28) 
1

>  <i_i_glide_posenum>  (28) 
8

>  <r_i_glide_eff_state_penalty>  (28) 
0

>  <ligand_id>  (28) 
8

>  <original_smiles>  (28) 
CC1CCCC2C1CC1(C)C2CCC2C1CC=C1CC(=O)C(=O)C(O)C12C

>  <smiles>  (28) 
[H]OC1([H])C(=O)C(=O)C([H])([H])C2=C([H])C([H])([H])C3([H])C([H])(C([H])([H])C([H])([H])C4([H])C5([H])C([H])([H])C([H])([H])C([H])([H])C([H])(C([H])([H])[H])C5([H])C([H])([H])C34C([H])([H])[H])C21C([H])([H])[H]

$$$$
8:0:2
     RDKit          3D

 61 65  0  0  1  0  0  0  0  0999 V2000
    4.4640  -11.0920    4.5863 C   0  0  0  0  0  0  0  0  0  0  0  0
    3.1408  -10.3128    4.4890 C   0  0  2  0  0  0  0  0  0  0  0  0
    1.9911  -11.2403    4.0178 C   0  0  0  0  0  0  0  0  0  0  0  0
    0.6367  -10.5101    3.8645 C   0  0  0  0  0  0  0  0  0  0  0  0
    0.7321   -9.2107    3.0369 C   0  0  0  0  0  0  0  0  0  0  0  0
    1.8564   -8.3467    3.6226 C   0  0  1  0  0  0  0  0  0  0  0  0
    3.1870   -9.0963    3.5331 C   0  0  1  0  0  0  0  0  0  0  0  0
    4.2685   -8.0033    3.6917 C   0  0  0  0  0  0  0  0  0  0  0  0
    3.5376   -6.6260    3.7272 C   0  0  2  0  0  0  0  0  0  0  0  0
    3.3689   -6.2634    5.2291 C   0  0  0  0  0  0  0  0  0  0  0  0
    2.1581   -6.9379    3.0780 C   0  0  1  0  0  0  0  0  0  0  0  0
    2.1945   -6.9227    1.5363 C   0  0  0  0  0  0  0  0  0  0  0  0
    2.9162   -5.7160    0.9313 C   0  0  0  0  0  0  0  0  0  0  0  0
    4.3789   -5.6264    1.4475 C   0  0  2  0  0  0  0  0  0  0  0  0
    4.3125   -5.4697    2.9977 C   0  0  1  0  0  0  0  0  0  0  0  0
    3.8094   -4.0467    3.3539 C   0  0  0  0  0  0  0  0  0  0  0  0
    4.4871   -2.9619    2.5426 C   0  0  0  0  0  0  0  0  0  0  0  0
    5.1692   -3.1710    1.4024 C   0  0  0  0  0  0  0  0  0  0  0  0
    5.9070   -2.0384    0.6981 C   0  0  0  0  0  0  0  0  0  0  0  0
    7.3839   -2.3745    0.4724 C   0  0  0  0  0  0  0  0  0  0  0  0
    8.2155   -1.4713    0.4223 O   0  0  0  0  0  0  0  0  0  0  0  0
    7.7959   -3.8587    0.2947 C   0  0  0  0  0  0  0  0  0  0  0  0
    8.8917   -4.1582   -0.1919 O   0  0  0  0  0  0  0  0  0  0  0  0
    6.8245   -4.9612    0.7624 C   0  0  1  0  0  0  0  0  0  0  0  0
    7.2743   -5.4368    2.0142 O   0  0  0  0  0  0  0  0  0  0  0  0
    5.3051   -4.5499    0.7426 C   0  0  1  0  0  0  0  0  0  0  0  0
    4.9066   -4.4309   -0.7549 C   0  0  0  0  0  0  0  0  0  0  0  0
    4.7799  -11.4760    3.6155 H   0  0  0  0  0  0  0  0  0  0  0  0
    4.3528  -11.9443    5.2611 H   0  0  0  0  0  0  0  0  0  0  0  0
    5.2641  -10.4681    4.9862 H   0  0  0  0  0  0  0  0  0  0  0  0
    2.9022   -9.9690    5.4957 H   0  0  0  0  0  0  0  0  0  0  0  0
    2.2590  -11.6952    3.0641 H   0  0  0  0  0  0  0  0  0  0  0  0
    1.8671  -12.0698    4.7144 H   0  0  0  0  0  0  0  0  0  0  0  0
   -0.0908  -11.1725    3.4020 H   0  0  0  0  0  0  0  0  0  0  0  0
    0.2456  -10.2799    4.8571 H   0  0  0  0  0  0  0  0  0  0  0  0
    0.9384   -9.4532    1.9931 H   0  0  0  0  0  0  0  0  0  0  0  0
   -0.2206   -8.6813    3.0660 H   0  0  0  0  0  0  0  0  0  0  0  0
    1.5989   -8.2154    4.6725 H   0  0  0  0  0  0  0  0  0  0  0  0
    3.3004   -9.4988    2.5246 H   0  0  0  0  0  0  0  0  0  0  0  0
    4.8937   -8.1634    4.5690 H   0  0  0  0  0  0  0  0  0  0  0  0
    4.9374   -8.0707    2.8357 H   0  0  0  0  0  0  0  0  0  0  0  0
    2.6203   -5.4843    5.3792 H   0  0  0  0  0  0  0  0  0  0  0  0
    4.3116   -5.9137    5.6517 H   0  0  0  0  0  0  0  0  0  0  0  0
    3.0650   -7.1190    5.8351 H   0  0  0  0  0  0  0  0  0  0  0  0
    1.4032   -6.2292    3.4175 H   0  0  0  0  0  0  0  0  0  0  0  0
    2.6926   -7.8178    1.1694 H   0  0  0  0  0  0  0  0  0  0  0  0
    1.1792   -6.9680    1.1469 H   0  0  0  0  0  0  0  0  0  0  0  0
    2.8795   -5.8492   -0.1477 H   0  0  0  0  0  0  0  0  0  0  0  0
    2.3648   -4.7997    1.1358 H   0  0  0  0  0  0  0  0  0  0  0  0
    4.8321   -6.5864    1.2096 H   0  0  0  0  0  0  0  0  0  0  0  0
    5.3176   -5.5204    3.4027 H   0  0  0  0  0  0  0  0  0  0  0  0
    2.7323   -3.9501    3.2224 H   0  0  0  0  0  0  0  0  0  0  0  0
    4.0215   -3.8190    4.3977 H   0  0  0  0  0  0  0  0  0  0  0  0
    4.4089   -1.9583    2.9388 H   0  0  0  0  0  0  0  0  0  0  0  0
    5.4463   -1.8183   -0.2623 H   0  0  0  0  0  0  0  0  0  0  0  0
    5.8516   -1.1291    1.2959 H   0  0  0  0  0  0  0  0  0  0  0  0
    6.9530   -5.8012    0.0785 H   0  0  0  0  0  0  0  0  0  0  0  0
    7.1925   -4.7388    2.6463 H   0  0  0  0  0  0  0  0  0  0  0  0
    4.8837   -5.4195   -1.2182 H   0  0  0  0  0  0  0  0  0  0  0  0
    5.5985   -3.8335   -1.3534 H   0  0  0  0  0  0  0  0  0  0  0  0
    3.9225   -3.9716   -0.8766 H   0  0  0  0  0  0  0  0  0  0  0  0
  1  2  1  0
  1 28  1  0
  1 29  1  0
  1 30  1  0
  2  7  1  0
  2  3  1  0
  2 31  1  1
  3  4  1  0
  3 32  1  0
  3 33  1  0
  4  5  1  0
  4 34  1  0
  4 35  1  0
  5  6  1  0
  5 36  1  0
  5 37  1  0
  6 11  1  0
  6  7  1  0
  6 38  1  1
  7  8  1  0
  7 39  1  6
  8  9  1  0
  8 40  1  0
  8 41  1  0
  9 15  1  0
  9 10  1  1
  9 11  1  0
 10 42  1  0
 10 43  1  0
 10 44  1  0
 11 12  1  0
 11 45  1  1
 12 13  1  0
 12 46  1  0
 12 47  1  0
 13 14  1  0
 13 48  1  0
 13 49  1  0
 14 26  1  0
 14 15  1  0
 14 50  1  1
 15 16  1  0
 15 51  1  1
 16 17  1  0
 16 52  1  0
 16 53  1  0
 17 18  2  0
 17 54  1  0
 18 26  1  0
 18 19  1  0
 19 20  1  0
 19 55  1  0
 19 56  1  0
 20 21  2  0
 20 22  1  0
 22 23  2  0
 22 24  1  0
 24 25  1  0
 24 26  1  0
 24 57  1  6
 25 58  1  0
 26 27  1  6
 27 59  1  0
 27 60  1  0
 27 61  1  0
M  END
>  <i_m_ct_stereo_status>  (29) 
1

>  <s_m_source_file>  (29) 
/var/tmp/pbs.5076255.sched01/tmpmzpp47sj/0ood7iq68.sdf

>  <i_m_source_file_index>  (29) 
17

>  <i_lp_mmshare_version>  (29) 
48012

>  <i_f3d_flags>  (29) 
0

>  <s_epik_input>  (29) 
W0NIMl0xW0NIMl1bQ0gyXVtDQEBIXShbQ0gzXSlbQ0BIXShbQ0gyXTIpW0NASF0xW0NAQEhdKFtDQEBdMjNbQ0gzXSlbQ0gyXVtDSDJdW0NAQEhdNFtDQEhdM1tDSDJdW0NIXT1DNVtDQEBdNChbQ0gzXSlbQ0BIXShbT0hdKUMoPU8pQyg9TylbQ0gyXTU=

>  <s_epik_cmdline>  (29) 
J2VwaWtfcHl0aG9uJywgJy1waHQnLCAnMi4wJywgJy1waCcsICc3LjAnLCAnLXRuJywgJzgnLCAnLW1hJywgJzIwMCcsICctaW1hZScsICc8aW5maWxlLm1hZT4nLCAnLW9tYWUnLCAnPG91dGZpbGUubWFlPic=

>  <r_epik_Ionization_Penalty>  (29) 
0.00174996

>  <r_epik_Ionization_Penalty_Charging>  (29) 
0

>  <r_epik_Ionization_Penalty_Neutral>  (29) 
0.00174996

>  <r_epik_State_Penalty>  (29) 
0.00118465

>  <r_epik_Charging_Adjusted_Penalty>  (29) 
0.00118465

>  <i_epik_Tot_Q>  (29) 
0

>  <i_epik_Tot_abs_Q>  (29) 
0

>  <s_lp_Force_Field>  (29) 
OPLS3e

>  <r_lp_Energy>  (29) 
66.0672

>  <b_lp_Chiralities_Consistent>  (29) 
1

>  <s_lp_Variant>  (29) 
8:0-1

>  <s_i_glide_gridfile>  (29) 
pfpi4k_grid

>  <i_i_glide_lignum>  (29) 
17

>  <i_i_glide_rotatable_bonds>  (29) 
1

>  <r_i_docking_score>  (29) 
-3.4713

>  <r_i_glide_ligand_efficiency>  (29) 
-0.128567

>  <r_i_glide_ligand_efficiency_sa>  (29) 
-0.3857

>  <r_i_glide_ligand_efficiency_ln>  (29) 
-0.808061

>  <r_i_glide_gscore>  (29) 
-3.4713

>  <r_i_glide_lipo>  (29) 
-0.365087

>  <r_i_glide_hbond>  (29) 
-0.100508

>  <r_i_glide_metal>  (29) 
-0

>  <r_i_glide_rewards>  (29) 
-1.33808

>  <r_i_glide_evdw>  (29) 
-28.248

>  <r_i_glide_ecoul>  (29) 
-1.70147

>  <r_i_glide_erotb>  (29) 
0

>  <r_i_glide_esite>  (29) 
0

>  <r_i_glide_emodel>  (29) 
-36.0252

>  <r_i_glide_energy>  (29) 
-29.9494

>  <r_i_glide_einternal>  (29) 
1.26794

>  <r_i_glide_intrahb_reward>  (29) 
-0

>  <i_i_glide_confnum>  (29) 
2

>  <i_i_glide_posenum>  (29) 
24

>  <r_i_glide_eff_state_penalty>  (29) 
0

>  <ligand_id>  (29) 
8

>  <original_smiles>  (29) 
CC1CCCC2C1CC1(C)C2CCC2C1CC=C1CC(=O)C(=O)C(O)C12C

>  <smiles>  (29) 
[H]OC1([H])C(=O)C(=O)C([H])([H])C2=C([H])C([H])([H])C3([H])C([H])(C([H])([H])C([H])([H])C4([H])C5([H])C([H])([H])C([H])([H])C([H])([H])C([H])(C([H])([H])[H])C5([H])C([H])([H])C34C([H])([H])[H])C21C([H])([H])[H]

$$$$
9:0:0
     RDKit          3D

 60 65  0  0  1  0  0  0  0  0999 V2000
    3.5585   -1.9122   -0.6333 C   0  0  0  0  0  0  0  0  0  0  0  0
    4.1317   -1.7089    0.6578 O   0  0  0  0  0  0  0  0  0  0  0  0
    4.5813   -2.8319    1.3747 C   0  0  2  0  0  0  0  0  0  0  0  0
    5.2561   -3.7175    0.5406 O   0  0  0  0  0  0  0  0  0  0  0  0
    4.4639   -4.8484    0.1979 C   0  0  1  0  0  0  0  0  0  0  0  0
    5.2830   -6.0715    0.4943 C   0  0  0  0  0  0  0  0  0  0  0  0
    5.6099   -6.2006    1.9995 C   0  0  1  0  0  0  0  0  0  0  0  0
    6.9273   -5.3564    2.2097 C   0  0  0  0  0  0  0  0  0  0  0  0
    4.4969   -6.5209    3.2070 C   0  0  1  0  0  0  0  0  0  0  0  0
    5.2652   -5.8675    4.3740 C   0  0  0  0  0  0  0  0  0  0  0  0
    5.0706   -4.4396    4.0101 O   0  0  0  0  0  0  0  0  0  0  0  0
    3.7730   -3.9284    3.5929 C   0  0  2  0  0  0  0  0  0  0  0  0
    2.7195   -4.6679    4.0091 O   0  0  0  0  0  0  0  0  0  0  0  0
    3.1169   -5.9812    3.9009 C   0  0  1  0  0  0  0  0  0  0  0  0
    2.1002   -7.0469    4.2128 C   0  0  0  0  0  0  0  0  0  0  0  0
    0.9236   -6.8740    4.5397 O   0  0  0  0  0  0  0  0  0  0  0  0
    2.8412   -8.3281    4.0233 C   0  0  1  0  0  0  0  0  0  0  0  0
    1.9822   -9.5864    3.9063 C   0  0  0  0  0  0  0  0  0  0  0  0
    1.8646  -10.5834    4.9237 C   0  0  0  0  0  0  0  0  0  0  0  0
    1.0243  -11.5551    4.4445 C   0  0  0  0  0  0  0  0  0  0  0  0
    0.6152  -11.2456    3.1928 O   0  0  0  0  0  0  0  0  0  0  0  0
    1.1775  -10.0485    2.8897 C   0  0  0  0  0  0  0  0  0  0  0  0
    3.7976   -7.9070    2.8611 C   0  0  2  0  0  0  0  0  0  0  0  0
    4.7681   -9.0905    2.6155 C   0  0  0  0  0  0  0  0  0  0  0  0
    2.9195   -7.5974    1.5493 C   0  0  0  0  0  0  0  0  0  0  0  0
    2.3675   -6.1386    1.1342 C   0  0  1  0  0  0  0  0  0  0  0  0
    1.0792   -5.8617    1.6537 O   0  0  0  0  0  0  0  0  0  0  0  0
    3.2041   -4.7918    1.0309 C   0  0  1  0  0  0  0  0  0  0  0  0
    3.4302   -3.6156    2.0605 C   0  0  2  0  0  0  0  0  0  0  0  0
    2.1569   -2.7104    2.1573 C   0  0  0  0  0  0  0  0  0  0  0  0
    3.2996   -0.9411   -1.0501 H   0  0  0  0  0  0  0  0  0  0  0  0
    2.6591   -2.5069   -0.6070 H   0  0  0  0  0  0  0  0  0  0  0  0
    4.2794   -2.3682   -1.3149 H   0  0  0  0  0  0  0  0  0  0  0  0
    5.2986   -2.4696    2.1143 H   0  0  0  0  0  0  0  0  0  0  0  0
    4.2351   -4.8225   -0.8669 H   0  0  0  0  0  0  0  0  0  0  0  0
    4.8731   -6.9565    0.0367 H   0  0  0  0  0  0  0  0  0  0  0  0
    6.1989   -5.9862   -0.0901 H   0  0  0  0  0  0  0  0  0  0  0  0
    6.1442   -7.1427    1.9858 H   0  0  0  0  0  0  0  0  0  0  0  0
    6.7452   -4.3074    2.4214 H   0  0  0  0  0  0  0  0  0  0  0  0
    7.5595   -5.3545    1.3215 H   0  0  0  0  0  0  0  0  0  0  0  0
    7.6043   -5.7552    2.9633 H   0  0  0  0  0  0  0  0  0  0  0  0
    4.9933   -6.0971    5.4093 H   0  0  0  0  0  0  0  0  0  0  0  0
    6.3049   -6.1675    4.4427 H   0  0  0  0  0  0  0  0  0  0  0  0
    3.7117   -2.9902    4.1422 H   0  0  0  0  0  0  0  0  0  0  0  0
    3.2095   -5.9896    4.9837 H   0  0  0  0  0  0  0  0  0  0  0  0
    3.4476   -8.4600    4.9208 H   0  0  0  0  0  0  0  0  0  0  0  0
    2.3259  -10.6125    5.8939 H   0  0  0  0  0  0  0  0  0  0  0  0
    0.6437  -12.4826    4.8352 H   0  0  0  0  0  0  0  0  0  0  0  0
    0.8877   -9.7113    1.9085 H   0  0  0  0  0  0  0  0  0  0  0  0
    4.2323  -10.0398    2.5717 H   0  0  0  0  0  0  0  0  0  0  0  0
    5.5104   -9.1715    3.4114 H   0  0  0  0  0  0  0  0  0  0  0  0
    5.2932   -9.0227    1.6627 H   0  0  0  0  0  0  0  0  0  0  0  0
    3.4191   -8.0778    0.7104 H   0  0  0  0  0  0  0  0  0  0  0  0
    2.0192   -8.1671    1.5698 H   0  0  0  0  0  0  0  0  0  0  0  0
    2.1141   -6.3124    0.0890 H   0  0  0  0  0  0  0  0  0  0  0  0
    1.1356   -5.7656    2.5930 H   0  0  0  0  0  0  0  0  0  0  0  0
    2.5377   -4.2902    0.3390 H   0  0  0  0  0  0  0  0  0  0  0  0
    1.3314   -3.2374    2.6446 H   0  0  0  0  0  0  0  0  0  0  0  0
    1.7829   -2.3597    1.2047 H   0  0  0  0  0  0  0  0  0  0  0  0
    2.3517   -1.8262    2.7689 H   0  0  0  0  0  0  0  0  0  0  0  0
  1  2  1  0
  1 31  1  0
  1 32  1  0
  1 33  1  0
  2  3  1  0
  3 29  1  0
  3  4  1  0
  3 34  1  1
  4  5  1  0
  5 28  1  0
  5  6  1  0
  5 35  1  6
  6  7  1  0
  6 36  1  0
  6 37  1  0
  7  8  1  0
  7  9  1  0
  7 38  1  6
  8 39  1  0
  8 40  1  0
  8 41  1  0
  9 14  1  0
  9 23  1  0
  9 10  1  1
 10 11  1  0
 10 42  1  0
 10 43  1  0
 11 12  1  0
 12 29  1  0
 12 13  1  0
 12 44  1  1
 13 14  1  0
 14 15  1  0
 14 45  1  1
 15 16  2  0
 15 17  1  0
 17 18  1  0
 17 23  1  0
 17 46  1  1
 18 22  2  0
 18 19  1  0
 19 20  2  0
 19 47  1  0
 20 21  1  0
 20 48  1  0
 21 22  1  0
 22 49  1  0
 23 24  1  6
 23 25  1  0
 24 50  1  0
 24 51  1  0
 24 52  1  0
 25 26  1  0
 25 53  1  0
 25 54  1  0
 26 27  1  0
 26 28  1  0
 26 55  1  6
 27 56  1  0
 28 29  1  0
 28 57  1  6
 29 30  1  1
 30 58  1  0
 30 59  1  0
 30 60  1  0
M  END
>  <i_m_ct_stereo_status>  (30) 
1

>  <s_m_source_file>  (30) 
/var/tmp/pbs.5076255.sched01/tmpmzpp47sj/0ood7iq68.sdf

>  <i_m_source_file_index>  (30) 
18

>  <i_lp_mmshare_version>  (30) 
48012

>  <i_f3d_flags>  (30) 
0

>  <s_epik_input>  (30) 
W0NIM11PW0NAQEhdMU9bQ0BASF0oW0NIMl1bQ0BIXTJbQ0gzXSlbQ0BIXShbQ0BAXTEoW0NIM10pW0NASF0oT1tDSDJdMylPW0NAQEhdNEMyMzUpW0NASF0oW09IXSlbQ0gyXVtDQF01KFtDSDNdKVtDQEBIXShDND1PKWM2W2NIXVtjSF1vW2NIXTY=

>  <s_epik_cmdline>  (30) 
J2VwaWtfcHl0aG9uJywgJy1waHQnLCAnMi4wJywgJy1waCcsICc3LjAnLCAnLXRuJywgJzgnLCAnLW1hJywgJzIwMCcsICctaW1hZScsICc8aW5maWxlLm1hZT4nLCAnLW9tYWUnLCAnPG91dGZpbGUubWFlPic=

>  <r_lp_tautomer_probability>  (30) 
1

>  <r_epik_Ionization_Penalty>  (30) 
6.59864e-08

>  <r_epik_Ionization_Penalty_Charging>  (30) 
0

>  <r_epik_Ionization_Penalty_Neutral>  (30) 
6.59864e-08

>  <r_epik_State_Penalty>  (30) 
-0

>  <r_epik_Charging_Adjusted_Penalty>  (30) 
0

>  <i_epik_Tot_Q>  (30) 
0

>  <i_epik_Tot_abs_Q>  (30) 
0

>  <s_epik_Chemistry_Notes>  (30) 
This compound contains an acetal/aminal-like group ( X-CH(R)-Y where X, Y are N, S, or O) that may be acid/base labile, releasing an aldehyde.

>  <s_lp_Force_Field>  (30) 
OPLS3e

>  <r_lp_Energy>  (30) 
210.323

>  <b_lp_Chiralities_Consistent>  (30) 
1

>  <s_lp_Variant>  (30) 
9:0-1

>  <s_i_glide_gridfile>  (30) 
pfpi4k_grid

>  <i_i_glide_lignum>  (30) 
18

>  <i_i_glide_rotatable_bonds>  (30) 
3

>  <r_i_docking_score>  (30) 
-2.59548

>  <r_i_glide_ligand_efficiency>  (30) 
-0.0865161

>  <r_i_glide_ligand_efficiency_sa>  (30) 
-0.268826

>  <r_i_glide_ligand_efficiency_ln>  (30) 
-0.589722

>  <r_i_glide_gscore>  (30) 
-2.59548

>  <r_i_glide_lipo>  (30) 
-0.411025

>  <r_i_glide_hbond>  (30) 
0

>  <r_i_glide_metal>  (30) 
-0

>  <r_i_glide_rewards>  (30) 
-0.583152

>  <r_i_glide_evdw>  (30) 
-21.2272

>  <r_i_glide_ecoul>  (30) 
-4.34826

>  <r_i_glide_erotb>  (30) 
0.112917

>  <r_i_glide_esite>  (30) 
-0.000624635

>  <r_i_glide_emodel>  (30) 
-27.5966

>  <r_i_glide_energy>  (30) 
-25.5755

>  <r_i_glide_einternal>  (30) 
4.1842

>  <r_i_glide_intrahb_reward>  (30) 
-0

>  <i_i_glide_confnum>  (30) 
2

>  <i_i_glide_posenum>  (30) 
8

>  <r_i_glide_eff_state_penalty>  (30) 
0

>  <ligand_id>  (30) 
9

>  <original_smiles>  (30) 
COC1OC2CC(C)C34COC5OC3C(=O)C(c3ccoc3)C4(C)CC(O)C2C15C

>  <smiles>  (30) 
[H]OC1([H])C([H])([H])C2(C([H])([H])[H])C([H])(c3c([H])oc([H])c3[H])C(=O)C3([H])OC4([H])OC([H])([H])C32C([H])(C([H])([H])[H])C([H])([H])C2([H])OC([H])(OC([H])([H])[H])C4(C([H])([H])[H])C21[H]

$$$$
9:0:1
     RDKit          3D

 60 65  0  0  1  0  0  0  0  0999 V2000
    3.4797   -1.8574   -0.7902 C   0  0  0  0  0  0  0  0  0  0  0  0
    4.0768   -1.6174    0.4837 O   0  0  0  0  0  0  0  0  0  0  0  0
    4.5895   -2.7167    1.1962 C   0  0  2  0  0  0  0  0  0  0  0  0
    5.2561   -3.5937    0.3467 O   0  0  0  0  0  0  0  0  0  0  0  0
    4.4890   -4.7499    0.0540 C   0  0  1  0  0  0  0  0  0  0  0  0
    5.3540   -5.9432    0.3297 C   0  0  0  0  0  0  0  0  0  0  0  0
    5.7542   -6.0386    1.8207 C   0  0  1  0  0  0  0  0  0  0  0  0
    7.0512   -5.1469    1.9544 C   0  0  0  0  0  0  0  0  0  0  0  0
    4.7123   -6.3886    3.0853 C   0  0  1  0  0  0  0  0  0  0  0  0
    5.5043   -5.6825    4.2045 C   0  0  0  0  0  0  0  0  0  0  0  0
    5.2472   -4.2608    3.8272 O   0  0  0  0  0  0  0  0  0  0  0  0
    3.9109   -3.8042    3.4555 C   0  0  2  0  0  0  0  0  0  0  0  0
    2.8991   -4.5771    3.9341 O   0  0  0  0  0  0  0  0  0  0  0  0
    3.3466   -5.8778    3.8287 C   0  0  1  0  0  0  0  0  0  0  0  0
    2.3859   -6.9733    4.2083 C   0  0  0  0  0  0  0  0  0  0  0  0
    1.2233   -6.8402    4.5768 O   0  0  0  0  0  0  0  0  0  0  0  0
    3.1661   -8.2305    4.0101 C   0  0  1  0  0  0  0  0  0  0  0  0
    2.3261   -9.5152    3.9355 C   0  0  0  0  0  0  0  0  0  0  0  0
    1.3296   -9.9055    2.9720 C   0  0  0  0  0  0  0  0  0  0  0  0
    0.9229  -11.1594    3.3232 C   0  0  0  0  0  0  0  0  0  0  0  0
    1.5390  -11.5739    4.4557 O   0  0  0  0  0  0  0  0  0  0  0  0
    2.3673  -10.5627    4.8160 C   0  0  0  0  0  0  0  0  0  0  0  0
    4.0465   -7.7933    2.7975 C   0  0  2  0  0  0  0  0  0  0  0  0
    5.0442   -8.9462    2.5200 C   0  0  0  0  0  0  0  0  0  0  0  0
    3.0957   -7.5428    1.5177 C   0  0  0  0  0  0  0  0  0  0  0  0
    2.4816   -6.1019    1.1126 C   0  0  1  0  0  0  0  0  0  0  0  0
    1.2037   -5.8628    1.6740 O   0  0  0  0  0  0  0  0  0  0  0  0
    3.2656   -4.7266    0.9444 C   0  0  1  0  0  0  0  0  0  0  0  0
    3.4967   -3.5260    1.9458 C   0  0  2  0  0  0  0  0  0  0  0  0
    2.1970   -2.6661    2.0789 C   0  0  0  0  0  0  0  0  0  0  0  0
    3.1495   -0.9074   -1.2116 H   0  0  0  0  0  0  0  0  0  0  0  0
    2.6117   -2.5091   -0.7178 H   0  0  0  0  0  0  0  0  0  0  0  0
    4.1955   -2.2893   -1.4900 H   0  0  0  0  0  0  0  0  0  0  0  0
    5.3232   -2.3168    1.9022 H   0  0  0  0  0  0  0  0  0  0  0  0
    4.2154   -4.7470   -0.9998 H   0  0  0  0  0  0  0  0  0  0  0  0
    4.9558   -6.8450   -0.0982 H   0  0  0  0  0  0  0  0  0  0  0  0
    6.2355   -5.8536   -0.3002 H   0  0  0  0  0  0  0  0  0  0  0  0
    6.3174   -6.9600    1.7984 H   0  0  0  0  0  0  0  0  0  0  0  0
    6.8460   -4.0963    2.1336 H   0  0  0  0  0  0  0  0  0  0  0  0
    7.6414   -5.1515    1.0392 H   0  0  0  0  0  0  0  0  0  0  0  0
    7.7715   -5.5031    2.6891 H   0  0  0  0  0  0  0  0  0  0  0  0
    5.2864   -5.8991    5.2559 H   0  0  0  0  0  0  0  0  0  0  0  0
    6.5571   -5.9417    4.2321 H   0  0  0  0  0  0  0  0  0  0  0  0
    3.8402   -2.8621    3.9997 H   0  0  0  0  0  0  0  0  0  0  0  0
    3.4844   -5.8607    4.9072 H   0  0  0  0  0  0  0  0  0  0  0  0
    3.8088   -8.3301    4.8878 H   0  0  0  0  0  0  0  0  0  0  0  0
    0.9442   -9.3895    2.1238 H   0  0  0  0  0  0  0  0  0  0  0  0
    0.2276  -11.8642    2.8852 H   0  0  0  0  0  0  0  0  0  0  0  0
    2.9185  -10.7622    5.7314 H   0  0  0  0  0  0  0  0  0  0  0  0
    4.5365   -9.9115    2.5111 H   0  0  0  0  0  0  0  0  0  0  0  0
    5.8270   -8.9940    3.2806 H   0  0  0  0  0  0  0  0  0  0  0  0
    5.5209   -8.8738    1.5407 H   0  0  0  0  0  0  0  0  0  0  0  0
    3.5832   -7.9963    0.6579 H   0  0  0  0  0  0  0  0  0  0  0  0
    2.2357   -8.1576    1.5692 H   0  0  0  0  0  0  0  0  0  0  0  0
    2.1867   -6.2916    0.0843 H   0  0  0  0  0  0  0  0  0  0  0  0
    1.2937   -5.7669    2.6174 H   0  0  0  0  0  0  0  0  0  0  0  0
    2.5461   -4.2550    0.2716 H   0  0  0  0  0  0  0  0  0  0  0  0
    1.4079   -3.2140    2.5989 H   0  0  0  0  0  0  0  0  0  0  0  0
    1.7790   -2.3446    1.1219 H   0  0  0  0  0  0  0  0  0  0  0  0
    2.3841   -1.7619    2.6661 H   0  0  0  0  0  0  0  0  0  0  0  0
  1  2  1  0
  1 31  1  0
  1 32  1  0
  1 33  1  0
  2  3  1  0
  3 29  1  0
  3  4  1  0
  3 34  1  1
  4  5  1  0
  5 28  1  0
  5  6  1  0
  5 35  1  6
  6  7  1  0
  6 36  1  0
  6 37  1  0
  7  8  1  0
  7  9  1  0
  7 38  1  6
  8 39  1  0
  8 40  1  0
  8 41  1  0
  9 14  1  0
  9 23  1  0
  9 10  1  1
 10 11  1  0
 10 42  1  0
 10 43  1  0
 11 12  1  0
 12 29  1  0
 12 13  1  0
 12 44  1  1
 13 14  1  0
 14 15  1  0
 14 45  1  1
 15 16  2  0
 15 17  1  0
 17 18  1  0
 17 23  1  0
 17 46  1  1
 18 22  2  0
 18 19  1  0
 19 20  2  0
 19 47  1  0
 20 21  1  0
 20 48  1  0
 21 22  1  0
 22 49  1  0
 23 24  1  6
 23 25  1  0
 24 50  1  0
 24 51  1  0
 24 52  1  0
 25 26  1  0
 25 53  1  0
 25 54  1  0
 26 27  1  0
 26 28  1  0
 26 55  1  6
 27 56  1  0
 28 29  1  0
 28 57  1  6
 29 30  1  1
 30 58  1  0
 30 59  1  0
 30 60  1  0
M  END
>  <i_m_ct_stereo_status>  (31) 
1

>  <s_m_source_file>  (31) 
/var/tmp/pbs.5076255.sched01/tmpmzpp47sj/0ood7iq68.sdf

>  <i_m_source_file_index>  (31) 
18

>  <i_lp_mmshare_version>  (31) 
48012

>  <i_f3d_flags>  (31) 
0

>  <s_epik_input>  (31) 
W0NIM11PW0NAQEhdMU9bQ0BASF0oW0NIMl1bQ0BIXTJbQ0gzXSlbQ0BIXShbQ0BAXTEoW0NIM10pW0NASF0oT1tDSDJdMylPW0NAQEhdNEMyMzUpW0NASF0oW09IXSlbQ0gyXVtDQF01KFtDSDNdKVtDQEBIXShDND1PKWM2W2NIXVtjSF1vW2NIXTY=

>  <s_epik_cmdline>  (31) 
J2VwaWtfcHl0aG9uJywgJy1waHQnLCAnMi4wJywgJy1waCcsICc3LjAnLCAnLXRuJywgJzgnLCAnLW1hJywgJzIwMCcsICctaW1hZScsICc8aW5maWxlLm1hZT4nLCAnLW9tYWUnLCAnPG91dGZpbGUubWFlPic=

>  <r_lp_tautomer_probability>  (31) 
1

>  <r_epik_Ionization_Penalty>  (31) 
6.59864e-08

>  <r_epik_Ionization_Penalty_Charging>  (31) 
0

>  <r_epik_Ionization_Penalty_Neutral>  (31) 
6.59864e-08

>  <r_epik_State_Penalty>  (31) 
-0

>  <r_epik_Charging_Adjusted_Penalty>  (31) 
0

>  <i_epik_Tot_Q>  (31) 
0

>  <i_epik_Tot_abs_Q>  (31) 
0

>  <s_epik_Chemistry_Notes>  (31) 
This compound contains an acetal/aminal-like group ( X-CH(R)-Y where X, Y are N, S, or O) that may be acid/base labile, releasing an aldehyde.

>  <s_lp_Force_Field>  (31) 
OPLS3e

>  <r_lp_Energy>  (31) 
210.323

>  <b_lp_Chiralities_Consistent>  (31) 
1

>  <s_lp_Variant>  (31) 
9:0-1

>  <s_i_glide_gridfile>  (31) 
pfpi4k_grid

>  <i_i_glide_lignum>  (31) 
18

>  <i_i_glide_rotatable_bonds>  (31) 
3

>  <r_i_docking_score>  (31) 
-2.57662

>  <r_i_glide_ligand_efficiency>  (31) 
-0.0858873

>  <r_i_glide_ligand_efficiency_sa>  (31) 
-0.266872

>  <r_i_glide_ligand_efficiency_ln>  (31) 
-0.585436

>  <r_i_glide_gscore>  (31) 
-2.57662

>  <r_i_glide_lipo>  (31) 
-0.538971

>  <r_i_glide_hbond>  (31) 
0

>  <r_i_glide_metal>  (31) 
-0

>  <r_i_glide_rewards>  (31) 
-0.579885

>  <r_i_glide_evdw>  (31) 
-21.1753

>  <r_i_glide_ecoul>  (31) 
-3.4105

>  <r_i_glide_erotb>  (31) 
0.112917

>  <r_i_glide_esite>  (31) 
-0.000338125

>  <r_i_glide_emodel>  (31) 
-25.911

>  <r_i_glide_energy>  (31) 
-24.5858

>  <r_i_glide_einternal>  (31) 
4.88652

>  <r_i_glide_intrahb_reward>  (31) 
-0

>  <i_i_glide_confnum>  (31) 
2

>  <i_i_glide_posenum>  (31) 
5

>  <r_i_glide_eff_state_penalty>  (31) 
0

>  <ligand_id>  (31) 
9

>  <original_smiles>  (31) 
COC1OC2CC(C)C34COC5OC3C(=O)C(c3ccoc3)C4(C)CC(O)C2C15C

>  <smiles>  (31) 
[H]OC1([H])C([H])([H])C2(C([H])([H])[H])C([H])(c3c([H])oc([H])c3[H])C(=O)C3([H])OC4([H])OC([H])([H])C32C([H])(C([H])([H])[H])C([H])([H])C2([H])OC([H])(OC([H])([H])[H])C4(C([H])([H])[H])C21[H]

$$$$
9:0:2
     RDKit          3D

 60 65  0  0  1  0  0  0  0  0999 V2000
    2.5623   -1.3168    1.4552 C   0  0  0  0  0  0  0  0  0  0  0  0
    3.3481   -0.1583    1.7296 O   0  0  0  0  0  0  0  0  0  0  0  0
    3.3276    0.3728    3.0312 C   0  0  2  0  0  0  0  0  0  0  0  0
    3.3248   -0.6365    3.9883 O   0  0  0  0  0  0  0  0  0  0  0  0
    2.0436   -0.8255    4.5708 C   0  0  1  0  0  0  0  0  0  0  0  0
    2.2214   -0.7977    6.0594 C   0  0  0  0  0  0  0  0  0  0  0  0
    2.7412    0.5770    6.5393 C   0  0  1  0  0  0  0  0  0  0  0  0
    4.3180    0.4992    6.4237 C   0  0  0  0  0  0  0  0  0  0  0  0
    1.8659    2.0017    6.5049 C   0  0  1  0  0  0  0  0  0  0  0  0
    3.0593    2.9714    6.4573 C   0  0  0  0  0  0  0  0  0  0  0  0
    3.5080    2.7319    5.0588 O   0  0  0  0  0  0  0  0  0  0  0  0
    2.5568    2.6685    3.9555 C   0  0  2  0  0  0  0  0  0  0  0  0
    1.3966    3.3216    4.1974 O   0  0  0  0  0  0  0  0  0  0  0  0
    1.0663    3.0187    5.5013 C   0  0  1  0  0  0  0  0  0  0  0  0
   -0.2214    3.5682    6.0485 C   0  0  0  0  0  0  0  0  0  0  0  0
   -1.0672    4.2366    5.4479 O   0  0  0  0  0  0  0  0  0  0  0  0
   -0.2190    3.1455    7.4842 C   0  0  1  0  0  0  0  0  0  0  0  0
   -1.5845    3.1555    8.1621 C   0  0  0  0  0  0  0  0  0  0  0  0
   -2.8718    2.9284    7.5961 C   0  0  0  0  0  0  0  0  0  0  0  0
   -3.7863    3.0670    8.5985 C   0  0  0  0  0  0  0  0  0  0  0  0
   -3.1695    3.3692    9.7642 O   0  0  0  0  0  0  0  0  0  0  0  0
   -1.8431    3.4254    9.4896 C   0  0  0  0  0  0  0  0  0  0  0  0
    0.5489    1.7881    7.3594 C   0  0  2  0  0  0  0  0  0  0  0  0
    0.7699    1.2485    8.7970 C   0  0  0  0  0  0  0  0  0  0  0  0
   -0.3461    0.7560    6.5066 C   0  0  0  0  0  0  0  0  0  0  0  0
   -0.2042    0.5368    4.9160 C   0  0  1  0  0  0  0  0  0  0  0  0
   -1.0845    1.3569    4.1765 O   0  0  0  0  0  0  0  0  0  0  0  0
    1.1461    0.2948    4.0922 C   0  0  1  0  0  0  0  0  0  0  0  0
    2.0983    1.2850    3.3047 C   0  0  2  0  0  0  0  0  0  0  0  0
    1.4435    1.7136    1.9498 C   0  0  0  0  0  0  0  0  0  0  0  0
    2.7148   -1.6097    0.4162 H   0  0  0  0  0  0  0  0  0  0  0  0
    1.4991   -1.1359    1.6023 H   0  0  0  0  0  0  0  0  0  0  0  0
    2.8688   -2.1596    2.0737 H   0  0  0  0  0  0  0  0  0  0  0  0
    4.2559    0.9380    3.1504 H   0  0  0  0  0  0  0  0  0  0  0  0
    1.6581   -1.7983    4.2707 H   0  0  0  0  0  0  0  0  0  0  0  0
    1.3462   -1.1565    6.5792 H   0  0  0  0  0  0  0  0  0  0  0  0
    2.9279   -1.5886    6.3154 H   0  0  0  0  0  0  0  0  0  0  0  0
    2.7519    0.3968    7.6053 H   0  0  0  0  0  0  0  0  0  0  0  0
    4.7219    0.8024    5.4613 H   0  0  0  0  0  0  0  0  0  0  0  0
    4.6822   -0.5163    6.5685 H   0  0  0  0  0  0  0  0  0  0  0  0
    4.8502    1.0418    7.2024 H   0  0  0  0  0  0  0  0  0  0  0  0
    2.9183    4.0294    6.6911 H   0  0  0  0  0  0  0  0  0  0  0  0
    3.8202    2.7719    7.2027 H   0  0  0  0  0  0  0  0  0  0  0  0
    3.0591    3.2493    3.1827 H   0  0  0  0  0  0  0  0  0  0  0  0
    1.3578    4.0407    5.7257 H   0  0  0  0  0  0  0  0  0  0  0  0
    0.4098    3.8595    8.0206 H   0  0  0  0  0  0  0  0  0  0  0  0
   -3.1071    2.6957    6.5666 H   0  0  0  0  0  0  0  0  0  0  0  0
   -4.8595    2.9934    8.6555 H   0  0  0  0  0  0  0  0  0  0  0  0
   -1.2262    3.6702   10.3378 H   0  0  0  0  0  0  0  0  0  0  0  0
   -0.1445    1.2827    9.3926 H   0  0  0  0  0  0  0  0  0  0  0  0
    1.5245    1.8352    9.3264 H   0  0  0  0  0  0  0  0  0  0  0  0
    1.0722    0.1996    8.8202 H   0  0  0  0  0  0  0  0  0  0  0  0
   -0.3285   -0.2077    7.0011 H   0  0  0  0  0  0  0  0  0  0  0  0
   -1.3974    0.9928    6.6588 H   0  0  0  0  0  0  0  0  0  0  0  0
   -0.7073   -0.4236    4.8070 H   0  0  0  0  0  0  0  0  0  0  0  0
   -0.9687    1.1765    3.2512 H   0  0  0  0  0  0  0  0  0  0  0  0
    0.6836   -0.1958    3.2367 H   0  0  0  0  0  0  0  0  0  0  0  0
    0.5818    2.3647    2.1091 H   0  0  0  0  0  0  0  0  0  0  0  0
    1.0960    0.8900    1.3215 H   0  0  0  0  0  0  0  0  0  0  0  0
    2.1540    2.2865    1.3566 H   0  0  0  0  0  0  0  0  0  0  0  0
  1  2  1  0
  1 31  1  0
  1 32  1  0
  1 33  1  0
  2  3  1  0
  3 29  1  0
  3  4  1  0
  3 34  1  1
  4  5  1  0
  5 28  1  0
  5  6  1  0
  5 35  1  1
  6  7  1  0
  6 36  1  0
  6 37  1  0
  7  8  1  0
  7  9  1  0
  7 38  1  1
  8 39  1  0
  8 40  1  0
  8 41  1  0
  9 14  1  0
  9 23  1  0
  9 10  1  1
 10 11  1  0
 10 42  1  0
 10 43  1  0
 11 12  1  0
 12 29  1  0
 12 13  1  0
 12 44  1  6
 13 14  1  0
 14 15  1  0
 14 45  1  1
 15 16  2  0
 15 17  1  0
 17 18  1  0
 17 23  1  0
 17 46  1  1
 18 22  2  0
 18 19  1  0
 19 20  2  0
 19 47  1  0
 20 21  1  0
 20 48  1  0
 21 22  1  0
 22 49  1  0
 23 24  1  1
 23 25  1  0
 24 50  1  0
 24 51  1  0
 24 52  1  0
 25 26  1  0
 25 53  1  0
 25 54  1  0
 26 27  1  0
 26 28  1  0
 26 55  1  1
 27 56  1  0
 28 29  1  0
 28 57  1  6
 29 30  1  6
 30 58  1  0
 30 59  1  0
 30 60  1  0
M  END
>  <i_m_ct_stereo_status>  (32) 
1

>  <s_m_source_file>  (32) 
/var/tmp/pbs.5076255.sched01/tmpmzpp47sj/0ood7iq68.sdf

>  <i_m_source_file_index>  (32) 
18

>  <i_lp_mmshare_version>  (32) 
48012

>  <i_f3d_flags>  (32) 
0

>  <s_epik_input>  (32) 
W0NIM11PW0NAQEhdMU9bQ0BASF0oW0NIMl1bQ0BIXTJbQ0gzXSlbQ0BIXShbQ0BAXTEoW0NIM10pW0NASF0oT1tDSDJdMylPW0NAQEhdNEMyMzUpW0NASF0oW09IXSlbQ0gyXVtDQF01KFtDSDNdKVtDQEBIXShDND1PKWM2W2NIXVtjSF1vW2NIXTY=

>  <s_epik_cmdline>  (32) 
J2VwaWtfcHl0aG9uJywgJy1waHQnLCAnMi4wJywgJy1waCcsICc3LjAnLCAnLXRuJywgJzgnLCAnLW1hJywgJzIwMCcsICctaW1hZScsICc8aW5maWxlLm1hZT4nLCAnLW9tYWUnLCAnPG91dGZpbGUubWFlPic=

>  <r_lp_tautomer_probability>  (32) 
1

>  <r_epik_Ionization_Penalty>  (32) 
6.59864e-08

>  <r_epik_Ionization_Penalty_Charging>  (32) 
0

>  <r_epik_Ionization_Penalty_Neutral>  (32) 
6.59864e-08

>  <r_epik_State_Penalty>  (32) 
-0

>  <r_epik_Charging_Adjusted_Penalty>  (32) 
0

>  <i_epik_Tot_Q>  (32) 
0

>  <i_epik_Tot_abs_Q>  (32) 
0

>  <s_epik_Chemistry_Notes>  (32) 
This compound contains an acetal/aminal-like group ( X-CH(R)-Y where X, Y are N, S, or O) that may be acid/base labile, releasing an aldehyde.

>  <s_lp_Force_Field>  (32) 
OPLS3e

>  <r_lp_Energy>  (32) 
210.323

>  <b_lp_Chiralities_Consistent>  (32) 
1

>  <s_lp_Variant>  (32) 
9:0-1

>  <s_i_glide_gridfile>  (32) 
pfpi4k_grid

>  <i_i_glide_lignum>  (32) 
18

>  <i_i_glide_rotatable_bonds>  (32) 
3

>  <r_i_docking_score>  (32) 
-2.01938

>  <r_i_glide_ligand_efficiency>  (32) 
-0.0673126

>  <r_i_glide_ligand_efficiency_sa>  (32) 
-0.209156

>  <r_i_glide_ligand_efficiency_ln>  (32) 
-0.458825

>  <r_i_glide_gscore>  (32) 
-2.01938

>  <r_i_glide_lipo>  (32) 
-0.168826

>  <r_i_glide_hbond>  (32) 
0

>  <r_i_glide_metal>  (32) 
-0

>  <r_i_glide_rewards>  (32) 
-0.570513

>  <r_i_glide_evdw>  (32) 
-20.2106

>  <r_i_glide_ecoul>  (32) 
-2.42325

>  <r_i_glide_erotb>  (32) 
0.112917

>  <r_i_glide_esite>  (32) 
-0.0189385

>  <r_i_glide_emodel>  (32) 
-23.9131

>  <r_i_glide_energy>  (32) 
-22.6339

>  <r_i_glide_einternal>  (32) 
4.22823

>  <r_i_glide_intrahb_reward>  (32) 
-0

>  <i_i_glide_confnum>  (32) 
2

>  <i_i_glide_posenum>  (32) 
2

>  <r_i_glide_eff_state_penalty>  (32) 
0

>  <ligand_id>  (32) 
9

>  <original_smiles>  (32) 
COC1OC2CC(C)C34COC5OC3C(=O)C(c3ccoc3)C4(C)CC(O)C2C15C

>  <smiles>  (32) 
[H]OC1([H])C([H])([H])C2(C([H])([H])[H])C([H])(c3c([H])oc([H])c3[H])C(=O)C3([H])OC4([H])OC([H])([H])C32C([H])(C([H])([H])[H])C([H])([H])C2([H])OC([H])(OC([H])([H])[H])C4(C([H])([H])[H])C21[H]

$$$$
9:1:0
     RDKit          3D

 60 65  0  0  1  0  0  0  0  0999 V2000
   -4.0732    3.4967    2.2193 C   0  0  0  0  0  0  0  0  0  0  0  0
   -2.6850    3.3818    2.4889 O   0  0  0  0  0  0  0  0  0  0  0  0
   -2.3802    2.9730    3.7882 C   0  0  2  0  0  0  0  0  0  0  0  0
   -2.1677    4.1146    4.6197 O   0  0  0  0  0  0  0  0  0  0  0  0
   -0.7830    4.4038    4.9151 C   0  0  1  0  0  0  0  0  0  0  0  0
   -0.4746    4.7308    6.4887 C   0  0  0  0  0  0  0  0  0  0  0  0
   -0.1159    3.6476    7.6249 C   0  0  1  0  0  0  0  0  0  0  0  0
   -1.0332    3.7139    8.8791 C   0  0  0  0  0  0  0  0  0  0  0  0
    0.0930    2.3240    6.8401 C   0  0  2  0  0  0  0  0  0  0  0  0
   -1.5125    2.1747    6.5951 C   0  0  0  0  0  0  0  0  0  0  0  0
   -2.0835    1.1855    5.8009 O   0  0  0  0  0  0  0  0  0  0  0  0
   -1.1605    0.8892    4.8810 C   0  0  2  0  0  0  0  0  0  0  0  0
   -0.0174    0.3826    5.5739 O   0  0  0  0  0  0  0  0  0  0  0  0
    0.1416    0.7881    6.9842 C   0  0  1  0  0  0  0  0  0  0  0  0
    1.5010    0.3847    7.4465 C   0  0  0  0  0  0  0  0  0  0  0  0
    1.7758   -0.6930    7.9729 O   0  0  0  0  0  0  0  0  0  0  0  0
    2.4623    1.5062    7.1832 C   0  0  1  0  0  0  0  0  0  0  0  0
    3.8391    1.0141    6.7433 C   0  0  0  0  0  0  0  0  0  0  0  0
    4.1579   -0.0633    5.8641 C   0  0  0  0  0  0  0  0  0  0  0  0
    5.5192   -0.1176    5.7866 C   0  0  0  0  0  0  0  0  0  0  0  0
    6.0854    0.8429    6.5540 O   0  0  0  0  0  0  0  0  0  0  0  0
    5.0567    1.5161    7.1292 C   0  0  0  0  0  0  0  0  0  0  0  0
    1.6609    2.4807    6.2327 C   0  0  2  0  0  0  0  0  0  0  0  0
    2.5001    3.7960    6.4712 C   0  0  0  0  0  0  0  0  0  0  0  0
    1.9705    2.1597    4.7359 C   0  0  0  0  0  0  0  0  0  0  0  0
    1.3960    3.2050    3.8116 C   0  0  1  0  0  0  0  0  0  0  0  0
    1.7580    2.8676    2.4846 O   0  0  0  0  0  0  0  0  0  0  0  0
   -0.1143    3.3223    3.9990 C   0  0  1  0  0  0  0  0  0  0  0  0
   -1.0573    2.1066    3.7938 C   0  0  2  0  0  0  0  0  0  0  0  0
   -0.8709    1.4179    2.4201 C   0  0  0  0  0  0  0  0  0  0  0  0
   -4.2400    3.8281    1.1970 H   0  0  0  0  0  0  0  0  0  0  0  0
   -4.5583    4.2118    2.8761 H   0  0  0  0  0  0  0  0  0  0  0  0
   -4.5743    2.5444    2.3333 H   0  0  0  0  0  0  0  0  0  0  0  0
   -3.2288    2.4130    4.1677 H   0  0  0  0  0  0  0  0  0  0  0  0
   -0.5987    5.3592    4.4213 H   0  0  0  0  0  0  0  0  0  0  0  0
    0.2656    5.5236    6.5252 H   0  0  0  0  0  0  0  0  0  0  0  0
   -1.3482    5.2557    6.8649 H   0  0  0  0  0  0  0  0  0  0  0  0
    0.7947    3.9389    8.1263 H   0  0  0  0  0  0  0  0  0  0  0  0
   -2.1002    3.7291    8.6597 H   0  0  0  0  0  0  0  0  0  0  0  0
   -0.8358    4.6329    9.4305 H   0  0  0  0  0  0  0  0  0  0  0  0
   -0.8305    2.8870    9.5601 H   0  0  0  0  0  0  0  0  0  0  0  0
   -1.9271    1.8235    7.5410 H   0  0  0  0  0  0  0  0  0  0  0  0
   -2.1517    3.0386    6.5366 H   0  0  0  0  0  0  0  0  0  0  0  0
   -1.5699    0.0192    4.3699 H   0  0  0  0  0  0  0  0  0  0  0  0
   -0.5918    0.3155    7.6373 H   0  0  0  0  0  0  0  0  0  0  0  0
    2.5957    1.9630    8.1654 H   0  0  0  0  0  0  0  0  0  0  0  0
    3.4806   -0.7268    5.3483 H   0  0  0  0  0  0  0  0  0  0  0  0
    6.2133   -0.7532    5.2583 H   0  0  0  0  0  0  0  0  0  0  0  0
    5.3596    2.3203    7.7845 H   0  0  0  0  0  0  0  0  0  0  0  0
    3.4879    3.7107    6.0203 H   0  0  0  0  0  0  0  0  0  0  0  0
    2.7207    4.0104    7.5150 H   0  0  0  0  0  0  0  0  0  0  0  0
    2.0766    4.6884    6.0286 H   0  0  0  0  0  0  0  0  0  0  0  0
    3.0494    2.1615    4.5652 H   0  0  0  0  0  0  0  0  0  0  0  0
    1.7016    1.1585    4.4073 H   0  0  0  0  0  0  0  0  0  0  0  0
    1.8603    4.1765    3.9662 H   0  0  0  0  0  0  0  0  0  0  0  0
    1.2574    3.4093    1.8760 H   0  0  0  0  0  0  0  0  0  0  0  0
   -0.2856    3.8520    3.0594 H   0  0  0  0  0  0  0  0  0  0  0  0
    0.0092    0.7781    2.4085 H   0  0  0  0  0  0  0  0  0  0  0  0
   -0.7310    2.1436    1.6253 H   0  0  0  0  0  0  0  0  0  0  0  0
   -1.7338    0.8083    2.1543 H   0  0  0  0  0  0  0  0  0  0  0  0
  1  2  1  0
  1 31  1  0
  1 32  1  0
  1 33  1  0
  2  3  1  0
  3 29  1  0
  3  4  1  0
  3 34  1  1
  4  5  1  0
  5 28  1  0
  5  6  1  0
  5 35  1  6
  6  7  1  0
  6 36  1  0
  6 37  1  0
  7  8  1  0
  7  9  1  0
  7 38  1  1
  8 39  1  0
  8 40  1  0
  8 41  1  0
  9 14  1  0
  9 23  1  0
  9 10  1  6
 10 11  1  0
 10 42  1  0
 10 43  1  0
 11 12  1  0
 12 29  1  0
 12 13  1  0
 12 44  1  6
 13 14  1  0
 14 15  1  0
 14 45  1  1
 15 16  2  0
 15 17  1  0
 17 18  1  0
 17 23  1  0
 17 46  1  1
 18 22  2  0
 18 19  1  0
 19 20  2  0
 19 47  1  0
 20 21  1  0
 20 48  1  0
 21 22  1  0
 22 49  1  0
 23 24  1  1
 23 25  1  0
 24 50  1  0
 24 51  1  0
 24 52  1  0
 25 26  1  0
 25 53  1  0
 25 54  1  0
 26 27  1  0
 26 28  1  0
 26 55  1  1
 27 56  1  0
 28 29  1  0
 28 57  1  6
 29 30  1  6
 30 58  1  0
 30 59  1  0
 30 60  1  0
M  END
>  <i_m_ct_stereo_status>  (33) 
1

>  <s_m_source_file>  (33) 
/var/tmp/pbs.5076255.sched01/tmpmzpp47sj/0ood7iq68.sdf

>  <i_m_source_file_index>  (33) 
19

>  <i_lp_mmshare_version>  (33) 
48012

>  <i_f3d_flags>  (33) 
0

>  <s_epik_input>  (33) 
W0NIM11PW0NAQEhdMU9bQ0BASF0oW0NIMl1bQ0BIXTJbQ0gzXSlbQ0BIXShbQ0BAXTEoW0NIM10pW0NASF0oT1tDSDJdMylPW0NAQEhdNEMyMzUpW0NASF0oW09IXSlbQ0gyXVtDQF01KFtDSDNdKVtDQEBIXShDND1PKWM2W2NIXVtjSF1vW2NIXTY=

>  <s_epik_cmdline>  (33) 
J2VwaWtfcHl0aG9uJywgJy1waHQnLCAnMi4wJywgJy1waCcsICc3LjAnLCAnLXRuJywgJzgnLCAnLW1hJywgJzIwMCcsICctaW1hZScsICc8aW5maWxlLm1hZT4nLCAnLW9tYWUnLCAnPG91dGZpbGUubWFlPic=

>  <r_lp_tautomer_probability>  (33) 
1

>  <r_epik_Ionization_Penalty>  (33) 
6.59864e-08

>  <r_epik_Ionization_Penalty_Charging>  (33) 
0

>  <r_epik_Ionization_Penalty_Neutral>  (33) 
6.59864e-08

>  <r_epik_State_Penalty>  (33) 
-0

>  <r_epik_Charging_Adjusted_Penalty>  (33) 
0

>  <i_epik_Tot_Q>  (33) 
0

>  <i_epik_Tot_abs_Q>  (33) 
0

>  <s_epik_Chemistry_Notes>  (33) 
This compound contains an acetal/aminal-like group ( X-CH(R)-Y where X, Y are N, S, or O) that may be acid/base labile, releasing an aldehyde.

>  <s_lp_Force_Field>  (33) 
OPLS3e

>  <r_lp_Energy>  (33) 
213.219

>  <b_lp_Chiralities_Consistent>  (33) 
1

>  <s_lp_Variant>  (33) 
9:0-2

>  <s_i_glide_gridfile>  (33) 
pfpi4k_grid

>  <i_i_glide_lignum>  (33) 
19

>  <i_i_glide_rotatable_bonds>  (33) 
3

>  <r_i_docking_score>  (33) 
-2.63674

>  <r_i_glide_ligand_efficiency>  (33) 
-0.0878914

>  <r_i_glide_ligand_efficiency_sa>  (33) 
-0.273099

>  <r_i_glide_ligand_efficiency_ln>  (33) 
-0.599097

>  <r_i_glide_gscore>  (33) 
-2.63674

>  <r_i_glide_lipo>  (33) 
-0.278651

>  <r_i_glide_hbond>  (33) 
-0.182138

>  <r_i_glide_metal>  (33) 
-0

>  <r_i_glide_rewards>  (33) 
-0.555817

>  <r_i_glide_evdw>  (33) 
-18.3642

>  <r_i_glide_ecoul>  (33) 
-4.97193

>  <r_i_glide_erotb>  (33) 
0.112917

>  <r_i_glide_esite>  (33) 
-0.0690541

>  <r_i_glide_emodel>  (33) 
-26.1658

>  <r_i_glide_energy>  (33) 
-23.3361

>  <r_i_glide_einternal>  (33) 
2.20936

>  <r_i_glide_intrahb_reward>  (33) 
-0

>  <i_i_glide_confnum>  (33) 
3

>  <i_i_glide_posenum>  (33) 
14

>  <r_i_glide_eff_state_penalty>  (33) 
0

>  <ligand_id>  (33) 
9

>  <original_smiles>  (33) 
COC1OC2CC(C)C34COC5OC3C(=O)C(c3ccoc3)C4(C)CC(O)C2C15C

>  <smiles>  (33) 
[H]OC1([H])C([H])([H])C2(C([H])([H])[H])C([H])(c3c([H])oc([H])c3[H])C(=O)C3([H])OC4([H])OC([H])([H])C32C([H])(C([H])([H])[H])C([H])([H])C2([H])OC([H])(OC([H])([H])[H])C4(C([H])([H])[H])C21[H]

$$$$
9:1:1
     RDKit          3D

 60 65  0  0  1  0  0  0  0  0999 V2000
   -3.7925    3.6384    2.4522 C   0  0  0  0  0  0  0  0  0  0  0  0
   -2.5702    2.9541    2.6836 O   0  0  0  0  0  0  0  0  0  0  0  0
   -2.0298    3.1569    3.9529 C   0  0  2  0  0  0  0  0  0  0  0  0
   -1.6318    4.5220    4.1057 O   0  0  0  0  0  0  0  0  0  0  0  0
   -0.2150    4.7569    3.9738 C   0  0  1  0  0  0  0  0  0  0  0  0
    0.3982    5.7431    5.1240 C   0  0  0  0  0  0  0  0  0  0  0  0
    0.9562    5.2758    6.5669 C   0  0  1  0  0  0  0  0  0  0  0  0
    0.3084    6.0195    7.7697 C   0  0  0  0  0  0  0  0  0  0  0  0
    0.9860    3.7248    6.4928 C   0  0  2  0  0  0  0  0  0  0  0  0
   -0.6409    3.6539    6.6172 C   0  0  0  0  0  0  0  0  0  0  0  0
   -1.3838    2.4817    6.4803 O   0  0  0  0  0  0  0  0  0  0  0  0
   -0.6582    1.6912    5.6845 C   0  0  2  0  0  0  0  0  0  0  0  0
    0.5905    1.4455    6.3391 O   0  0  0  0  0  0  0  0  0  0  0  0
    1.0336    2.4350    7.3433 C   0  0  1  0  0  0  0  0  0  0  0  0
    2.4556    2.1344    7.7024 C   0  0  0  0  0  0  0  0  0  0  0  0
    2.8150    1.4075    8.6305 O   0  0  0  0  0  0  0  0  0  0  0  0
    3.3590    2.8868    6.7759 C   0  0  1  0  0  0  0  0  0  0  0  0
    4.6244    2.1153    6.4101 C   0  0  0  0  0  0  0  0  0  0  0  0
    5.9622    2.5934    6.5360 C   0  0  0  0  0  0  0  0  0  0  0  0
    6.7874    1.5987    6.0884 C   0  0  0  0  0  0  0  0  0  0  0  0
    6.0622    0.5213    5.6964 O   0  0  0  0  0  0  0  0  0  0  0  0
    4.7591    0.8445    5.9125 C   0  0  0  0  0  0  0  0  0  0  0  0
    2.4036    3.4043    5.6308 C   0  0  2  0  0  0  0  0  0  0  0  0
    3.2984    4.5824    5.0751 C   0  0  0  0  0  0  0  0  0  0  0  0
    2.4059    2.4024    4.4409 C   0  0  0  0  0  0  0  0  0  0  0  0
    1.6809    2.9525    3.2452 C   0  0  1  0  0  0  0  0  0  0  0  0
    1.7710    1.9958    2.2097 O   0  0  0  0  0  0  0  0  0  0  0  0
    0.2415    3.3059    3.6034 C   0  0  1  0  0  0  0  0  0  0  0  0
   -0.7503    2.2457    4.1516 C   0  0  2  0  0  0  0  0  0  0  0  0
   -0.8539    0.9820    3.2580 C   0  0  0  0  0  0  0  0  0  0  0  0
   -4.1676    3.4016    1.4570 H   0  0  0  0  0  0  0  0  0  0  0  0
   -3.6587    4.7193    2.5012 H   0  0  0  0  0  0  0  0  0  0  0  0
   -4.5571    3.3469    3.1701 H   0  0  0  0  0  0  0  0  0  0  0  0
   -2.8209    2.9260    4.6688 H   0  0  0  0  0  0  0  0  0  0  0  0
   -0.1195    5.3439    3.0583 H   0  0  0  0  0  0  0  0  0  0  0  0
    1.1492    6.3770    4.6579 H   0  0  0  0  0  0  0  0  0  0  0  0
   -0.3838    6.4743    5.3224 H   0  0  0  0  0  0  0  0  0  0  0  0
    1.9518    5.6676    6.7112 H   0  0  0  0  0  0  0  0  0  0  0  0
   -0.7818    6.0449    7.7525 H   0  0  0  0  0  0  0  0  0  0  0  0
    0.6260    7.0642    7.7759 H   0  0  0  0  0  0  0  0  0  0  0  0
    0.6275    5.5862    8.7188 H   0  0  0  0  0  0  0  0  0  0  0  0
   -0.8688    3.8252    7.6702 H   0  0  0  0  0  0  0  0  0  0  0  0
   -1.2612    4.4621    6.2661 H   0  0  0  0  0  0  0  0  0  0  0  0
   -1.1670    0.7293    5.7308 H   0  0  0  0  0  0  0  0  0  0  0  0
    0.4311    2.4027    8.2535 H   0  0  0  0  0  0  0  0  0  0  0  0
    3.6896    3.7304    7.3810 H   0  0  0  0  0  0  0  0  0  0  0  0
    6.2874    3.5556    6.9039 H   0  0  0  0  0  0  0  0  0  0  0  0
    7.8577    1.5065    5.9811 H   0  0  0  0  0  0  0  0  0  0  0  0
    4.0567    0.0729    5.6392 H   0  0  0  0  0  0  0  0  0  0  0  0
    4.1815    4.1923    4.5658 H   0  0  0  0  0  0  0  0  0  0  0  0
    3.7246    5.2336    5.8384 H   0  0  0  0  0  0  0  0  0  0  0  0
    2.8156    5.2097    4.3354 H   0  0  0  0  0  0  0  0  0  0  0  0
    3.4247    2.2219    4.0974 H   0  0  0  0  0  0  0  0  0  0  0  0
    2.0629    1.3998    4.6749 H   0  0  0  0  0  0  0  0  0  0  0  0
    2.1809    3.8276    2.8343 H   0  0  0  0  0  0  0  0  0  0  0  0
    1.3041    2.3402    1.4585 H   0  0  0  0  0  0  0  0  0  0  0  0
   -0.1076    3.3340    2.5709 H   0  0  0  0  0  0  0  0  0  0  0  0
    0.0033    0.3249    3.4074 H   0  0  0  0  0  0  0  0  0  0  0  0
   -0.8880    1.2190    2.1929 H   0  0  0  0  0  0  0  0  0  0  0  0
   -1.7520    0.4088    3.4853 H   0  0  0  0  0  0  0  0  0  0  0  0
  1  2  1  0
  1 31  1  0
  1 32  1  0
  1 33  1  0
  2  3  1  0
  3 29  1  0
  3  4  1  0
  3 34  1  1
  4  5  1  0
  5 28  1  0
  5  6  1  0
  5 35  1  6
  6  7  1  0
  6 36  1  0
  6 37  1  0
  7  8  1  0
  7  9  1  0
  7 38  1  6
  8 39  1  0
  8 40  1  0
  8 41  1  0
  9 14  1  0
  9 23  1  0
  9 10  1  6
 10 11  1  0
 10 42  1  0
 10 43  1  0
 11 12  1  0
 12 29  1  0
 12 13  1  0
 12 44  1  6
 13 14  1  0
 14 15  1  0
 14 45  1  1
 15 16  2  0
 15 17  1  0
 17 18  1  0
 17 23  1  0
 17 46  1  1
 18 22  2  0
 18 19  1  0
 19 20  2  0
 19 47  1  0
 20 21  1  0
 20 48  1  0
 21 22  1  0
 22 49  1  0
 23 24  1  6
 23 25  1  0
 24 50  1  0
 24 51  1  0
 24 52  1  0
 25 26  1  0
 25 53  1  0
 25 54  1  0
 26 27  1  0
 26 28  1  0
 26 55  1  6
 27 56  1  0
 28 29  1  0
 28 57  1  6
 29 30  1  6
 30 58  1  0
 30 59  1  0
 30 60  1  0
M  END
>  <i_m_ct_stereo_status>  (34) 
1

>  <s_m_source_file>  (34) 
/var/tmp/pbs.5076255.sched01/tmpmzpp47sj/0ood7iq68.sdf

>  <i_m_source_file_index>  (34) 
19

>  <i_lp_mmshare_version>  (34) 
48012

>  <i_f3d_flags>  (34) 
0

>  <s_epik_input>  (34) 
W0NIM11PW0NAQEhdMU9bQ0BASF0oW0NIMl1bQ0BIXTJbQ0gzXSlbQ0BIXShbQ0BAXTEoW0NIM10pW0NASF0oT1tDSDJdMylPW0NAQEhdNEMyMzUpW0NASF0oW09IXSlbQ0gyXVtDQF01KFtDSDNdKVtDQEBIXShDND1PKWM2W2NIXVtjSF1vW2NIXTY=

>  <s_epik_cmdline>  (34) 
J2VwaWtfcHl0aG9uJywgJy1waHQnLCAnMi4wJywgJy1waCcsICc3LjAnLCAnLXRuJywgJzgnLCAnLW1hJywgJzIwMCcsICctaW1hZScsICc8aW5maWxlLm1hZT4nLCAnLW9tYWUnLCAnPG91dGZpbGUubWFlPic=

>  <r_lp_tautomer_probability>  (34) 
1

>  <r_epik_Ionization_Penalty>  (34) 
6.59864e-08

>  <r_epik_Ionization_Penalty_Charging>  (34) 
0

>  <r_epik_Ionization_Penalty_Neutral>  (34) 
6.59864e-08

>  <r_epik_State_Penalty>  (34) 
-0

>  <r_epik_Charging_Adjusted_Penalty>  (34) 
0

>  <i_epik_Tot_Q>  (34) 
0

>  <i_epik_Tot_abs_Q>  (34) 
0

>  <s_epik_Chemistry_Notes>  (34) 
This compound contains an acetal/aminal-like group ( X-CH(R)-Y where X, Y are N, S, or O) that may be acid/base labile, releasing an aldehyde.

>  <s_lp_Force_Field>  (34) 
OPLS3e

>  <r_lp_Energy>  (34) 
213.219

>  <b_lp_Chiralities_Consistent>  (34) 
1

>  <s_lp_Variant>  (34) 
9:0-2

>  <s_i_glide_gridfile>  (34) 
pfpi4k_grid

>  <i_i_glide_lignum>  (34) 
19

>  <i_i_glide_rotatable_bonds>  (34) 
3

>  <r_i_docking_score>  (34) 
-2.43854

>  <r_i_glide_ligand_efficiency>  (34) 
-0.0812847

>  <r_i_glide_ligand_efficiency_sa>  (34) 
-0.252571

>  <r_i_glide_ligand_efficiency_ln>  (34) 
-0.554063

>  <r_i_glide_gscore>  (34) 
-2.43854

>  <r_i_glide_lipo>  (34) 
-0.395394

>  <r_i_glide_hbond>  (34) 
-0.137073

>  <r_i_glide_metal>  (34) 
-0

>  <r_i_glide_rewards>  (34) 
-0.555817

>  <r_i_glide_evdw>  (34) 
-20.6366

>  <r_i_glide_ecoul>  (34) 
-2.5279

>  <r_i_glide_erotb>  (34) 
0.112917

>  <r_i_glide_esite>  (34) 
-0.0521602

>  <r_i_glide_emodel>  (34) 
-26.7572

>  <r_i_glide_energy>  (34) 
-23.1645

>  <r_i_glide_einternal>  (34) 
0.5

>  <r_i_glide_intrahb_reward>  (34) 
-0

>  <i_i_glide_confnum>  (34) 
3

>  <i_i_glide_posenum>  (34) 
26

>  <r_i_glide_eff_state_penalty>  (34) 
0

>  <ligand_id>  (34) 
9

>  <original_smiles>  (34) 
COC1OC2CC(C)C34COC5OC3C(=O)C(c3ccoc3)C4(C)CC(O)C2C15C

>  <smiles>  (34) 
[H]OC1([H])C([H])([H])C2(C([H])([H])[H])C([H])(c3c([H])oc([H])c3[H])C(=O)C3([H])OC4([H])OC([H])([H])C32C([H])(C([H])([H])[H])C([H])([H])C2([H])OC([H])(OC([H])([H])[H])C4(C([H])([H])[H])C21[H]

$$$$
9:1:2
     RDKit          3D

 60 65  0  0  1  0  0  0  0  0999 V2000
   -3.9419    3.7690    2.3915 C   0  0  0  0  0  0  0  0  0  0  0  0
   -2.8250    2.9486    2.7093 O   0  0  0  0  0  0  0  0  0  0  0  0
   -2.2607    3.1988    3.9617 C   0  0  2  0  0  0  0  0  0  0  0  0
   -1.7957    4.5419    4.0316 O   0  0  0  0  0  0  0  0  0  0  0  0
   -0.3762    4.7076    3.8376 C   0  0  1  0  0  0  0  0  0  0  0  0
    0.3082    5.7412    4.8987 C   0  0  0  0  0  0  0  0  0  0  0  0
    0.8723    5.3577    6.3629 C   0  0  1  0  0  0  0  0  0  0  0  0
    0.2807    6.2170    7.5168 C   0  0  0  0  0  0  0  0  0  0  0  0
    0.8280    3.8082    6.4013 C   0  0  2  0  0  0  0  0  0  0  0  0
   -0.7947    3.8214    6.5633 C   0  0  0  0  0  0  0  0  0  0  0  0
   -1.5960    2.6839    6.5164 O   0  0  0  0  0  0  0  0  0  0  0  0
   -0.9246    1.8025    5.7722 C   0  0  2  0  0  0  0  0  0  0  0  0
    0.3247    1.5436    6.4251 O   0  0  0  0  0  0  0  0  0  0  0  0
    0.8366    2.5838    7.3427 C   0  0  1  0  0  0  0  0  0  0  0  0
    2.2526    2.2514    7.6973 C   0  0  0  0  0  0  0  0  0  0  0  0
    2.5996    1.5690    8.6605 O   0  0  0  0  0  0  0  0  0  0  0  0
    3.1690    2.8972    6.7057 C   0  0  1  0  0  0  0  0  0  0  0  0
    4.3760    2.0233    6.3768 C   0  0  0  0  0  0  0  0  0  0  0  0
    4.4072    0.6707    5.9213 C   0  0  0  0  0  0  0  0  0  0  0  0
    5.7179    0.3354    5.7522 C   0  0  0  0  0  0  0  0  0  0  0  0
    6.5237    1.3710    6.0953 O   0  0  0  0  0  0  0  0  0  0  0  0
    5.6962    2.3785    6.4813 C   0  0  0  0  0  0  0  0  0  0  0  0
    2.2089    3.3633    5.5406 C   0  0  2  0  0  0  0  0  0  0  0  0
    3.1434    4.4510    4.8809 C   0  0  0  0  0  0  0  0  0  0  0  0
    2.1369    2.2802    4.4257 C   0  0  0  0  0  0  0  0  0  0  0  0
    1.4150    2.7726    3.2043 C   0  0  1  0  0  0  0  0  0  0  0  0
    1.4392    1.7329    2.2459 O   0  0  0  0  0  0  0  0  0  0  0  0
    0.0013    3.2158    3.5571 C   0  0  1  0  0  0  0  0  0  0  0  0
   -1.0212    2.2445    4.2059 C   0  0  2  0  0  0  0  0  0  0  0  0
   -1.2000    0.9254    3.4169 C   0  0  0  0  0  0  0  0  0  0  0  0
   -4.3540    3.4688    1.4290 H   0  0  0  0  0  0  0  0  0  0  0  0
   -3.6537    4.8170    2.3152 H   0  0  0  0  0  0  0  0  0  0  0  0
   -4.7411    3.6912    3.1256 H   0  0  0  0  0  0  0  0  0  0  0  0
   -3.0595    3.0486    4.6910 H   0  0  0  0  0  0  0  0  0  0  0  0
   -0.2871    5.2250    2.8807 H   0  0  0  0  0  0  0  0  0  0  0  0
    1.0760    6.3060    4.3726 H   0  0  0  0  0  0  0  0  0  0  0  0
   -0.4344    6.5212    5.0589 H   0  0  0  0  0  0  0  0  0  0  0  0
    1.8870    5.7102    6.4620 H   0  0  0  0  0  0  0  0  0  0  0  0
   -0.8077    6.2926    7.5156 H   0  0  0  0  0  0  0  0  0  0  0  0
    0.6476    7.2420    7.4361 H   0  0  0  0  0  0  0  0  0  0  0  0
    0.5996    5.8403    8.4899 H   0  0  0  0  0  0  0  0  0  0  0  0
   -0.9932    4.0757    7.6052 H   0  0  0  0  0  0  0  0  0  0  0  0
   -1.3828    4.6342    6.1747 H   0  0  0  0  0  0  0  0  0  0  0  0
   -1.4806    0.8741    5.8988 H   0  0  0  0  0  0  0  0  0  0  0  0
    0.2553    2.6497    8.2647 H   0  0  0  0  0  0  0  0  0  0  0  0
    3.5479    3.7697    7.2433 H   0  0  0  0  0  0  0  0  0  0  0  0
    3.5720    0.0200    5.7143 H   0  0  0  0  0  0  0  0  0  0  0  0
    6.2220   -0.5521    5.4082 H   0  0  0  0  0  0  0  0  0  0  0  0
    6.2065    3.2773    6.7939 H   0  0  0  0  0  0  0  0  0  0  0  0
    3.9956    3.9795    4.3891 H   0  0  0  0  0  0  0  0  0  0  0  0
    3.6166    5.1376    5.5843 H   0  0  0  0  0  0  0  0  0  0  0  0
    2.6740    5.0408    4.1031 H   0  0  0  0  0  0  0  0  0  0  0  0
    3.1364    2.0277    4.0720 H   0  0  0  0  0  0  0  0  0  0  0  0
    1.7492    1.3162    4.7358 H   0  0  0  0  0  0  0  0  0  0  0  0
    1.9439    3.5903    2.7182 H   0  0  0  0  0  0  0  0  0  0  0  0
    1.0050    2.0429    1.4616 H   0  0  0  0  0  0  0  0  0  0  0  0
   -0.3701    3.1850    2.5316 H   0  0  0  0  0  0  0  0  0  0  0  0
   -0.3678    0.2425    3.5964 H   0  0  0  0  0  0  0  0  0  0  0  0
   -1.2600    1.0817    2.3374 H   0  0  0  0  0  0  0  0  0  0  0  0
   -2.1111    0.4133    3.7242 H   0  0  0  0  0  0  0  0  0  0  0  0
  1  2  1  0
  1 31  1  0
  1 32  1  0
  1 33  1  0
  2  3  1  0
  3 29  1  0
  3  4  1  0
  3 34  1  1
  4  5  1  0
  5 28  1  0
  5  6  1  0
  5 35  1  6
  6  7  1  0
  6 36  1  0
  6 37  1  0
  7  8  1  0
  7  9  1  0
  7 38  1  6
  8 39  1  0
  8 40  1  0
  8 41  1  0
  9 14  1  0
  9 23  1  0
  9 10  1  6
 10 11  1  0
 10 42  1  0
 10 43  1  0
 11 12  1  0
 12 29  1  0
 12 13  1  0
 12 44  1  6
 13 14  1  0
 14 15  1  0
 14 45  1  1
 15 16  2  0
 15 17  1  0
 17 18  1  0
 17 23  1  0
 17 46  1  1
 18 22  2  0
 18 19  1  0
 19 20  2  0
 19 47  1  0
 20 21  1  0
 20 48  1  0
 21 22  1  0
 22 49  1  0
 23 24  1  6
 23 25  1  0
 24 50  1  0
 24 51  1  0
 24 52  1  0
 25 26  1  0
 25 53  1  0
 25 54  1  0
 26 27  1  0
 26 28  1  0
 26 55  1  6
 27 56  1  0
 28 29  1  0
 28 57  1  6
 29 30  1  6
 30 58  1  0
 30 59  1  0
 30 60  1  0
M  END
>  <i_m_ct_stereo_status>  (35) 
1

>  <s_m_source_file>  (35) 
/var/tmp/pbs.5076255.sched01/tmpmzpp47sj/0ood7iq68.sdf

>  <i_m_source_file_index>  (35) 
19

>  <i_lp_mmshare_version>  (35) 
48012

>  <i_f3d_flags>  (35) 
0

>  <s_epik_input>  (35) 
W0NIM11PW0NAQEhdMU9bQ0BASF0oW0NIMl1bQ0BIXTJbQ0gzXSlbQ0BIXShbQ0BAXTEoW0NIM10pW0NASF0oT1tDSDJdMylPW0NAQEhdNEMyMzUpW0NASF0oW09IXSlbQ0gyXVtDQF01KFtDSDNdKVtDQEBIXShDND1PKWM2W2NIXVtjSF1vW2NIXTY=

>  <s_epik_cmdline>  (35) 
J2VwaWtfcHl0aG9uJywgJy1waHQnLCAnMi4wJywgJy1waCcsICc3LjAnLCAnLXRuJywgJzgnLCAnLW1hJywgJzIwMCcsICctaW1hZScsICc8aW5maWxlLm1hZT4nLCAnLW9tYWUnLCAnPG91dGZpbGUubWFlPic=

>  <r_lp_tautomer_probability>  (35) 
1

>  <r_epik_Ionization_Penalty>  (35) 
6.59864e-08

>  <r_epik_Ionization_Penalty_Charging>  (35) 
0

>  <r_epik_Ionization_Penalty_Neutral>  (35) 
6.59864e-08

>  <r_epik_State_Penalty>  (35) 
-0

>  <r_epik_Charging_Adjusted_Penalty>  (35) 
0

>  <i_epik_Tot_Q>  (35) 
0

>  <i_epik_Tot_abs_Q>  (35) 
0

>  <s_epik_Chemistry_Notes>  (35) 
This compound contains an acetal/aminal-like group ( X-CH(R)-Y where X, Y are N, S, or O) that may be acid/base labile, releasing an aldehyde.

>  <s_lp_Force_Field>  (35) 
OPLS3e

>  <r_lp_Energy>  (35) 
213.219

>  <b_lp_Chiralities_Consistent>  (35) 
1

>  <s_lp_Variant>  (35) 
9:0-2

>  <s_i_glide_gridfile>  (35) 
pfpi4k_grid

>  <i_i_glide_lignum>  (35) 
19

>  <i_i_glide_rotatable_bonds>  (35) 
3

>  <r_i_docking_score>  (35) 
-2.37362

>  <r_i_glide_ligand_efficiency>  (35) 
-0.0791206

>  <r_i_glide_ligand_efficiency_sa>  (35) 
-0.245846

>  <r_i_glide_ligand_efficiency_ln>  (35) 
-0.539312

>  <r_i_glide_gscore>  (35) 
-2.37362

>  <r_i_glide_lipo>  (35) 
-0.3918

>  <r_i_glide_hbond>  (35) 
-0.138586

>  <r_i_glide_metal>  (35) 
-0

>  <r_i_glide_rewards>  (35) 
-0.555817

>  <r_i_glide_evdw>  (35) 
-20.3721

>  <r_i_glide_ecoul>  (35) 
-2.18137

>  <r_i_glide_erotb>  (35) 
0.112917

>  <r_i_glide_esite>  (35) 
-0.0545231

>  <r_i_glide_emodel>  (35) 
-25.8061

>  <r_i_glide_energy>  (35) 
-22.5535

>  <r_i_glide_einternal>  (35) 
0.92478

>  <r_i_glide_intrahb_reward>  (35) 
-0

>  <i_i_glide_confnum>  (35) 
2

>  <i_i_glide_posenum>  (35) 
9

>  <r_i_glide_eff_state_penalty>  (35) 
0

>  <ligand_id>  (35) 
9

>  <original_smiles>  (35) 
COC1OC2CC(C)C34COC5OC3C(=O)C(c3ccoc3)C4(C)CC(O)C2C15C

>  <smiles>  (35) 
[H]OC1([H])C([H])([H])C2(C([H])([H])[H])C([H])(c3c([H])oc([H])c3[H])C(=O)C3([H])OC4([H])OC([H])([H])C32C([H])(C([H])([H])[H])C([H])([H])C2([H])OC([H])(OC([H])([H])[H])C4(C([H])([H])[H])C21[H]

$$$$
10:0:0
     RDKit          3D

 57 62  0  0  1  0  0  0  0  0999 V2000
    1.0209    0.3985    2.2485 C   0  0  0  0  0  0  0  0  0  0  0  0
   -0.1802    0.4973    3.0054 O   0  0  0  0  0  0  0  0  0  0  0  0
   -0.1552    1.0833    4.3150 C   0  0  1  0  0  0  0  0  0  0  0  0
    0.7645    2.3451    4.4242 C   0  0  0  0  0  0  0  0  0  0  0  0
    0.3061    3.5400    3.5677 C   0  0  0  0  0  0  0  0  0  0  0  0
   -1.1685    3.9121    3.8006 C   0  0  1  0  0  0  0  0  0  0  0  0
   -1.5583    4.9284    2.8897 O   0  0  0  0  0  0  0  0  0  0  0  0
   -2.0694    2.6744    3.6380 C   0  0  0  0  0  0  0  0  0  0  0  0
   -1.6331    1.5339    4.5795 C   0  0  2  0  0  0  0  0  0  0  0  0
   -1.9053    1.9653    5.9182 O   0  0  0  0  0  0  0  0  0  0  0  0
   -1.1823    1.3996    6.9452 C   0  0  0  0  0  0  0  0  0  0  0  0
   -1.3808    1.7570    8.2988 C   0  0  0  0  0  0  0  0  0  0  0  0
   -2.3940    2.6138    8.6169 O   0  0  0  0  0  0  0  0  0  0  0  0
   -0.5629    1.2426    9.3401 C   0  0  0  0  0  0  0  0  0  0  0  0
    0.5168    0.3720    9.0577 C   0  0  0  0  0  0  0  0  0  0  0  0
    0.7285    0.0016    7.7203 C   0  0  0  0  0  0  0  0  0  0  0  0
   -0.1373    0.4825    6.7394 C   0  0  0  0  0  0  0  0  0  0  0  0
    0.1790   -0.0415    5.3613 C   0  0  1  0  0  0  0  0  0  0  0  0
   -0.5717   -1.3827    5.0885 C   0  0  0  0  0  0  0  0  0  0  0  0
    0.4724   -2.4311    4.6639 C   0  0  0  0  0  0  0  0  0  0  0  0
    1.7750   -1.7413    4.6455 N   0  0  2  0  0  0  0  0  0  0  0  0
    2.9730   -2.5901    4.8798 C   0  0  0  0  0  0  0  0  0  0  0  0
    3.2845   -3.4843    3.6926 C   0  0  0  0  0  0  0  0  0  0  0  0
    4.6197   -4.1978    3.6041 C   0  0  0  0  0  0  0  0  0  0  0  0
    4.3113   -3.0621    2.6648 C   0  0  0  0  0  0  0  0  0  0  0  0
    1.6257   -0.5493    5.5126 C   0  0  2  0  0  0  0  0  0  0  0  0
    1.7798   -0.8378    7.0283 C   0  0  0  0  0  0  0  0  0  0  0  0
    0.8555   -0.2998    1.4301 H   0  0  0  0  0  0  0  0  0  0  0  0
    1.8642    0.0249    2.8201 H   0  0  0  0  0  0  0  0  0  0  0  0
    1.3131    1.3506    1.8107 H   0  0  0  0  0  0  0  0  0  0  0  0
    0.7946    2.6855    5.4584 H   0  0  0  0  0  0  0  0  0  0  0  0
    1.7958    2.1104    4.1660 H   0  0  0  0  0  0  0  0  0  0  0  0
    0.9343    4.4061    3.7762 H   0  0  0  0  0  0  0  0  0  0  0  0
    0.4680    3.2941    2.5215 H   0  0  0  0  0  0  0  0  0  0  0  0
   -1.2855    4.3148    4.8101 H   0  0  0  0  0  0  0  0  0  0  0  0
   -1.0919    4.7738    2.0638 H   0  0  0  0  0  0  0  0  0  0  0  0
   -3.1029    2.9444    3.8548 H   0  0  0  0  0  0  0  0  0  0  0  0
   -2.0483    2.3210    2.6049 H   0  0  0  0  0  0  0  0  0  0  0  0
   -2.3039    0.6937    4.4176 H   0  0  0  0  0  0  0  0  0  0  0  0
   -2.4315    2.8446    9.5323 H   0  0  0  0  0  0  0  0  0  0  0  0
   -0.7579    1.5217   10.3621 H   0  0  0  0  0  0  0  0  0  0  0  0
    1.1604    0.0064    9.8506 H   0  0  0  0  0  0  0  0  0  0  0  0
   -1.0634   -1.7409    5.9949 H   0  0  0  0  0  0  0  0  0  0  0  0
   -1.3488   -1.2995    4.3300 H   0  0  0  0  0  0  0  0  0  0  0  0
    0.4894   -3.2480    5.3854 H   0  0  0  0  0  0  0  0  0  0  0  0
    0.2503   -2.8678    3.6904 H   0  0  0  0  0  0  0  0  0  0  0  0
    3.8359   -1.9499    5.0561 H   0  0  0  0  0  0  0  0  0  0  0  0
    2.8559   -3.2112    5.7668 H   0  0  0  0  0  0  0  0  0  0  0  0
    2.4423   -4.0734    3.3298 H   0  0  0  0  0  0  0  0  0  0  0  0
    5.3537   -4.0218    4.3887 H   0  0  0  0  0  0  0  0  0  0  0  0
    4.6443   -5.1960    3.1678 H   0  0  0  0  0  0  0  0  0  0  0  0
    4.1124   -3.3134    1.6236 H   0  0  0  0  0  0  0  0  0  0  0  0
    4.8248   -2.1159    2.8262 H   0  0  0  0  0  0  0  0  0  0  0  0
    2.3461    0.2140    5.2268 H   0  0  0  0  0  0  0  0  0  0  0  0
    2.7802   -0.5850    7.3786 H   0  0  0  0  0  0  0  0  0  0  0  0
    1.5850   -1.8819    7.2806 H   0  0  0  0  0  0  0  0  0  0  0  0
    1.8695   -1.3779    3.7046 H   0  0  0  0  0  0  0  0  0  0  0  0
  1  2  1  0
  1 28  1  0
  1 29  1  0
  1 30  1  0
  3  2  1  6
  3  9  1  0
  3 18  1  0
  3  4  1  0
  4  5  1  0
  4 31  1  0
  4 32  1  0
  5  6  1  0
  5 33  1  0
  5 34  1  0
  6  7  1  0
  6  8  1  0
  6 35  1  1
  7 36  1  0
  8  9  1  0
  8 37  1  0
  8 38  1  0
  9 10  1  0
  9 39  1  6
 10 11  1  0
 11 17  2  0
 11 12  1  0
 12 13  1  0
 12 14  2  0
 13 40  1  0
 14 15  1  0
 14 41  1  0
 15 16  2  0
 15 42  1  0
 16 27  1  0
 16 17  1  0
 17 18  1  0
 18 26  1  0
 18 19  1  6
 19 20  1  0
 19 43  1  0
 19 44  1  0
 20 21  1  0
 20 45  1  0
 20 46  1  0
 21 22  1  0
 21 26  1  0
 21 57  1  6
 22 23  1  0
 22 47  1  0
 22 48  1  0
 23 25  1  0
 23 24  1  0
 23 49  1  0
 24 25  1  0
 24 50  1  0
 24 51  1  0
 25 52  1  0
 25 53  1  0
 26 27  1  0
 26 54  1  6
 27 55  1  0
 27 56  1  0
M  CHG  1  21   1
M  END
>  <i_m_ct_stereo_status>  (36) 
1

>  <s_m_source_file>  (36) 
/var/tmp/pbs.5076255.sched01/tmpmzpp47sj/0ood7iq68.sdf

>  <i_m_source_file_index>  (36) 
20

>  <i_lp_mmshare_version>  (36) 
48012

>  <i_f3d_flags>  (36) 
0

>  <s_epik_input>  (36) 
W0NIMl0xW0NIMl1bQ0BASF0oW09IXSlbQ0gyXVtDQEBIXShbQ0BAXTEoW0NAQF0yMzQpT1tDSDNdKU9jNWMyYyhbY0hdW2NIXWM1W09IXSlbQ0gyXVtDQEhdNE4oW0NIMl1bQ0gyXTMpW0NIMl1bQ0hdNltDSDJdW0NIMl02

>  <s_epik_cmdline>  (36) 
J2VwaWtfcHl0aG9uJywgJy1waHQnLCAnMi4wJywgJy1waCcsICc3LjAnLCAnLXRuJywgJzgnLCAnLW1hJywgJzIwMCcsICctaW1hZScsICc8aW5maWxlLm1hZT4nLCAnLW9tYWUnLCAnPG91dGZpbGUubWFlPic=

>  <r_lp_tautomer_probability>  (36) 
1

>  <r_epik_Ionization_Penalty>  (36) 
0.00691109

>  <r_epik_Ionization_Penalty_Charging>  (36) 
0.00352514

>  <r_epik_Ionization_Penalty_Neutral>  (36) 
0.00338595

>  <r_epik_State_Penalty>  (36) 
-0

>  <r_epik_Charging_Adjusted_Penalty>  (36) 
0.00352514

>  <i_epik_Tot_Q>  (36) 
1

>  <i_epik_Tot_abs_Q>  (36) 
1

>  <s_lp_Force_Field>  (36) 
OPLS3e

>  <r_lp_Energy>  (36) 
58.0553

>  <b_lp_Chiralities_Consistent>  (36) 
1

>  <s_lp_Variant>  (36) 
10:0-1

>  <s_i_glide_gridfile>  (36) 
pfpi4k_grid

>  <i_i_glide_lignum>  (36) 
20

>  <i_i_glide_rotatable_bonds>  (36) 
5

>  <r_i_docking_score>  (36) 
-3.40762

>  <r_i_glide_ligand_efficiency>  (36) 
-0.126208

>  <r_i_glide_ligand_efficiency_sa>  (36) 
-0.378625

>  <r_i_glide_ligand_efficiency_ln>  (36) 
-0.793239

>  <r_i_glide_gscore>  (36) 
-3.40762

>  <r_i_glide_lipo>  (36) 
-0.0529395

>  <r_i_glide_hbond>  (36) 
-0.32

>  <r_i_glide_metal>  (36) 
-0

>  <r_i_glide_rewards>  (36) 
-0.869469

>  <r_i_glide_evdw>  (36) 
-17.3414

>  <r_i_glide_ecoul>  (36) 
-10.5105

>  <r_i_glide_erotb>  (36) 
0.278429

>  <r_i_glide_esite>  (36) 
0

>  <r_i_glide_emodel>  (36) 
-35.363

>  <r_i_glide_energy>  (36) 
-27.8519

>  <r_i_glide_einternal>  (36) 
0.989802

>  <r_i_glide_intrahb_reward>  (36) 
-0

>  <i_i_glide_confnum>  (36) 
3

>  <i_i_glide_posenum>  (36) 
15

>  <r_i_glide_eff_state_penalty>  (36) 
0

>  <ligand_id>  (36) 
10

>  <original_smiles>  (36) 
COC12CCC(O)CC1Oc1c(O)ccc3c1C21CCN(CC2CC2)C1C3

>  <smiles>  (36) 
[H]Oc1c([H])c([H])c2c3c1OC1([H])C([H])([H])C([H])(O[H])C([H])([H])C([H])([H])C1(OC([H])([H])[H])C31C([H])([H])C([H])([H])[N+]([H])(C([H])([H])C3([H])C([H])([H])C3([H])[H])C1([H])C2([H])[H]

$$$$
10:0:1
     RDKit          3D

 57 62  0  0  1  0  0  0  0  0999 V2000
    1.2509   -4.8122    3.3990 C   0  0  0  0  0  0  0  0  0  0  0  0
    2.5934   -4.7981    3.8590 O   0  0  0  0  0  0  0  0  0  0  0  0
    3.6511   -5.2290    2.9887 C   0  0  1  0  0  0  0  0  0  0  0  0
    3.5092   -4.6947    1.5228 C   0  0  0  0  0  0  0  0  0  0  0  0
    3.6017   -3.1604    1.3904 C   0  0  0  0  0  0  0  0  0  0  0  0
    4.8597   -2.5959    2.0630 C   0  0  1  0  0  0  0  0  0  0  0  0
    4.8039   -1.1823    2.0479 O   0  0  0  0  0  0  0  0  0  0  0  0
    4.9347   -3.0698    3.5207 C   0  0  0  0  0  0  0  0  0  0  0  0
    4.9499   -4.6077    3.6096 C   0  0  2  0  0  0  0  0  0  0  0  0
    6.1766   -5.0534    3.0208 O   0  0  0  0  0  0  0  0  0  0  0  0
    6.2242   -6.3391    2.5243 C   0  0  0  0  0  0  0  0  0  0  0  0
    7.4004   -6.8815    1.9368 C   0  0  0  0  0  0  0  0  0  0  0  0
    8.5656   -6.1739    1.9292 O   0  0  0  0  0  0  0  0  0  0  0  0
    7.3890   -8.1569    1.3351 C   0  0  0  0  0  0  0  0  0  0  0  0
    6.2260   -8.9529    1.2820 C   0  0  0  0  0  0  0  0  0  0  0  0
    5.0630   -8.4346    1.8523 C   0  0  0  0  0  0  0  0  0  0  0  0
    5.1134   -7.1895    2.4759 C   0  0  0  0  0  0  0  0  0  0  0  0
    3.7959   -6.7891    3.0935 C   0  0  1  0  0  0  0  0  0  0  0  0
    3.6937   -7.3215    4.5575 C   0  0  0  0  0  0  0  0  0  0  0  0
    2.3929   -8.1388    4.6762 C   0  0  0  0  0  0  0  0  0  0  0  0
    1.7406   -8.0677    3.3550 N   0  0  2  0  0  0  0  0  0  0  0  0
    0.8416   -9.1953    2.9857 C   0  0  0  0  0  0  0  0  0  0  0  0
   -0.5921   -8.8847    3.3582 C   0  0  0  0  0  0  0  0  0  0  0  0
   -1.7085   -9.4708    2.5333 C   0  0  0  0  0  0  0  0  0  0  0  0
   -1.4463   -7.9953    2.4746 C   0  0  0  0  0  0  0  0  0  0  0  0
    2.7975   -7.7179    2.3782 C   0  0  2  0  0  0  0  0  0  0  0  0
    3.6393   -8.9278    1.9086 C   0  0  0  0  0  0  0  0  0  0  0  0
    0.5951   -4.7290    4.2654 H   0  0  0  0  0  0  0  0  0  0  0  0
    0.9755   -5.7194    2.8721 H   0  0  0  0  0  0  0  0  0  0  0  0
    1.0425   -3.9724    2.7410 H   0  0  0  0  0  0  0  0  0  0  0  0
    4.3044   -5.1165    0.9059 H   0  0  0  0  0  0  0  0  0  0  0  0
    2.5801   -5.0297    1.0653 H   0  0  0  0  0  0  0  0  0  0  0  0
    3.6024   -2.8842    0.3356 H   0  0  0  0  0  0  0  0  0  0  0  0
    2.7180   -2.6980    1.8271 H   0  0  0  0  0  0  0  0  0  0  0  0
    5.7507   -2.9076    1.5102 H   0  0  0  0  0  0  0  0  0  0  0  0
    5.5979   -0.8401    2.4309 H   0  0  0  0  0  0  0  0  0  0  0  0
    5.8303   -2.6698    3.9802 H   0  0  0  0  0  0  0  0  0  0  0  0
    4.1023   -2.6663    4.1002 H   0  0  0  0  0  0  0  0  0  0  0  0
    5.0194   -4.8657    4.6664 H   0  0  0  0  0  0  0  0  0  0  0  0
    9.3161   -6.7058    1.6833 H   0  0  0  0  0  0  0  0  0  0  0  0
    8.2747   -8.4972    0.8437 H   0  0  0  0  0  0  0  0  0  0  0  0
    6.2191   -9.9197    0.7844 H   0  0  0  0  0  0  0  0  0  0  0  0
    4.5320   -7.9857    4.7812 H   0  0  0  0  0  0  0  0  0  0  0  0
    3.7068   -6.5310    5.3067 H   0  0  0  0  0  0  0  0  0  0  0  0
    2.6300   -9.1713    4.9377 H   0  0  0  0  0  0  0  0  0  0  0  0
    1.7290   -7.7479    5.4512 H   0  0  0  0  0  0  0  0  0  0  0  0
    0.8707   -9.3549    1.9074 H   0  0  0  0  0  0  0  0  0  0  0  0
    1.1363  -10.1368    3.4520 H   0  0  0  0  0  0  0  0  0  0  0  0
   -0.7888   -8.8525    4.4315 H   0  0  0  0  0  0  0  0  0  0  0  0
   -1.4403  -10.0858    1.6789 H   0  0  0  0  0  0  0  0  0  0  0  0
   -2.5790   -9.8032    3.0774 H   0  0  0  0  0  0  0  0  0  0  0  0
   -2.1777   -7.3542    2.9661 H   0  0  0  0  0  0  0  0  0  0  0  0
   -0.9947   -7.6052    1.5617 H   0  0  0  0  0  0  0  0  0  0  0  0
    2.3637   -7.2252    1.5083 H   0  0  0  0  0  0  0  0  0  0  0  0
    3.2963   -9.2817    0.9353 H   0  0  0  0  0  0  0  0  0  0  0  0
    3.5956   -9.7646    2.6126 H   0  0  0  0  0  0  0  0  0  0  0  0
    1.1486   -7.2457    3.4071 H   0  0  0  0  0  0  0  0  0  0  0  0
  1  2  1  0
  1 28  1  0
  1 29  1  0
  1 30  1  0
  3  2  1  1
  3  9  1  0
  3 18  1  0
  3  4  1  0
  4  5  1  0
  4 31  1  0
  4 32  1  0
  5  6  1  0
  5 33  1  0
  5 34  1  0
  6  7  1  0
  6  8  1  0
  6 35  1  6
  7 36  1  0
  8  9  1  0
  8 37  1  0
  8 38  1  0
  9 10  1  0
  9 39  1  1
 10 11  1  0
 11 17  2  0
 11 12  1  0
 12 13  1  0
 12 14  2  0
 13 40  1  0
 14 15  1  0
 14 41  1  0
 15 16  2  0
 15 42  1  0
 16 27  1  0
 16 17  1  0
 17 18  1  0
 18 26  1  0
 18 19  1  1
 19 20  1  0
 19 43  1  0
 19 44  1  0
 20 21  1  0
 20 45  1  0
 20 46  1  0
 21 22  1  0
 21 26  1  0
 21 57  1  1
 22 23  1  0
 22 47  1  0
 22 48  1  0
 23 25  1  0
 23 24  1  0
 23 49  1  0
 24 25  1  0
 24 50  1  0
 24 51  1  0
 25 52  1  0
 25 53  1  0
 26 27  1  0
 26 54  1  6
 27 55  1  0
 27 56  1  0
M  CHG  1  21   1
M  END
>  <i_m_ct_stereo_status>  (37) 
1

>  <s_m_source_file>  (37) 
/var/tmp/pbs.5076255.sched01/tmpmzpp47sj/0ood7iq68.sdf

>  <i_m_source_file_index>  (37) 
20

>  <i_lp_mmshare_version>  (37) 
48012

>  <i_f3d_flags>  (37) 
0

>  <s_epik_input>  (37) 
W0NIMl0xW0NIMl1bQ0BASF0oW09IXSlbQ0gyXVtDQEBIXShbQ0BAXTEoW0NAQF0yMzQpT1tDSDNdKU9jNWMyYyhbY0hdW2NIXWM1W09IXSlbQ0gyXVtDQEhdNE4oW0NIMl1bQ0gyXTMpW0NIMl1bQ0hdNltDSDJdW0NIMl02

>  <s_epik_cmdline>  (37) 
J2VwaWtfcHl0aG9uJywgJy1waHQnLCAnMi4wJywgJy1waCcsICc3LjAnLCAnLXRuJywgJzgnLCAnLW1hJywgJzIwMCcsICctaW1hZScsICc8aW5maWxlLm1hZT4nLCAnLW9tYWUnLCAnPG91dGZpbGUubWFlPic=

>  <r_lp_tautomer_probability>  (37) 
1

>  <r_epik_Ionization_Penalty>  (37) 
0.00691109

>  <r_epik_Ionization_Penalty_Charging>  (37) 
0.00352514

>  <r_epik_Ionization_Penalty_Neutral>  (37) 
0.00338595

>  <r_epik_State_Penalty>  (37) 
-0

>  <r_epik_Charging_Adjusted_Penalty>  (37) 
0.00352514

>  <i_epik_Tot_Q>  (37) 
1

>  <i_epik_Tot_abs_Q>  (37) 
1

>  <s_lp_Force_Field>  (37) 
OPLS3e

>  <r_lp_Energy>  (37) 
58.0553

>  <b_lp_Chiralities_Consistent>  (37) 
1

>  <s_lp_Variant>  (37) 
10:0-1

>  <s_i_glide_gridfile>  (37) 
pfpi4k_grid

>  <i_i_glide_lignum>  (37) 
20

>  <i_i_glide_rotatable_bonds>  (37) 
5

>  <r_i_docking_score>  (37) 
-2.75452

>  <r_i_glide_ligand_efficiency>  (37) 
-0.102019

>  <r_i_glide_ligand_efficiency_sa>  (37) 
-0.306057

>  <r_i_glide_ligand_efficiency_ln>  (37) 
-0.641206

>  <r_i_glide_gscore>  (37) 
-2.75452

>  <r_i_glide_lipo>  (37) 
-0.489396

>  <r_i_glide_hbond>  (37) 
0

>  <r_i_glide_metal>  (37) 
-0

>  <r_i_glide_rewards>  (37) 
-0.869469

>  <r_i_glide_evdw>  (37) 
-20.0577

>  <r_i_glide_ecoul>  (37) 
-4.41188

>  <r_i_glide_erotb>  (37) 
0.278429

>  <r_i_glide_esite>  (37) 
-0.00941402

>  <r_i_glide_emodel>  (37) 
-29.8171

>  <r_i_glide_energy>  (37) 
-24.4696

>  <r_i_glide_einternal>  (37) 
2.1452

>  <r_i_glide_intrahb_reward>  (37) 
-0

>  <i_i_glide_confnum>  (37) 
3

>  <i_i_glide_posenum>  (37) 
29

>  <r_i_glide_eff_state_penalty>  (37) 
0

>  <ligand_id>  (37) 
10

>  <original_smiles>  (37) 
COC12CCC(O)CC1Oc1c(O)ccc3c1C21CCN(CC2CC2)C1C3

>  <smiles>  (37) 
[H]Oc1c([H])c([H])c2c3c1OC1([H])C([H])([H])C([H])(O[H])C([H])([H])C([H])([H])C1(OC([H])([H])[H])C31C([H])([H])C([H])([H])[N+]([H])(C([H])([H])C3([H])C([H])([H])C3([H])[H])C1([H])C2([H])[H]

$$$$
10:0:2
     RDKit          3D

 57 62  0  0  1  0  0  0  0  0999 V2000
    2.3148   -7.6143    1.8429 C   0  0  0  0  0  0  0  0  0  0  0  0
    1.2988   -7.0185    2.6442 O   0  0  0  0  0  0  0  0  0  0  0  0
    1.4593   -6.9365    4.0712 C   0  0  1  0  0  0  0  0  0  0  0  0
    2.8629   -6.3873    4.4974 C   0  0  0  0  0  0  0  0  0  0  0  0
    3.1383   -4.9388    4.0475 C   0  0  0  0  0  0  0  0  0  0  0  0
    2.0188   -3.9727    4.4631 C   0  0  1  0  0  0  0  0  0  0  0  0
    2.2511   -2.6946    3.9028 O   0  0  0  0  0  0  0  0  0  0  0  0
    0.6521   -4.4936    3.9995 C   0  0  0  0  0  0  0  0  0  0  0  0
    0.3680   -5.9054    4.5394 C   0  0  2  0  0  0  0  0  0  0  0  0
    0.2012   -5.7770    5.9602 O   0  0  0  0  0  0  0  0  0  0  0  0
    0.4410   -6.8859    6.7315 C   0  0  0  0  0  0  0  0  0  0  0  0
    0.2974   -6.8725    8.1407 C   0  0  0  0  0  0  0  0  0  0  0  0
   -0.1871   -5.7524    8.7377 O   0  0  0  0  0  0  0  0  0  0  0  0
    0.6344   -7.9874    8.9453 C   0  0  0  0  0  0  0  0  0  0  0  0
    1.1721   -9.1558    8.3692 C   0  0  0  0  0  0  0  0  0  0  0  0
    1.3129   -9.1907    6.9793 C   0  0  0  0  0  0  0  0  0  0  0  0
    0.9131   -8.0984    6.2157 C   0  0  0  0  0  0  0  0  0  0  0  0
    1.0893   -8.3147    4.7316 C   0  0  1  0  0  0  0  0  0  0  0  0
   -0.1813   -8.9741    4.1103 C   0  0  0  0  0  0  0  0  0  0  0  0
    0.2625  -10.2548    3.3657 C   0  0  0  0  0  0  0  0  0  0  0  0
    1.7235  -10.3351    3.5091 N   0  0  2  0  0  0  0  0  0  0  0  0
    2.3193  -11.6951    3.4378 C   0  0  0  0  0  0  0  0  0  0  0  0
    3.8313  -11.6298    3.3102 C   0  0  0  0  0  0  0  0  0  0  0  0
    4.6725  -12.8661    3.5653 C   0  0  0  0  0  0  0  0  0  0  0  0
    4.7013  -11.7337    4.5488 C   0  0  0  0  0  0  0  0  0  0  0  0
    2.0776   -9.4974    4.6810 C   0  0  2  0  0  0  0  0  0  0  0  0
    1.8869  -10.2116    6.0415 C   0  0  0  0  0  0  0  0  0  0  0  0
    1.8717   -7.8588    0.8855 H   0  0  0  0  0  0  0  0  0  0  0  0
    2.7239   -8.5336    2.2377 H   0  0  0  0  0  0  0  0  0  0  0  0
    3.1607   -6.9475    1.6906 H   0  0  0  0  0  0  0  0  0  0  0  0
    2.9472   -6.4069    5.5865 H   0  0  0  0  0  0  0  0  0  0  0  0
    3.6680   -7.0266    4.1347 H   0  0  0  0  0  0  0  0  0  0  0  0
    4.0783   -4.5973    4.4830 H   0  0  0  0  0  0  0  0  0  0  0  0
    3.2704   -4.9149    2.9660 H   0  0  0  0  0  0  0  0  0  0  0  0
    2.0163   -3.8554    5.5472 H   0  0  0  0  0  0  0  0  0  0  0  0
    2.2794   -2.7707    2.9612 H   0  0  0  0  0  0  0  0  0  0  0  0
   -0.1263   -3.8105    4.3410 H   0  0  0  0  0  0  0  0  0  0  0  0
    0.6178   -4.5047    2.9088 H   0  0  0  0  0  0  0  0  0  0  0  0
   -0.6046   -6.2130    4.1556 H   0  0  0  0  0  0  0  0  0  0  0  0
   -0.2972   -5.0554    8.1121 H   0  0  0  0  0  0  0  0  0  0  0  0
    0.4996   -7.9363   10.0080 H   0  0  0  0  0  0  0  0  0  0  0  0
    1.4761  -10.0047    8.9696 H   0  0  0  0  0  0  0  0  0  0  0  0
   -0.8756   -9.2584    4.9053 H   0  0  0  0  0  0  0  0  0  0  0  0
   -0.7336   -8.3130    3.4399 H   0  0  0  0  0  0  0  0  0  0  0  0
   -0.1847  -11.1377    3.8251 H   0  0  0  0  0  0  0  0  0  0  0  0
   -0.0266  -10.2352    2.3118 H   0  0  0  0  0  0  0  0  0  0  0  0
    2.0438  -12.3116    4.2967 H   0  0  0  0  0  0  0  0  0  0  0  0
    1.9482  -12.2125    2.5539 H   0  0  0  0  0  0  0  0  0  0  0  0
    4.1934  -10.9985    2.4920 H   0  0  0  0  0  0  0  0  0  0  0  0
    4.1546  -13.7711    3.8765 H   0  0  0  0  0  0  0  0  0  0  0  0
    5.5765  -13.0214    2.9779 H   0  0  0  0  0  0  0  0  0  0  0  0
    5.5879  -11.0962    4.5815 H   0  0  0  0  0  0  0  0  0  0  0  0
    4.2211  -11.9320    5.5062 H   0  0  0  0  0  0  0  0  0  0  0  0
    3.1055   -9.1482    4.5997 H   0  0  0  0  0  0  0  0  0  0  0  0
    2.8255  -10.5732    6.4572 H   0  0  0  0  0  0  0  0  0  0  0  0
    1.1745  -11.0371    5.9636 H   0  0  0  0  0  0  0  0  0  0  0  0
    2.0716   -9.8429    2.6925 H   0  0  0  0  0  0  0  0  0  0  0  0
  1  2  1  0
  1 28  1  0
  1 29  1  0
  1 30  1  0
  3  2  1  6
  3  9  1  0
  3 18  1  0
  3  4  1  0
  4  5  1  0
  4 31  1  0
  4 32  1  0
  5  6  1  0
  5 33  1  0
  5 34  1  0
  6  7  1  0
  6  8  1  0
  6 35  1  1
  7 36  1  0
  8  9  1  0
  8 37  1  0
  8 38  1  0
  9 10  1  0
  9 39  1  6
 10 11  1  0
 11 17  2  0
 11 12  1  0
 12 13  1  0
 12 14  2  0
 13 40  1  0
 14 15  1  0
 14 41  1  0
 15 16  2  0
 15 42  1  0
 16 27  1  0
 16 17  1  0
 17 18  1  0
 18 26  1  0
 18 19  1  6
 19 20  1  0
 19 43  1  0
 19 44  1  0
 20 21  1  0
 20 45  1  0
 20 46  1  0
 21 22  1  0
 21 26  1  0
 21 57  1  6
 22 23  1  0
 22 47  1  0
 22 48  1  0
 23 25  1  0
 23 24  1  0
 23 49  1  0
 24 25  1  0
 24 50  1  0
 24 51  1  0
 25 52  1  0
 25 53  1  0
 26 27  1  0
 26 54  1  6
 27 55  1  0
 27 56  1  0
M  CHG  1  21   1
M  END
>  <i_m_ct_stereo_status>  (38) 
1

>  <s_m_source_file>  (38) 
/var/tmp/pbs.5076255.sched01/tmpmzpp47sj/0ood7iq68.sdf

>  <i_m_source_file_index>  (38) 
20

>  <i_lp_mmshare_version>  (38) 
48012

>  <i_f3d_flags>  (38) 
0

>  <s_epik_input>  (38) 
W0NIMl0xW0NIMl1bQ0BASF0oW09IXSlbQ0gyXVtDQEBIXShbQ0BAXTEoW0NAQF0yMzQpT1tDSDNdKU9jNWMyYyhbY0hdW2NIXWM1W09IXSlbQ0gyXVtDQEhdNE4oW0NIMl1bQ0gyXTMpW0NIMl1bQ0hdNltDSDJdW0NIMl02

>  <s_epik_cmdline>  (38) 
J2VwaWtfcHl0aG9uJywgJy1waHQnLCAnMi4wJywgJy1waCcsICc3LjAnLCAnLXRuJywgJzgnLCAnLW1hJywgJzIwMCcsICctaW1hZScsICc8aW5maWxlLm1hZT4nLCAnLW9tYWUnLCAnPG91dGZpbGUubWFlPic=

>  <r_lp_tautomer_probability>  (38) 
1

>  <r_epik_Ionization_Penalty>  (38) 
0.00691109

>  <r_epik_Ionization_Penalty_Charging>  (38) 
0.00352514

>  <r_epik_Ionization_Penalty_Neutral>  (38) 
0.00338595

>  <r_epik_State_Penalty>  (38) 
-0

>  <r_epik_Charging_Adjusted_Penalty>  (38) 
0.00352514

>  <i_epik_Tot_Q>  (38) 
1

>  <i_epik_Tot_abs_Q>  (38) 
1

>  <s_lp_Force_Field>  (38) 
OPLS3e

>  <r_lp_Energy>  (38) 
58.0553

>  <b_lp_Chiralities_Consistent>  (38) 
1

>  <s_lp_Variant>  (38) 
10:0-1

>  <s_i_glide_gridfile>  (38) 
pfpi4k_grid

>  <i_i_glide_lignum>  (38) 
20

>  <i_i_glide_rotatable_bonds>  (38) 
5

>  <r_i_docking_score>  (38) 
-2.48864

>  <r_i_glide_ligand_efficiency>  (38) 
-0.092172

>  <r_i_glide_ligand_efficiency_sa>  (38) 
-0.276516

>  <r_i_glide_ligand_efficiency_ln>  (38) 
-0.579315

>  <r_i_glide_gscore>  (38) 
-2.48864

>  <r_i_glide_lipo>  (38) 
-0.00117301

>  <r_i_glide_hbond>  (38) 
0

>  <r_i_glide_metal>  (38) 
-0

>  <r_i_glide_rewards>  (38) 
-0.869469

>  <r_i_glide_evdw>  (38) 
-18.2077

>  <r_i_glide_ecoul>  (38) 
-6.57365

>  <r_i_glide_erotb>  (38) 
0.278429

>  <r_i_glide_esite>  (38) 
0

>  <r_i_glide_emodel>  (38) 
-30.1148

>  <r_i_glide_energy>  (38) 
-24.7813

>  <r_i_glide_einternal>  (38) 
0.626999

>  <r_i_glide_intrahb_reward>  (38) 
-0

>  <i_i_glide_confnum>  (38) 
5

>  <i_i_glide_posenum>  (38) 
25

>  <r_i_glide_eff_state_penalty>  (38) 
0

>  <ligand_id>  (38) 
10

>  <original_smiles>  (38) 
COC12CCC(O)CC1Oc1c(O)ccc3c1C21CCN(CC2CC2)C1C3

>  <smiles>  (38) 
[H]Oc1c([H])c([H])c2c3c1OC1([H])C([H])([H])C([H])(O[H])C([H])([H])C([H])([H])C1(OC([H])([H])[H])C31C([H])([H])C([H])([H])[N+]([H])(C([H])([H])C3([H])C([H])([H])C3([H])[H])C1([H])C2([H])[H]

$$$$
11:0:0
     RDKit          3D

 95103  0  0  1  0  0  0  0  0999 V2000
    6.9042   -3.4207   -0.7778 C   0  0  0  0  0  0  0  0  0  0  0  0
    5.4680   -3.8137   -1.0802 C   0  0  0  0  0  0  0  0  0  0  0  0
    4.7781   -2.8905   -2.0633 C   0  0  0  0  0  0  0  0  0  0  0  0
    4.8237   -4.8779   -0.5524 C   0  0  0  0  0  0  0  0  0  0  0  0
    5.3629   -5.8982    0.4393 C   0  0  0  0  0  0  0  0  0  0  0  0
    4.5829   -6.0020    1.7711 C   0  0  1  0  0  0  0  0  0  0  0  0
    5.3627   -6.8321    2.6363 O   0  0  0  0  0  0  0  0  0  0  0  0
    5.9838   -6.0550    3.6040 C   0  0  1  0  0  0  0  0  0  0  0  0
    6.3121   -6.9752    4.8013 C   0  0  0  0  0  0  0  0  0  0  0  0
    7.1711   -5.4934    3.0829 O   0  0  0  0  0  0  0  0  0  0  0  0
    4.9265   -4.9674    3.9189 C   0  0  1  0  0  0  0  0  0  0  0  0
    5.5456   -3.7926    4.7002 C   0  0  0  0  0  0  0  0  0  0  0  0
    4.4081   -4.6510    2.5052 C   0  0  2  0  0  0  0  0  0  0  0  0
    3.0199   -3.9309    2.2996 C   0  0  1  0  0  0  0  0  0  0  0  0
    2.3121   -4.5170    1.2122 O   0  0  0  0  0  0  0  0  0  0  0  0
    1.9978   -5.9132    1.3668 C   0  0  2  0  0  0  0  0  0  0  0  0
    0.9173   -6.2734    2.4302 C   0  0  0  0  0  0  0  0  0  0  0  0
    1.2964   -6.0533    3.9151 C   0  0  0  0  0  0  0  0  0  0  0  0
    1.7221   -4.8554    4.3431 C   0  0  0  0  0  0  0  0  0  0  0  0
    1.9960   -4.5663    5.8182 C   0  0  0  0  0  0  0  0  0  0  0  0
    2.0861   -5.8544    6.6303 C   0  0  0  0  0  0  0  0  0  0  0  0
    3.0246   -6.1481    7.5537 C   0  0  0  0  0  0  0  0  0  0  0  0
    4.1833   -5.2413    7.9576 C   0  0  0  0  0  0  0  0  0  0  0  0
    3.0351   -7.4958    8.1894 C   0  0  0  0  0  0  0  0  0  0  0  0
    4.0001   -7.8950    8.8472 O   0  0  0  0  0  0  0  0  0  0  0  0
    1.9421   -8.3139    7.9272 O   0  0  0  0  0  0  0  0  0  0  0  0
    0.7886   -7.7342    7.3637 C   0  0  1  0  0  0  0  0  0  0  0  0
   -0.0270   -7.0176    8.4806 C   0  0  0  0  0  0  0  0  0  0  0  0
    1.1110   -6.7858    6.2975 N   0  0  0  0  0  0  0  0  0  0  0  0
    1.0172   -7.2190    4.8953 C   0  0  0  0  0  0  0  0  0  0  0  0
   -0.3808   -7.7938    4.6151 C   0  0  0  0  0  0  0  0  0  0  0  0
   -0.6127   -9.0502    4.1787 C   0  0  0  0  0  0  0  0  0  0  0  0
    0.5089   -9.9728    3.9470 C   0  0  0  0  0  0  0  0  0  0  0  0
    0.3215  -11.1112    3.5478 O   0  0  0  0  0  0  0  0  0  0  0  0
    1.8716   -9.5250    4.2019 C   0  0  0  0  0  0  0  0  0  0  0  0
    2.0949   -8.2672    4.6259 C   0  0  0  0  0  0  0  0  0  0  0  0
    1.8938   -3.7221    3.3354 C   0  0  1  0  0  0  0  0  0  0  0  0
    2.3981   -2.3049    3.6457 C   0  0  2  0  0  0  0  0  0  0  0  0
    1.4306   -1.1378    3.5347 C   0  0  1  0  0  0  0  0  0  0  0  0
    1.4017   -0.1763    4.5743 O   0  0  0  0  0  0  0  0  0  0  0  0
    0.3554    0.7711    4.3321 C   0  0  0  0  0  0  0  0  0  0  0  0
    0.5124    1.4911    2.9649 C   0  0  0  0  0  0  0  0  0  0  0  0
    0.7714    0.5140    1.7901 C   0  0  0  0  0  0  0  0  0  0  0  0
    1.8673   -0.4445    2.2593 C   0  0  2  0  0  0  0  0  0  0  0  0
    2.2916   -1.5546    1.3822 N   0  0  0  0  0  0  0  0  0  0  0  0
    3.1258   -2.3884    2.2923 C   0  0  2  0  0  0  0  0  0  0  0  0
    3.2615   -6.7432    1.5839 C   0  0  0  0  0  0  0  0  0  0  0  0
    3.2181   -7.9614    1.5543 O   0  0  0  0  0  0  0  0  0  0  0  0
    7.4938   -3.4363   -1.6957 H   0  0  0  0  0  0  0  0  0  0  0  0
    7.4059   -4.0618   -0.0582 H   0  0  0  0  0  0  0  0  0  0  0  0
    6.9323   -2.4089   -0.3750 H   0  0  0  0  0  0  0  0  0  0  0  0
    5.3166   -2.8740   -3.0116 H   0  0  0  0  0  0  0  0  0  0  0  0
    4.7504   -1.8723   -1.6725 H   0  0  0  0  0  0  0  0  0  0  0  0
    3.7525   -3.2044   -2.2675 H   0  0  0  0  0  0  0  0  0  0  0  0
    3.8055   -5.0479   -0.8568 H   0  0  0  0  0  0  0  0  0  0  0  0
    5.3054   -6.8665   -0.0479 H   0  0  0  0  0  0  0  0  0  0  0  0
    6.4180   -5.7518    0.6393 H   0  0  0  0  0  0  0  0  0  0  0  0
    6.9923   -7.7598    4.4740 H   0  0  0  0  0  0  0  0  0  0  0  0
    5.4089   -7.4503    5.1749 H   0  0  0  0  0  0  0  0  0  0  0  0
    6.7805   -6.4112    5.6024 H   0  0  0  0  0  0  0  0  0  0  0  0
    7.7967   -6.1996    2.9968 H   0  0  0  0  0  0  0  0  0  0  0  0
    4.1763   -5.4618    4.5211 H   0  0  0  0  0  0  0  0  0  0  0  0
    6.1415   -3.1597    4.0452 H   0  0  0  0  0  0  0  0  0  0  0  0
    6.1743   -4.1284    5.5270 H   0  0  0  0  0  0  0  0  0  0  0  0
    4.8113   -3.1323    5.1434 H   0  0  0  0  0  0  0  0  0  0  0  0
    5.1744   -4.0083    2.0631 H   0  0  0  0  0  0  0  0  0  0  0  0
    1.5977   -6.2321    0.4039 H   0  0  0  0  0  0  0  0  0  0  0  0
   -0.0097   -5.7501    2.2164 H   0  0  0  0  0  0  0  0  0  0  0  0
    0.6650   -7.3224    2.2810 H   0  0  0  0  0  0  0  0  0  0  0  0
    2.9028   -3.9787    5.9137 H   0  0  0  0  0  0  0  0  0  0  0  0
    1.1870   -3.9647    6.2311 H   0  0  0  0  0  0  0  0  0  0  0  0
    4.3568   -5.3110    9.0333 H   0  0  0  0  0  0  0  0  0  0  0  0
    3.9981   -4.1907    7.7467 H   0  0  0  0  0  0  0  0  0  0  0  0
    5.1100   -5.5373    7.4574 H   0  0  0  0  0  0  0  0  0  0  0  0
    0.2070   -8.5570    6.9329 H   0  0  0  0  0  0  0  0  0  0  0  0
   -0.9584   -6.6147    8.0853 H   0  0  0  0  0  0  0  0  0  0  0  0
    0.5175   -6.1847    8.9271 H   0  0  0  0  0  0  0  0  0  0  0  0
   -0.2566   -7.7329    9.2683 H   0  0  0  0  0  0  0  0  0  0  0  0
   -1.2305   -7.1483    4.8261 H   0  0  0  0  0  0  0  0  0  0  0  0
   -1.6040   -9.4518    4.0124 H   0  0  0  0  0  0  0  0  0  0  0  0
    2.6563  -10.2467    4.0196 H   0  0  0  0  0  0  0  0  0  0  0  0
    3.1145   -7.9638    4.7912 H   0  0  0  0  0  0  0  0  0  0  0  0
    0.9373   -3.6015    2.8251 H   0  0  0  0  0  0  0  0  0  0  0  0
    3.1239   -2.2227    4.4444 H   0  0  0  0  0  0  0  0  0  0  0  0
    0.4235   -1.5318    3.3884 H   0  0  0  0  0  0  0  0  0  0  0  0
   -0.6108    0.2637    4.3768 H   0  0  0  0  0  0  0  0  0  0  0  0
    0.3601    1.4993    5.1428 H   0  0  0  0  0  0  0  0  0  0  0  0
   -0.3796    2.0861    2.7605 H   0  0  0  0  0  0  0  0  0  0  0  0
    1.3332    2.2070    3.0385 H   0  0  0  0  0  0  0  0  0  0  0  0
   -0.1483   -0.0131    1.5357 H   0  0  0  0  0  0  0  0  0  0  0  0
    1.0746    1.0824    0.9114 H   0  0  0  0  0  0  0  0  0  0  0  0
    2.7607    0.1480    2.4442 H   0  0  0  0  0  0  0  0  0  0  0  0
    1.4761   -2.0564    1.0668 H   0  0  0  0  0  0  0  0  0  0  0  0
    4.1499   -2.0273    2.3504 H   0  0  0  0  0  0  0  0  0  0  0  0
    2.8017   -1.2151    0.5809 H   0  0  0  0  0  0  0  0  0  0  0  0
  1  2  1  0
  1 49  1  0
  1 50  1  0
  1 51  1  0
  2  3  1  0
  2  4  2  3
  3 52  1  0
  3 53  1  0
  3 54  1  0
  4  5  1  0
  4 55  1  0
  6  5  1  6
  5 56  1  0
  5 57  1  0
  6 13  1  0
  6 47  1  0
  6  7  1  0
  7  8  1  0
  8  9  1  0
  8 10  1  6
  8 11  1  0
  9 58  1  0
  9 59  1  0
  9 60  1  0
 10 61  1  0
 11 12  1  0
 11 13  1  0
 11 62  1  1
 12 63  1  0
 12 64  1  0
 12 65  1  0
 13 14  1  0
 13 66  1  6
 14 37  1  0
 14 46  1  0
 14 15  1  6
 15 16  1  0
 16 17  1  0
 16 47  1  0
 16 67  1  6
 17 18  1  0
 17 68  1  0
 17 69  1  0
 18 30  1  0
 18 19  2  0
 19 20  1  0
 19 37  1  0
 20 21  1  0
 20 70  1  0
 20 71  1  0
 21 29  1  0
 21 22  2  0
 22 23  1  0
 22 24  1  0
 23 72  1  0
 23 73  1  0
 23 74  1  0
 24 25  2  0
 24 26  1  0
 26 27  1  0
 27 28  1  0
 27 29  1  0
 27 75  1  6
 28 76  1  0
 28 77  1  0
 28 78  1  0
 29 30  1  0
 30 36  1  0
 30 31  1  0
 31 32  2  0
 31 79  1  0
 32 33  1  0
 32 80  1  0
 33 34  2  0
 33 35  1  0
 35 36  2  0
 35 81  1  0
 36 82  1  0
 37 38  1  0
 37 83  1  6
 38 46  1  0
 38 39  1  0
 38 84  1  1
 39 44  1  0
 39 40  1  0
 39 85  1  6
 40 41  1  0
 41 42  1  0
 41 86  1  0
 41 87  1  0
 42 43  1  0
 42 88  1  0
 42 89  1  0
 43 44  1  0
 43 90  1  0
 43 91  1  0
 44 45  1  0
 44 92  1  1
 45 46  1  0
 45 93  1  0
 45 95  1  0
 46 94  1  1
 47 48  2  0
M  CHG  1  45   1
M  END
>  <i_m_ct_stereo_status>  (39) 
1

>  <s_m_source_file>  (39) 
/var/tmp/pbs.5076255.sched01/tmpmzpp47sj/0ood7iq68.sdf

>  <i_m_source_file_index>  (39) 
21

>  <i_lp_mmshare_version>  (39) 
48012

>  <i_f3d_flags>  (39) 
0

>  <s_epik_input>  (39) 
W0NIM11DKFtDSDNdKT1bQ0hdW0NIMl1bQ0BdKFtDQEhdMVtDQEBdMjM0KShPW0NAQF0oW0NIM10pKFtPSF0pW0NASF0xW0NIM10pQyg9TylbQ0BIXShPMilbQ0gyXUM9NUM2KFtDSF09W0NIXUMoPU8pW0NIXT1bQ0hdNilON0MoPUMoW0NIM10pQyg9TylPW0NASF03W0NIM10pW0NIMl1DNVtDQEhdM1tDQEBIXThbQ0BASF05W0NAQEhdKFtOSF1bQ0BIXTQ4KVtDSDJdW0NIMl1bQ0gyXU85

>  <s_epik_cmdline>  (39) 
J2VwaWtfcHl0aG9uJywgJy1waHQnLCAnMi4wJywgJy1waCcsICc3LjAnLCAnLXRuJywgJzgnLCAnLW1hJywgJzIwMCcsICctaW1hZScsICc8aW5maWxlLm1hZT4nLCAnLW9tYWUnLCAnPG91dGZpbGUubWFlPic=

>  <r_epik_Ionization_Penalty>  (39) 
0.0483502

>  <r_epik_Ionization_Penalty_Charging>  (39) 
0.0483485

>  <r_epik_Ionization_Penalty_Neutral>  (39) 
1.65799e-06

>  <r_epik_State_Penalty>  (39) 
0.0412305

>  <r_epik_Charging_Adjusted_Penalty>  (39) 
0.089579

>  <i_epik_Tot_Q>  (39) 
1

>  <i_epik_Tot_abs_Q>  (39) 
1

>  <s_epik_Chemistry_Notes>  (39) 
This compound has an ester and may undergo hydrolysis at high or low pH. This compound contains an acetal/aminal-like group ( X-CH(R)-Y where X, Y are N, S, or O) that may be acid/base labile, releasing an aldehyde.

>  <s_lp_Force_Field>  (39) 
OPLS3e

>  <r_lp_Energy>  (39) 
90.2157

>  <b_lp_Chiralities_Consistent>  (39) 
1

>  <s_lp_Variant>  (39) 
11:0-1

>  <s_i_glide_gridfile>  (39) 
pfpi4k_grid

>  <i_i_glide_lignum>  (39) 
21

>  <i_i_glide_rotatable_bonds>  (39) 
3

>  <r_i_docking_score>  (39) 
-2.40333

>  <r_i_glide_ligand_efficiency>  (39) 
-0.0500693

>  <r_i_glide_ligand_efficiency_sa>  (39) 
-0.181964

>  <r_i_glide_ligand_efficiency_ln>  (39) 
-0.493375

>  <r_i_glide_gscore>  (39) 
-2.40333

>  <r_i_glide_lipo>  (39) 
-0.411375

>  <r_i_glide_hbond>  (39) 
-0.015104

>  <r_i_glide_metal>  (39) 
-0

>  <r_i_glide_rewards>  (39) 
-0.0707258

>  <r_i_glide_evdw>  (39) 
-23.7822

>  <r_i_glide_ecoul>  (39) 
-4.47072

>  <r_i_glide_erotb>  (39) 
0.0977459

>  <r_i_glide_esite>  (39) 
-0.14415

>  <r_i_glide_emodel>  (39) 
-32.7035

>  <r_i_glide_energy>  (39) 
-28.253

>  <r_i_glide_einternal>  (39) 
0.733109

>  <r_i_glide_intrahb_reward>  (39) 
-0

>  <i_i_glide_confnum>  (39) 
3

>  <i_i_glide_posenum>  (39) 
31

>  <r_i_glide_eff_state_penalty>  (39) 
0

>  <ligand_id>  (39) 
11

>  <original_smiles>  (39) 
CC(C)=CCC12OC(C)(O)C(C)C1C13OC(CC4=C(CC5=C(C)C(=O)OC(C)N5C45C=CC(=O)C=C5)C1C1C4OCCCC4NC13)C2=O

>  <smiles>  (39) 
[H]OC1(C([H])([H])[H])OC2(C([H])([H])C([H])=C(C([H])([H])[H])C([H])([H])[H])C(=O)C3([H])OC4(C([H])(C5=C(C6(C([H])=C([H])C(=O)C([H])=C6[H])N6C(=C(C([H])([H])[H])C(=O)OC6([H])C([H])([H])[H])C5([H])[H])C3([H])[H])C3([H])C5([H])OC([H])([H])C([H])([H])C([H])([H])C5([H])[N+]([H])([H])C34[H])C2([H])C1([H])C([H])([H])[H]

$$$$
11:0:1
     RDKit          3D

 95103  0  0  1  0  0  0  0  0999 V2000
    6.5335   -2.2161   -0.8865 C   0  0  0  0  0  0  0  0  0  0  0  0
    5.0618   -2.1245   -0.5222 C   0  0  0  0  0  0  0  0  0  0  0  0
    4.5054   -0.7144   -0.5593 C   0  0  0  0  0  0  0  0  0  0  0  0
    4.2750   -3.1715   -0.1989 C   0  0  0  0  0  0  0  0  0  0  0  0
    4.6645   -4.6428   -0.1059 C   0  0  0  0  0  0  0  0  0  0  0  0
    4.2285   -5.3738    1.1930 C   0  0  1  0  0  0  0  0  0  0  0  0
    4.6390   -6.7353    1.0344 O   0  0  0  0  0  0  0  0  0  0  0  0
    5.7363   -7.0298    1.8342 C   0  0  1  0  0  0  0  0  0  0  0  0
    5.7281   -8.5483    2.0789 C   0  0  0  0  0  0  0  0  0  0  0  0
    6.9450   -6.6658    1.2005 O   0  0  0  0  0  0  0  0  0  0  0  0
    5.5093   -6.1793    3.0944 C   0  0  1  0  0  0  0  0  0  0  0  0
    6.8131   -6.0710    3.9222 C   0  0  0  0  0  0  0  0  0  0  0  0
    4.9593   -4.8749    2.4717 C   0  0  2  0  0  0  0  0  0  0  0  0
    4.1679   -3.8353    3.3607 C   0  0  1  0  0  0  0  0  0  0  0  0
    3.0759   -3.3011    2.6390 O   0  0  0  0  0  0  0  0  0  0  0  0
    2.1005   -4.2837    2.2501 C   0  0  2  0  0  0  0  0  0  0  0  0
    1.2139   -4.9049    3.3700 C   0  0  0  0  0  0  0  0  0  0  0  0
    1.9083   -5.8527    4.3625 C   0  0  0  0  0  0  0  0  0  0  0  0
    3.0000   -5.4373    5.0440 C   0  0  0  0  0  0  0  0  0  0  0  0
    3.6773   -6.2913    6.1056 C   0  0  0  0  0  0  0  0  0  0  0  0
    3.2123   -7.7422    6.0190 C   0  0  0  0  0  0  0  0  0  0  0  0
    4.0149   -8.8298    6.0770 C   0  0  0  0  0  0  0  0  0  0  0  0
    5.5287   -8.8145    6.2561 C   0  0  0  0  0  0  0  0  0  0  0  0
    3.4285  -10.1913    5.8776 C   0  0  0  0  0  0  0  0  0  0  0  0
    4.1189  -11.1902    5.6917 O   0  0  0  0  0  0  0  0  0  0  0  0
    2.0507  -10.2432    5.8191 O   0  0  0  0  0  0  0  0  0  0  0  0
    1.2988   -9.1444    6.2742 C   0  0  1  0  0  0  0  0  0  0  0  0
    1.2138   -9.1399    7.8236 C   0  0  0  0  0  0  0  0  0  0  0  0
    1.8465   -7.8719    5.8062 N   0  0  0  0  0  0  0  0  0  0  0  0
    1.2452   -7.2296    4.6273 C   0  0  0  0  0  0  0  0  0  0  0  0
   -0.2653   -7.0486    4.8314 C   0  0  0  0  0  0  0  0  0  0  0  0
   -1.2251   -7.5788    4.0426 C   0  0  0  0  0  0  0  0  0  0  0  0
   -0.8856   -8.3926    2.8665 C   0  0  0  0  0  0  0  0  0  0  0  0
   -1.7680   -8.8413    2.1357 O   0  0  0  0  0  0  0  0  0  0  0  0
    0.5431   -8.6228    2.5931 C   0  0  0  0  0  0  0  0  0  0  0  0
    1.4983   -8.0951    3.3882 C   0  0  0  0  0  0  0  0  0  0  0  0
    3.5600   -4.0468    4.7651 C   0  0  1  0  0  0  0  0  0  0  0  0
    4.8003   -3.4130    5.4233 C   0  0  2  0  0  0  0  0  0  0  0  0
    4.6002   -2.2480    6.3793 C   0  0  1  0  0  0  0  0  0  0  0  0
    5.3103   -2.2564    7.6044 O   0  0  0  0  0  0  0  0  0  0  0  0
    4.9063   -1.1439    8.4133 C   0  0  0  0  0  0  0  0  0  0  0  0
    5.1498    0.2154    7.7002 C   0  0  0  0  0  0  0  0  0  0  0  0
    4.6090    0.2429    6.2441 C   0  0  0  0  0  0  0  0  0  0  0  0
    5.0783   -1.0506    5.5741 C   0  0  2  0  0  0  0  0  0  0  0  0
    4.6408   -1.3613    4.1904 N   0  0  0  0  0  0  0  0  0  0  0  0
    5.0674   -2.7818    4.0403 C   0  0  2  0  0  0  0  0  0  0  0  0
    2.7058   -5.3711    1.3593 C   0  0  0  0  0  0  0  0  0  0  0  0
    1.9782   -6.1728    0.7740 O   0  0  0  0  0  0  0  0  0  0  0  0
    6.6708   -1.8575   -1.9064 H   0  0  0  0  0  0  0  0  0  0  0  0
    6.9432   -3.2217   -0.8514 H   0  0  0  0  0  0  0  0  0  0  0  0
    7.1216   -1.5963   -0.2085 H   0  0  0  0  0  0  0  0  0  0  0  0
    4.6135   -0.2893   -1.5584 H   0  0  0  0  0  0  0  0  0  0  0  0
    5.0402   -0.0736    0.1439 H   0  0  0  0  0  0  0  0  0  0  0  0
    3.4441   -0.6878   -0.3003 H   0  0  0  0  0  0  0  0  0  0  0  0
    3.2375   -2.9560    0.0101 H   0  0  0  0  0  0  0  0  0  0  0  0
    4.2151   -5.1349   -0.9643 H   0  0  0  0  0  0  0  0  0  0  0  0
    5.7298   -4.7893   -0.2430 H   0  0  0  0  0  0  0  0  0  0  0  0
    5.8044   -9.0732    1.1251 H   0  0  0  0  0  0  0  0  0  0  0  0
    4.7997   -8.8581    2.5620 H   0  0  0  0  0  0  0  0  0  0  0  0
    6.5680   -8.8447    2.7087 H   0  0  0  0  0  0  0  0  0  0  0  0
    7.6616   -7.0134    1.7133 H   0  0  0  0  0  0  0  0  0  0  0  0
    4.7413   -6.6961    3.6611 H   0  0  0  0  0  0  0  0  0  0  0  0
    7.5578   -5.4579    3.4216 H   0  0  0  0  0  0  0  0  0  0  0  0
    7.2702   -7.0470    4.0777 H   0  0  0  0  0  0  0  0  0  0  0  0
    6.6512   -5.6604    4.9116 H   0  0  0  0  0  0  0  0  0  0  0  0
    5.8393   -4.3531    2.0921 H   0  0  0  0  0  0  0  0  0  0  0  0
    1.4252   -3.7202    1.6246 H   0  0  0  0  0  0  0  0  0  0  0  0
    0.7044   -4.1160    3.9237 H   0  0  0  0  0  0  0  0  0  0  0  0
    0.4184   -5.4572    2.8737 H   0  0  0  0  0  0  0  0  0  0  0  0
    4.7569   -6.2146    6.0139 H   0  0  0  0  0  0  0  0  0  0  0  0
    3.4176   -5.9083    7.0910 H   0  0  0  0  0  0  0  0  0  0  0  0
    5.8482   -9.6252    6.9160 H   0  0  0  0  0  0  0  0  0  0  0  0
    5.9001   -7.8928    6.7003 H   0  0  0  0  0  0  0  0  0  0  0  0
    6.0320   -8.9603    5.2975 H   0  0  0  0  0  0  0  0  0  0  0  0
    0.2961   -9.2676    5.8631 H   0  0  0  0  0  0  0  0  0  0  0  0
    0.5739   -8.3289    8.1613 H   0  0  0  0  0  0  0  0  0  0  0  0
    2.1866   -9.0158    8.2937 H   0  0  0  0  0  0  0  0  0  0  0  0
    0.7867  -10.0745    8.1812 H   0  0  0  0  0  0  0  0  0  0  0  0
   -0.5643   -6.4731    5.6982 H   0  0  0  0  0  0  0  0  0  0  0  0
   -2.2725   -7.4341    4.2490 H   0  0  0  0  0  0  0  0  0  0  0  0
    0.7991   -9.2225    1.7314 H   0  0  0  0  0  0  0  0  0  0  0  0
    2.5355   -8.2924    3.1468 H   0  0  0  0  0  0  0  0  0  0  0  0
    2.7333   -3.3494    4.9189 H   0  0  0  0  0  0  0  0  0  0  0  0
    5.5998   -4.0921    5.6983 H   0  0  0  0  0  0  0  0  0  0  0  0
    3.5335   -2.1365    6.5891 H   0  0  0  0  0  0  0  0  0  0  0  0
    3.8496   -1.2414    8.6746 H   0  0  0  0  0  0  0  0  0  0  0  0
    5.4601   -1.1749    9.3524 H   0  0  0  0  0  0  0  0  0  0  0  0
    4.6954    1.0221    8.2817 H   0  0  0  0  0  0  0  0  0  0  0  0
    6.2240    0.4154    7.6950 H   0  0  0  0  0  0  0  0  0  0  0  0
    3.5199    0.3119    6.2469 H   0  0  0  0  0  0  0  0  0  0  0  0
    4.9939    1.1260    5.7303 H   0  0  0  0  0  0  0  0  0  0  0  0
    6.1699   -1.0311    5.5641 H   0  0  0  0  0  0  0  0  0  0  0  0
    3.6351   -1.2959    4.1041 H   0  0  0  0  0  0  0  0  0  0  0  0
    6.1008   -2.8341    3.7215 H   0  0  0  0  0  0  0  0  0  0  0  0
    5.0988   -0.7706    3.5129 H   0  0  0  0  0  0  0  0  0  0  0  0
  1  2  1  0
  1 49  1  0
  1 50  1  0
  1 51  1  0
  2  3  1  0
  2  4  2  3
  3 52  1  0
  3 53  1  0
  3 54  1  0
  4  5  1  0
  4 55  1  0
  6  5  1  6
  5 56  1  0
  5 57  1  0
  6 13  1  0
  6 47  1  0
  6  7  1  0
  7  8  1  0
  8  9  1  0
  8 10  1  6
  8 11  1  0
  9 58  1  0
  9 59  1  0
  9 60  1  0
 10 61  1  0
 11 12  1  0
 11 13  1  0
 11 62  1  1
 12 63  1  0
 12 64  1  0
 12 65  1  0
 13 14  1  0
 13 66  1  6
 14 37  1  0
 14 46  1  0
 14 15  1  6
 15 16  1  0
 16 17  1  0
 16 47  1  0
 16 67  1  6
 17 18  1  0
 17 68  1  0
 17 69  1  0
 18 30  1  0
 18 19  2  0
 19 20  1  0
 19 37  1  0
 20 21  1  0
 20 70  1  0
 20 71  1  0
 21 29  1  0
 21 22  2  0
 22 23  1  0
 22 24  1  0
 23 72  1  0
 23 73  1  0
 23 74  1  0
 24 25  2  0
 24 26  1  0
 26 27  1  0
 27 28  1  0
 27 29  1  0
 27 75  1  6
 28 76  1  0
 28 77  1  0
 28 78  1  0
 29 30  1  0
 30 36  1  0
 30 31  1  0
 31 32  2  0
 31 79  1  0
 32 33  1  0
 32 80  1  0
 33 34  2  0
 33 35  1  0
 35 36  2  0
 35 81  1  0
 36 82  1  0
 37 38  1  0
 37 83  1  6
 38 46  1  0
 38 39  1  0
 38 84  1  1
 39 44  1  0
 39 40  1  0
 39 85  1  1
 40 41  1  0
 41 42  1  0
 41 86  1  0
 41 87  1  0
 42 43  1  0
 42 88  1  0
 42 89  1  0
 43 44  1  0
 43 90  1  0
 43 91  1  0
 44 45  1  0
 44 92  1  6
 45 46  1  0
 45 93  1  0
 45 95  1  0
 46 94  1  6
 47 48  2  0
M  CHG  1  45   1
M  END
>  <i_m_ct_stereo_status>  (40) 
1

>  <s_m_source_file>  (40) 
/var/tmp/pbs.5076255.sched01/tmpmzpp47sj/0ood7iq68.sdf

>  <i_m_source_file_index>  (40) 
21

>  <i_lp_mmshare_version>  (40) 
48012

>  <i_f3d_flags>  (40) 
0

>  <s_epik_input>  (40) 
W0NIM11DKFtDSDNdKT1bQ0hdW0NIMl1bQ0BdKFtDQEhdMVtDQEBdMjM0KShPW0NAQF0oW0NIM10pKFtPSF0pW0NASF0xW0NIM10pQyg9TylbQ0BIXShPMilbQ0gyXUM9NUM2KFtDSF09W0NIXUMoPU8pW0NIXT1bQ0hdNilON0MoPUMoW0NIM10pQyg9TylPW0NASF03W0NIM10pW0NIMl1DNVtDQEhdM1tDQEBIXThbQ0BASF05W0NAQEhdKFtOSF1bQ0BIXTQ4KVtDSDJdW0NIMl1bQ0gyXU85

>  <s_epik_cmdline>  (40) 
J2VwaWtfcHl0aG9uJywgJy1waHQnLCAnMi4wJywgJy1waCcsICc3LjAnLCAnLXRuJywgJzgnLCAnLW1hJywgJzIwMCcsICctaW1hZScsICc8aW5maWxlLm1hZT4nLCAnLW9tYWUnLCAnPG91dGZpbGUubWFlPic=

>  <r_epik_Ionization_Penalty>  (40) 
0.0483502

>  <r_epik_Ionization_Penalty_Charging>  (40) 
0.0483485

>  <r_epik_Ionization_Penalty_Neutral>  (40) 
1.65799e-06

>  <r_epik_State_Penalty>  (40) 
0.0412305

>  <r_epik_Charging_Adjusted_Penalty>  (40) 
0.089579

>  <i_epik_Tot_Q>  (40) 
1

>  <i_epik_Tot_abs_Q>  (40) 
1

>  <s_epik_Chemistry_Notes>  (40) 
This compound has an ester and may undergo hydrolysis at high or low pH. This compound contains an acetal/aminal-like group ( X-CH(R)-Y where X, Y are N, S, or O) that may be acid/base labile, releasing an aldehyde.

>  <s_lp_Force_Field>  (40) 
OPLS3e

>  <r_lp_Energy>  (40) 
90.2157

>  <b_lp_Chiralities_Consistent>  (40) 
1

>  <s_lp_Variant>  (40) 
11:0-1

>  <s_i_glide_gridfile>  (40) 
pfpi4k_grid

>  <i_i_glide_lignum>  (40) 
21

>  <i_i_glide_rotatable_bonds>  (40) 
3

>  <r_i_docking_score>  (40) 
-2.18189

>  <r_i_glide_ligand_efficiency>  (40) 
-0.045456

>  <r_i_glide_ligand_efficiency_sa>  (40) 
-0.165198

>  <r_i_glide_ligand_efficiency_ln>  (40) 
-0.447916

>  <r_i_glide_gscore>  (40) 
-2.18189

>  <r_i_glide_lipo>  (40) 
-0.189325

>  <r_i_glide_hbond>  (40) 
0

>  <r_i_glide_metal>  (40) 
-0

>  <r_i_glide_rewards>  (40) 
-0.0836892

>  <r_i_glide_evdw>  (40) 
-29.5924

>  <r_i_glide_ecoul>  (40) 
-2.39473

>  <r_i_glide_erotb>  (40) 
0.0977459

>  <r_i_glide_esite>  (40) 
-0.167788

>  <r_i_glide_emodel>  (40) 
-35.5068

>  <r_i_glide_energy>  (40) 
-31.9872

>  <r_i_glide_einternal>  (40) 
1.76636

>  <r_i_glide_intrahb_reward>  (40) 
-0

>  <i_i_glide_confnum>  (40) 
3

>  <i_i_glide_posenum>  (40) 
16

>  <r_i_glide_eff_state_penalty>  (40) 
0

>  <ligand_id>  (40) 
11

>  <original_smiles>  (40) 
CC(C)=CCC12OC(C)(O)C(C)C1C13OC(CC4=C(CC5=C(C)C(=O)OC(C)N5C45C=CC(=O)C=C5)C1C1C4OCCCC4NC13)C2=O

>  <smiles>  (40) 
[H]OC1(C([H])([H])[H])OC2(C([H])([H])C([H])=C(C([H])([H])[H])C([H])([H])[H])C(=O)C3([H])OC4(C([H])(C5=C(C6(C([H])=C([H])C(=O)C([H])=C6[H])N6C(=C(C([H])([H])[H])C(=O)OC6([H])C([H])([H])[H])C5([H])[H])C3([H])[H])C3([H])C5([H])OC([H])([H])C([H])([H])C([H])([H])C5([H])[N+]([H])([H])C34[H])C2([H])C1([H])C([H])([H])[H]

$$$$
11:0:2
     RDKit          3D

 95103  0  0  1  0  0  0  0  0999 V2000
    6.4478   -1.9018   -0.2463 C   0  0  0  0  0  0  0  0  0  0  0  0
    4.9623   -1.8069    0.0495 C   0  0  0  0  0  0  0  0  0  0  0  0
    4.4416   -0.3861    0.1070 C   0  0  0  0  0  0  0  0  0  0  0  0
    4.1342   -2.8549    0.2310 C   0  0  0  0  0  0  0  0  0  0  0  0
    4.4797   -4.3394    0.2036 C   0  0  0  0  0  0  0  0  0  0  0  0
    4.0770   -5.1406    1.4692 C   0  0  1  0  0  0  0  0  0  0  0  0
    4.4178   -6.5022    1.1972 O   0  0  0  0  0  0  0  0  0  0  0  0
    5.5315   -6.8976    1.9239 C   0  0  1  0  0  0  0  0  0  0  0  0
    5.4692   -8.4271    2.0632 C   0  0  0  0  0  0  0  0  0  0  0  0
    6.7254   -6.5407    1.2647 O   0  0  0  0  0  0  0  0  0  0  0  0
    5.3990   -6.1256    3.2483 C   0  0  1  0  0  0  0  0  0  0  0  0
    6.7402   -6.1211    4.0217 C   0  0  0  0  0  0  0  0  0  0  0  0
    4.8802   -4.7608    2.7451 C   0  0  2  0  0  0  0  0  0  0  0  0
    4.1727   -3.7592    3.7402 C   0  0  1  0  0  0  0  0  0  0  0  0
    3.0775   -3.1294    3.1028 O   0  0  0  0  0  0  0  0  0  0  0  0
    2.0433   -4.0378    2.6801 C   0  0  2  0  0  0  0  0  0  0  0  0
    1.1791   -4.6977    3.8011 C   0  0  0  0  0  0  0  0  0  0  0  0
    1.8736   -5.7453    4.6949 C   0  0  0  0  0  0  0  0  0  0  0  0
    3.0073   -5.4270    5.3568 C   0  0  0  0  0  0  0  0  0  0  0  0
    3.6912   -6.3838    6.3242 C   0  0  0  0  0  0  0  0  0  0  0  0
    3.1579   -7.8039    6.1590 C   0  0  0  0  0  0  0  0  0  0  0  0
    3.9135   -8.9262    6.1038 C   0  0  0  0  0  0  0  0  0  0  0  0
    5.4309   -8.9876    6.2142 C   0  0  0  0  0  0  0  0  0  0  0  0
    3.2579  -10.2431    5.8315 C   0  0  0  0  0  0  0  0  0  0  0  0
    3.8948  -11.2532    5.5439 O   0  0  0  0  0  0  0  0  0  0  0  0
    1.8779  -10.2305    5.8267 O   0  0  0  0  0  0  0  0  0  0  0  0
    1.1954   -9.1405    6.3977 C   0  0  1  0  0  0  0  0  0  0  0  0
    1.1769   -9.2473    7.9463 C   0  0  0  0  0  0  0  0  0  0  0  0
    1.7818   -7.8609    5.9993 N   0  0  0  0  0  0  0  0  0  0  0  0
    1.1644   -7.1093    4.8964 C   0  0  0  0  0  0  0  0  0  0  0  0
   -0.3231   -6.8741    5.1821 C   0  0  0  0  0  0  0  0  0  0  0  0
   -1.3372   -7.2989    4.4017 C   0  0  0  0  0  0  0  0  0  0  0  0
   -1.0854   -8.0533    3.1671 C   0  0  0  0  0  0  0  0  0  0  0  0
   -2.0194   -8.4238    2.4618 O   0  0  0  0  0  0  0  0  0  0  0  0
    0.3158   -8.3238    2.8068 C   0  0  0  0  0  0  0  0  0  0  0  0
    1.3262   -7.8935    3.5895 C   0  0  0  0  0  0  0  0  0  0  0  0
    3.6160   -4.0450    5.1534 C   0  0  1  0  0  0  0  0  0  0  0  0
    4.9096   -3.5169    5.8001 C   0  0  2  0  0  0  0  0  0  0  0  0
    4.8061   -2.4162    6.8444 C   0  0  1  0  0  0  0  0  0  0  0  0
    5.5680   -2.5425    8.0312 O   0  0  0  0  0  0  0  0  0  0  0  0
    5.2497   -1.4755    8.9344 C   0  0  0  0  0  0  0  0  0  0  0  0
    5.5235   -0.0794    8.3081 C   0  0  0  0  0  0  0  0  0  0  0  0
    4.9223    0.0754    6.8836 C   0  0  0  0  0  0  0  0  0  0  0  0
    5.3044   -1.1858    6.1051 C   0  0  2  0  0  0  0  0  0  0  0  0
    4.7976   -1.3778    4.7243 N   0  0  0  0  0  0  0  0  0  0  0  0
    5.1487   -2.8009    4.4548 C   0  0  2  0  0  0  0  0  0  0  0  0
    2.5687   -5.0917    1.7011 C   0  0  0  0  0  0  0  0  0  0  0  0
    1.7903   -5.8257    1.0879 O   0  0  0  0  0  0  0  0  0  0  0  0
    6.6235   -1.4574   -1.2236 H   0  0  0  0  0  0  0  0  0  0  0  0
    6.8402   -2.9152   -0.2762 H   0  0  0  0  0  0  0  0  0  0  0  0
    7.0168   -1.3471    0.5016 H   0  0  0  0  0  0  0  0  0  0  0  0
    4.6128    0.1032   -0.8506 H   0  0  0  0  0  0  0  0  0  0  0  0
    4.9574    0.1846    0.8807 H   0  0  0  0  0  0  0  0  0  0  0  0
    3.3685   -0.3479    0.3105 H   0  0  0  0  0  0  0  0  0  0  0  0
    3.0926   -2.6286    0.4067 H   0  0  0  0  0  0  0  0  0  0  0  0
    3.9695   -4.7608   -0.6619 H   0  0  0  0  0  0  0  0  0  0  0  0
    5.5333   -4.5044    0.0082 H   0  0  0  0  0  0  0  0  0  0  0  0
    5.4782   -8.8889    1.0744 H   0  0  0  0  0  0  0  0  0  0  0  0
    4.5507   -8.7314    2.5665 H   0  0  0  0  0  0  0  0  0  0  0  0
    6.3228   -8.7998    2.6307 H   0  0  0  0  0  0  0  0  0  0  0  0
    6.8179   -7.1057    0.5125 H   0  0  0  0  0  0  0  0  0  0  0  0
    4.6368   -6.6520    3.8128 H   0  0  0  0  0  0  0  0  0  0  0  0
    7.4776   -5.4729    3.5473 H   0  0  0  0  0  0  0  0  0  0  0  0
    7.1694   -7.1220    4.0730 H   0  0  0  0  0  0  0  0  0  0  0  0
    6.6340   -5.7975    5.0497 H   0  0  0  0  0  0  0  0  0  0  0  0
    5.7666   -4.2502    2.3645 H   0  0  0  0  0  0  0  0  0  0  0  0
    1.3918   -3.4028    2.0940 H   0  0  0  0  0  0  0  0  0  0  0  0
    0.7322   -3.9319    4.4364 H   0  0  0  0  0  0  0  0  0  0  0  0
    0.3350   -5.1780    3.3107 H   0  0  0  0  0  0  0  0  0  0  0  0
    4.7682   -6.3483    6.1895 H   0  0  0  0  0  0  0  0  0  0  0  0
    3.4915   -6.0636    7.3454 H   0  0  0  0  0  0  0  0  0  0  0  0
    5.7422   -9.8574    6.7995 H   0  0  0  0  0  0  0  0  0  0  0  0
    5.8636   -8.1172    6.7048 H   0  0  0  0  0  0  0  0  0  0  0  0
    5.8857   -9.0844    5.2253 H   0  0  0  0  0  0  0  0  0  0  0  0
    0.1715   -9.1903    6.0257 H   0  0  0  0  0  0  0  0  0  0  0  0
    0.5914   -8.4363    8.3704 H   0  0  0  0  0  0  0  0  0  0  0  0
    2.1729   -9.1994    8.3791 H   0  0  0  0  0  0  0  0  0  0  0  0
    0.7230  -10.1857    8.2575 H   0  0  0  0  0  0  0  0  0  0  0  0
   -0.5562   -6.3441    6.0983 H   0  0  0  0  0  0  0  0  0  0  0  0
   -2.3660   -7.1021    4.6512 H   0  0  0  0  0  0  0  0  0  0  0  0
    0.4992   -8.8712    1.8929 H   0  0  0  0  0  0  0  0  0  0  0  0
    2.3429   -8.1161    3.2875 H   0  0  0  0  0  0  0  0  0  0  0  0
    2.8299   -3.3262    5.3932 H   0  0  0  0  0  0  0  0  0  0  0  0
    5.6903   -4.2464    5.9872 H   0  0  0  0  0  0  0  0  0  0  0  0
    3.7559   -2.2735    7.1110 H   0  0  0  0  0  0  0  0  0  0  0  0
    4.2012   -1.5469    9.2351 H   0  0  0  0  0  0  0  0  0  0  0  0
    5.8406   -1.5970    9.8431 H   0  0  0  0  0  0  0  0  0  0  0  0
    5.1313    0.7018    8.9655 H   0  0  0  0  0  0  0  0  0  0  0  0
    6.6047    0.0747    8.2669 H   0  0  0  0  0  0  0  0  0  0  0  0
    3.8385    0.1912    6.9416 H   0  0  0  0  0  0  0  0  0  0  0  0
    5.3257    0.9764    6.4175 H   0  0  0  0  0  0  0  0  0  0  0  0
    6.3945   -1.2111    6.0526 H   0  0  0  0  0  0  0  0  0  0  0  0
    3.7929   -1.2628    4.6884 H   0  0  0  0  0  0  0  0  0  0  0  0
    6.1643   -2.8904    4.0941 H   0  0  0  0  0  0  0  0  0  0  0  0
    5.2521   -0.7594    4.0692 H   0  0  0  0  0  0  0  0  0  0  0  0
  1  2  1  0
  1 49  1  0
  1 50  1  0
  1 51  1  0
  2  3  1  0
  2  4  2  3
  3 52  1  0
  3 53  1  0
  3 54  1  0
  4  5  1  0
  4 55  1  0
  6  5  1  6
  5 56  1  0
  5 57  1  0
  6 13  1  0
  6 47  1  0
  6  7  1  0
  7  8  1  0
  8  9  1  0
  8 10  1  6
  8 11  1  0
  9 58  1  0
  9 59  1  0
  9 60  1  0
 10 61  1  0
 11 12  1  0
 11 13  1  0
 11 62  1  1
 12 63  1  0
 12 64  1  0
 12 65  1  0
 13 14  1  0
 13 66  1  6
 14 37  1  0
 14 46  1  0
 14 15  1  6
 15 16  1  0
 16 17  1  0
 16 47  1  0
 16 67  1  6
 17 18  1  0
 17 68  1  0
 17 69  1  0
 18 30  1  0
 18 19  2  0
 19 20  1  0
 19 37  1  0
 20 21  1  0
 20 70  1  0
 20 71  1  0
 21 29  1  0
 21 22  2  0
 22 23  1  0
 22 24  1  0
 23 72  1  0
 23 73  1  0
 23 74  1  0
 24 25  2  0
 24 26  1  0
 26 27  1  0
 27 28  1  0
 27 29  1  0
 27 75  1  6
 28 76  1  0
 28 77  1  0
 28 78  1  0
 29 30  1  0
 30 36  1  0
 30 31  1  0
 31 32  2  0
 31 79  1  0
 32 33  1  0
 32 80  1  0
 33 34  2  0
 33 35  1  0
 35 36  2  0
 35 81  1  0
 36 82  1  0
 37 38  1  0
 37 83  1  1
 38 46  1  0
 38 39  1  0
 38 84  1  1
 39 44  1  0
 39 40  1  0
 39 85  1  1
 40 41  1  0
 41 42  1  0
 41 86  1  0
 41 87  1  0
 42 43  1  0
 42 88  1  0
 42 89  1  0
 43 44  1  0
 43 90  1  0
 43 91  1  0
 44 45  1  0
 44 92  1  6
 45 46  1  0
 45 93  1  0
 45 95  1  0
 46 94  1  6
 47 48  2  0
M  CHG  1  45   1
M  END
>  <i_m_ct_stereo_status>  (41) 
1

>  <s_m_source_file>  (41) 
/var/tmp/pbs.5076255.sched01/tmpmzpp47sj/0ood7iq68.sdf

>  <i_m_source_file_index>  (41) 
21

>  <i_lp_mmshare_version>  (41) 
48012

>  <i_f3d_flags>  (41) 
0

>  <s_epik_input>  (41) 
W0NIM11DKFtDSDNdKT1bQ0hdW0NIMl1bQ0BdKFtDQEhdMVtDQEBdMjM0KShPW0NAQF0oW0NIM10pKFtPSF0pW0NASF0xW0NIM10pQyg9TylbQ0BIXShPMilbQ0gyXUM9NUM2KFtDSF09W0NIXUMoPU8pW0NIXT1bQ0hdNilON0MoPUMoW0NIM10pQyg9TylPW0NASF03W0NIM10pW0NIMl1DNVtDQEhdM1tDQEBIXThbQ0BASF05W0NAQEhdKFtOSF1bQ0BIXTQ4KVtDSDJdW0NIMl1bQ0gyXU85

>  <s_epik_cmdline>  (41) 
J2VwaWtfcHl0aG9uJywgJy1waHQnLCAnMi4wJywgJy1waCcsICc3LjAnLCAnLXRuJywgJzgnLCAnLW1hJywgJzIwMCcsICctaW1hZScsICc8aW5maWxlLm1hZT4nLCAnLW9tYWUnLCAnPG91dGZpbGUubWFlPic=

>  <r_epik_Ionization_Penalty>  (41) 
0.0483502

>  <r_epik_Ionization_Penalty_Charging>  (41) 
0.0483485

>  <r_epik_Ionization_Penalty_Neutral>  (41) 
1.65799e-06

>  <r_epik_State_Penalty>  (41) 
0.0412305

>  <r_epik_Charging_Adjusted_Penalty>  (41) 
0.089579

>  <i_epik_Tot_Q>  (41) 
1

>  <i_epik_Tot_abs_Q>  (41) 
1

>  <s_epik_Chemistry_Notes>  (41) 
This compound has an ester and may undergo hydrolysis at high or low pH. This compound contains an acetal/aminal-like group ( X-CH(R)-Y where X, Y are N, S, or O) that may be acid/base labile, releasing an aldehyde.

>  <s_lp_Force_Field>  (41) 
OPLS3e

>  <r_lp_Energy>  (41) 
90.2157

>  <b_lp_Chiralities_Consistent>  (41) 
1

>  <s_lp_Variant>  (41) 
11:0-1

>  <s_i_glide_gridfile>  (41) 
pfpi4k_grid

>  <i_i_glide_lignum>  (41) 
21

>  <i_i_glide_rotatable_bonds>  (41) 
3

>  <r_i_docking_score>  (41) 
-2.01877

>  <r_i_glide_ligand_efficiency>  (41) 
-0.0420577

>  <r_i_glide_ligand_efficiency_sa>  (41) 
-0.152848

>  <r_i_glide_ligand_efficiency_ln>  (41) 
-0.41443

>  <r_i_glide_gscore>  (41) 
-2.01877

>  <r_i_glide_lipo>  (41) 
-0.228038

>  <r_i_glide_hbond>  (41) 
-0.0659533

>  <r_i_glide_metal>  (41) 
-0

>  <r_i_glide_rewards>  (41) 
-0.0662762

>  <r_i_glide_evdw>  (41) 
-27.6452

>  <r_i_glide_ecoul>  (41) 
-1.24846

>  <r_i_glide_erotb>  (41) 
0.0977459

>  <r_i_glide_esite>  (41) 
-0.186719

>  <r_i_glide_emodel>  (41) 
-32.928

>  <r_i_glide_energy>  (41) 
-28.8937

>  <r_i_glide_einternal>  (41) 
0.0610732

>  <r_i_glide_intrahb_reward>  (41) 
-0

>  <i_i_glide_confnum>  (41) 
3

>  <i_i_glide_posenum>  (41) 
3

>  <r_i_glide_eff_state_penalty>  (41) 
0

>  <ligand_id>  (41) 
11

>  <original_smiles>  (41) 
CC(C)=CCC12OC(C)(O)C(C)C1C13OC(CC4=C(CC5=C(C)C(=O)OC(C)N5C45C=CC(=O)C=C5)C1C1C4OCCCC4NC13)C2=O

>  <smiles>  (41) 
[H]OC1(C([H])([H])[H])OC2(C([H])([H])C([H])=C(C([H])([H])[H])C([H])([H])[H])C(=O)C3([H])OC4(C([H])(C5=C(C6(C([H])=C([H])C(=O)C([H])=C6[H])N6C(=C(C([H])([H])[H])C(=O)OC6([H])C([H])([H])[H])C5([H])[H])C3([H])[H])C3([H])C5([H])OC([H])([H])C([H])([H])C([H])([H])C5([H])[N+]([H])([H])C34[H])C2([H])C1([H])C([H])([H])[H]

$$$$
11:1:0
     RDKit          3D

 94102  0  0  1  0  0  0  0  0999 V2000
    6.5491   -2.1466   -0.7284 C   0  0  0  0  0  0  0  0  0  0  0  0
    5.0813   -2.0786   -0.3566 C   0  0  0  0  0  0  0  0  0  0  0  0
    4.5098   -0.6734   -0.3614 C   0  0  0  0  0  0  0  0  0  0  0  0
    4.2978   -3.1404   -0.0774 C   0  0  0  0  0  0  0  0  0  0  0  0
    4.6873   -4.6153   -0.0392 C   0  0  0  0  0  0  0  0  0  0  0  0
    4.2711   -5.3940    1.2354 C   0  0  1  0  0  0  0  0  0  0  0  0
    4.7030   -6.7498    1.0532 O   0  0  0  0  0  0  0  0  0  0  0  0
    5.7673   -7.0512    1.8907 C   0  0  1  0  0  0  0  0  0  0  0  0
    5.7544   -8.5713    2.1230 C   0  0  0  0  0  0  0  0  0  0  0  0
    7.0135   -6.6950    1.2755 O   0  0  0  0  0  0  0  0  0  0  0  0
    5.5236   -6.2091    3.1474 C   0  0  1  0  0  0  0  0  0  0  0  0
    6.8149   -6.0912    4.0037 C   0  0  0  0  0  0  0  0  0  0  0  0
    4.9874   -4.9045    2.5292 C   0  0  2  0  0  0  0  0  0  0  0  0
    4.1810   -3.9050    3.4051 C   0  0  1  0  0  0  0  0  0  0  0  0
    3.1031   -3.3524    2.6644 O   0  0  0  0  0  0  0  0  0  0  0  0
    2.1179   -4.3190    2.2583 C   0  0  2  0  0  0  0  0  0  0  0  0
    1.2023   -4.9039    3.3689 C   0  0  0  0  0  0  0  0  0  0  0  0
    1.8677   -5.8610    4.3686 C   0  0  0  0  0  0  0  0  0  0  0  0
    2.9635   -5.4654    5.0700 C   0  0  0  0  0  0  0  0  0  0  0  0
    3.6216   -6.3258    6.1295 C   0  0  0  0  0  0  0  0  0  0  0  0
    3.1301   -7.7620    6.0358 C   0  0  0  0  0  0  0  0  0  0  0  0
    3.9269   -8.8639    6.0982 C   0  0  0  0  0  0  0  0  0  0  0  0
    5.4353   -8.8696    6.2710 C   0  0  0  0  0  0  0  0  0  0  0  0
    3.2925  -10.2221    5.8929 C   0  0  0  0  0  0  0  0  0  0  0  0
    3.9918  -11.2213    5.6999 O   0  0  0  0  0  0  0  0  0  0  0  0
    1.9368  -10.2317    5.8183 O   0  0  0  0  0  0  0  0  0  0  0  0
    1.1911   -9.1394    6.2809 C   0  0  1  0  0  0  0  0  0  0  0  0
    1.1119   -9.1246    7.8333 C   0  0  0  0  0  0  0  0  0  0  0  0
    1.7717   -7.8791    5.8139 N   0  0  0  0  0  0  0  0  0  0  0  0
    1.1872   -7.2215    4.6424 C   0  0  0  0  0  0  0  0  0  0  0  0
   -0.3265   -7.0126    4.8247 C   0  0  0  0  0  0  0  0  0  0  0  0
   -1.2956   -7.5216    4.0461 C   0  0  0  0  0  0  0  0  0  0  0  0
   -0.9471   -8.3562    2.8819 C   0  0  0  0  0  0  0  0  0  0  0  0
   -1.8426   -8.8139    2.1594 O   0  0  0  0  0  0  0  0  0  0  0  0
    0.4712   -8.6122    2.5953 C   0  0  0  0  0  0  0  0  0  0  0  0
    1.4253   -8.0905    3.3999 C   0  0  0  0  0  0  0  0  0  0  0  0
    3.5347   -4.0777    4.7938 C   0  0  1  0  0  0  0  0  0  0  0  0
    4.7534   -3.4342    5.4876 C   0  0  2  0  0  0  0  0  0  0  0  0
    4.5807   -2.2289    6.3750 C   0  0  1  0  0  0  0  0  0  0  0  0
    5.2569   -2.1981    7.6156 O   0  0  0  0  0  0  0  0  0  0  0  0
    4.9083   -1.0208    8.3466 C   0  0  0  0  0  0  0  0  0  0  0  0
    5.2361    0.2827    7.5668 C   0  0  0  0  0  0  0  0  0  0  0  0
    4.6904    0.2660    6.1176 C   0  0  0  0  0  0  0  0  0  0  0  0
    5.1222   -1.0733    5.5340 C   0  0  2  0  0  0  0  0  0  0  0  0
    4.7076   -1.3797    4.1712 N   0  0  0  0  0  0  0  0  0  0  0  0
    5.0123   -2.8120    4.0995 C   0  0  2  0  0  0  0  0  0  0  0  0
    2.7564   -5.4185    1.4052 C   0  0  0  0  0  0  0  0  0  0  0  0
    2.0311   -6.2469    0.8336 O   0  0  0  0  0  0  0  0  0  0  0  0
    6.6722   -1.8560   -1.7648 H   0  0  0  0  0  0  0  0  0  0  0  0
    6.9858   -3.1392   -0.6185 H   0  0  0  0  0  0  0  0  0  0  0  0
    7.1206   -1.4718   -0.0895 H   0  0  0  0  0  0  0  0  0  0  0  0
    4.6065   -0.2469   -1.3567 H   0  0  0  0  0  0  0  0  0  0  0  0
    5.0390   -0.0344    0.3473 H   0  0  0  0  0  0  0  0  0  0  0  0
    3.4484   -0.6643   -0.0961 H   0  0  0  0  0  0  0  0  0  0  0  0
    3.2604   -2.9287    0.1405 H   0  0  0  0  0  0  0  0  0  0  0  0
    4.2149   -5.0752   -0.9067 H   0  0  0  0  0  0  0  0  0  0  0  0
    5.7520   -4.7563   -0.1941 H   0  0  0  0  0  0  0  0  0  0  0  0
    5.8578   -9.0952    1.1634 H   0  0  0  0  0  0  0  0  0  0  0  0
    4.8156   -8.8780    2.5807 H   0  0  0  0  0  0  0  0  0  0  0  0
    6.5820   -8.8731    2.7710 H   0  0  0  0  0  0  0  0  0  0  0  0
    7.6977   -7.0234    1.8123 H   0  0  0  0  0  0  0  0  0  0  0  0
    4.7501   -6.7291    3.6994 H   0  0  0  0  0  0  0  0  0  0  0  0
    7.5631   -5.4629    3.5278 H   0  0  0  0  0  0  0  0  0  0  0  0
    7.2609   -7.0662    4.1941 H   0  0  0  0  0  0  0  0  0  0  0  0
    6.6203   -5.6667    4.9793 H   0  0  0  0  0  0  0  0  0  0  0  0
    5.8767   -4.3822    2.1685 H   0  0  0  0  0  0  0  0  0  0  0  0
    1.4931   -3.7398    1.6080 H   0  0  0  0  0  0  0  0  0  0  0  0
    0.7109   -4.0975    3.9036 H   0  0  0  0  0  0  0  0  0  0  0  0
    0.4066   -5.4432    2.8574 H   0  0  0  0  0  0  0  0  0  0  0  0
    4.7007   -6.2597    6.0369 H   0  0  0  0  0  0  0  0  0  0  0  0
    3.3655   -5.9349    7.1159 H   0  0  0  0  0  0  0  0  0  0  0  0
    5.7385   -9.6862    6.9422 H   0  0  0  0  0  0  0  0  0  0  0  0
    5.8164   -7.9537    6.7164 H   0  0  0  0  0  0  0  0  0  0  0  0
    5.9372   -9.0278    5.3212 H   0  0  0  0  0  0  0  0  0  0  0  0
    0.1960   -9.2378    5.8649 H   0  0  0  0  0  0  0  0  0  0  0  0
    0.4828   -8.2998    8.1632 H   0  0  0  0  0  0  0  0  0  0  0  0
    2.0802   -9.0247    8.3030 H   0  0  0  0  0  0  0  0  0  0  0  0
    0.6552  -10.0523    8.1820 H   0  0  0  0  0  0  0  0  0  0  0  0
   -0.6205   -6.4206    5.6920 H   0  0  0  0  0  0  0  0  0  0  0  0
   -2.3379   -7.3619    4.2336 H   0  0  0  0  0  0  0  0  0  0  0  0
    0.7139   -9.2149    1.7437 H   0  0  0  0  0  0  0  0  0  0  0  0
    2.4617   -8.3084    3.1591 H   0  0  0  0  0  0  0  0  0  0  0  0
    2.7206   -3.3754    4.9243 H   0  0  0  0  0  0  0  0  0  0  0  0
    5.5494   -4.1159    5.7769 H   0  0  0  0  0  0  0  0  0  0  0  0
    3.5105   -2.0742    6.5545 H   0  0  0  0  0  0  0  0  0  0  0  0
    3.8469   -1.0483    8.5995 H   0  0  0  0  0  0  0  0  0  0  0  0
    5.4516   -1.0264    9.2976 H   0  0  0  0  0  0  0  0  0  0  0  0
    4.8375    1.1511    8.1046 H   0  0  0  0  0  0  0  0  0  0  0  0
    6.3155    0.4124    7.5412 H   0  0  0  0  0  0  0  0  0  0  0  0
    3.6088    0.3585    6.1102 H   0  0  0  0  0  0  0  0  0  0  0  0
    5.0985    1.0999    5.5497 H   0  0  0  0  0  0  0  0  0  0  0  0
    6.2153   -1.1083    5.5725 H   0  0  0  0  0  0  0  0  0  0  0  0
    5.2576   -0.8621    3.4877 H   0  0  0  0  0  0  0  0  0  0  0  0
    6.0686   -2.9365    3.8397 H   0  0  0  0  0  0  0  0  0  0  0  0
  1  2  1  0
  1 49  1  0
  1 50  1  0
  1 51  1  0
  2  3  1  0
  2  4  2  3
  3 52  1  0
  3 53  1  0
  3 54  1  0
  4  5  1  0
  4 55  1  0
  6  5  1  6
  5 56  1  0
  5 57  1  0
  6 13  1  0
  6 47  1  0
  6  7  1  0
  7  8  1  0
  8  9  1  0
  8 10  1  6
  8 11  1  0
  9 58  1  0
  9 59  1  0
  9 60  1  0
 10 61  1  0
 11 12  1  0
 11 13  1  0
 11 62  1  1
 12 63  1  0
 12 64  1  0
 12 65  1  0
 13 14  1  0
 13 66  1  6
 14 37  1  0
 14 46  1  0
 14 15  1  6
 15 16  1  0
 16 17  1  0
 16 47  1  0
 16 67  1  6
 17 18  1  0
 17 68  1  0
 17 69  1  0
 18 30  1  0
 18 19  2  0
 19 20  1  0
 19 37  1  0
 20 21  1  0
 20 70  1  0
 20 71  1  0
 21 29  1  0
 21 22  2  0
 22 23  1  0
 22 24  1  0
 23 72  1  0
 23 73  1  0
 23 74  1  0
 24 25  2  0
 24 26  1  0
 26 27  1  0
 27 28  1  0
 27 29  1  0
 27 75  1  6
 28 76  1  0
 28 77  1  0
 28 78  1  0
 29 30  1  0
 30 36  1  0
 30 31  1  0
 31 32  2  0
 31 79  1  0
 32 33  1  0
 32 80  1  0
 33 34  2  0
 33 35  1  0
 35 36  2  0
 35 81  1  0
 36 82  1  0
 37 38  1  0
 37 83  1  6
 38 46  1  0
 38 39  1  0
 38 84  1  1
 39 44  1  0
 39 40  1  0
 39 85  1  1
 40 41  1  0
 41 42  1  0
 41 86  1  0
 41 87  1  0
 42 43  1  0
 42 88  1  0
 42 89  1  0
 43 44  1  0
 43 90  1  0
 43 91  1  0
 44 45  1  0
 44 92  1  6
 45 46  1  0
 45 93  1  0
 46 94  1  6
 47 48  2  0
M  END
>  <i_m_ct_stereo_status>  (42) 
1

>  <s_m_source_file>  (42) 
/var/tmp/pbs.5076255.sched01/tmpmzpp47sj/0ood7iq68.sdf

>  <i_m_source_file_index>  (42) 
22

>  <i_lp_mmshare_version>  (42) 
48012

>  <i_f3d_flags>  (42) 
0

>  <s_epik_input>  (42) 
W0NIM11DKFtDSDNdKT1bQ0hdW0NIMl1bQ0BdKFtDQEhdMVtDQEBdMjM0KShPW0NAQF0oW0NIM10pKFtPSF0pW0NASF0xW0NIM10pQyg9TylbQ0BIXShPMilbQ0gyXUM9NUM2KFtDSF09W0NIXUMoPU8pW0NIXT1bQ0hdNilON0MoPUMoW0NIM10pQyg9TylPW0NASF03W0NIM10pW0NIMl1DNVtDQEhdM1tDQEBIXThbQ0BASF05W0NAQEhdKFtOSF1bQ0BIXTQ4KVtDSDJdW0NIMl1bQ0gyXU85

>  <s_epik_cmdline>  (42) 
J2VwaWtfcHl0aG9uJywgJy1waHQnLCAnMi4wJywgJy1waCcsICc3LjAnLCAnLXRuJywgJzgnLCAnLW1hJywgJzIwMCcsICctaW1hZScsICc8aW5maWxlLm1hZT4nLCAnLW9tYWUnLCAnPG91dGZpbGUubWFlPic=

>  <r_epik_Ionization_Penalty>  (42) 
1.50872

>  <r_epik_Ionization_Penalty_Charging>  (42) 
0

>  <r_epik_Ionization_Penalty_Neutral>  (42) 
1.50872

>  <r_epik_State_Penalty>  (42) 
1.59956

>  <r_epik_Charging_Adjusted_Penalty>  (42) 
1.59956

>  <i_epik_Tot_Q>  (42) 
0

>  <i_epik_Tot_abs_Q>  (42) 
0

>  <s_epik_Chemistry_Notes>  (42) 
This compound has an ester and may undergo hydrolysis at high or low pH. This compound contains an acetal/aminal-like group ( X-CH(R)-Y where X, Y are N, S, or O) that may be acid/base labile, releasing an aldehyde.

>  <s_lp_Force_Field>  (42) 
OPLS3e

>  <r_lp_Energy>  (42) 
90.8599

>  <b_lp_Chiralities_Consistent>  (42) 
1

>  <s_lp_Variant>  (42) 
11:0-2

>  <s_i_glide_gridfile>  (42) 
pfpi4k_grid

>  <i_i_glide_lignum>  (42) 
22

>  <i_i_glide_rotatable_bonds>  (42) 
3

>  <r_i_docking_score>  (42) 
-2.02834

>  <r_i_glide_ligand_efficiency>  (42) 
-0.0422572

>  <r_i_glide_ligand_efficiency_sa>  (42) 
-0.153573

>  <r_i_glide_ligand_efficiency_ln>  (42) 
-0.416395

>  <r_i_glide_gscore>  (42) 
-2.02834

>  <r_i_glide_lipo>  (42) 
-0.192406

>  <r_i_glide_hbond>  (42) 
0

>  <r_i_glide_metal>  (42) 
-0

>  <r_i_glide_rewards>  (42) 
-0.0781208

>  <r_i_glide_evdw>  (42) 
-31.0902

>  <r_i_glide_ecoul>  (42) 
-0.871045

>  <r_i_glide_erotb>  (42) 
0.0980255

>  <r_i_glide_esite>  (42) 
-0.170675

>  <r_i_glide_emodel>  (42) 
-34.1308

>  <r_i_glide_energy>  (42) 
-31.9613

>  <r_i_glide_einternal>  (42) 
2.17295

>  <r_i_glide_intrahb_reward>  (42) 
-0

>  <i_i_glide_confnum>  (42) 
2

>  <i_i_glide_posenum>  (42) 
17

>  <r_i_glide_eff_state_penalty>  (42) 
0

>  <ligand_id>  (42) 
11

>  <original_smiles>  (42) 
CC(C)=CCC12OC(C)(O)C(C)C1C13OC(CC4=C(CC5=C(C)C(=O)OC(C)N5C45C=CC(=O)C=C5)C1C1C4OCCCC4NC13)C2=O

>  <smiles>  (42) 
[H]OC1(C([H])([H])[H])OC2(C([H])([H])C([H])=C(C([H])([H])[H])C([H])([H])[H])C(=O)C3([H])OC4(C([H])(C5=C(C6(C([H])=C([H])C(=O)C([H])=C6[H])N6C(=C(C([H])([H])[H])C(=O)OC6([H])C([H])([H])[H])C5([H])[H])C3([H])[H])C3([H])C5([H])OC([H])([H])C([H])([H])C([H])([H])C5([H])N([H])C34[H])C2([H])C1([H])C([H])([H])[H]

$$$$
11:1:1
     RDKit          3D

 94102  0  0  1  0  0  0  0  0999 V2000
    6.5913   -2.1353   -0.7066 C   0  0  0  0  0  0  0  0  0  0  0  0
    5.1324   -2.0723   -0.3010 C   0  0  0  0  0  0  0  0  0  0  0  0
    4.5502   -0.6692   -0.3112 C   0  0  0  0  0  0  0  0  0  0  0  0
    4.3637   -3.1367    0.0087 C   0  0  0  0  0  0  0  0  0  0  0  0
    4.7642   -4.6089    0.0590 C   0  0  0  0  0  0  0  0  0  0  0  0
    4.3295   -5.3885    1.3266 C   0  0  1  0  0  0  0  0  0  0  0  0
    4.7623   -6.7455    1.1486 O   0  0  0  0  0  0  0  0  0  0  0  0
    5.8143   -7.0466    1.9976 C   0  0  1  0  0  0  0  0  0  0  0  0
    5.8026   -8.5662    2.2327 C   0  0  0  0  0  0  0  0  0  0  0  0
    7.0627   -6.6914    1.3857 O   0  0  0  0  0  0  0  0  0  0  0  0
    5.5542   -6.2048    3.2541 C   0  0  1  0  0  0  0  0  0  0  0  0
    6.8322   -6.0919    4.1307 C   0  0  0  0  0  0  0  0  0  0  0  0
    5.0266   -4.9007    2.6314 C   0  0  2  0  0  0  0  0  0  0  0  0
    4.2081   -3.9036    3.4966 C   0  0  1  0  0  0  0  0  0  0  0  0
    3.1400   -3.3505    2.7409 O   0  0  0  0  0  0  0  0  0  0  0  0
    2.1606   -4.3168    2.3169 C   0  0  2  0  0  0  0  0  0  0  0  0
    1.2308   -4.9009    3.4164 C   0  0  0  0  0  0  0  0  0  0  0  0
    1.8824   -5.8575    4.4237 C   0  0  0  0  0  0  0  0  0  0  0  0
    2.9673   -5.4638    5.1426 C   0  0  0  0  0  0  0  0  0  0  0  0
    3.6114   -6.3241    6.2101 C   0  0  0  0  0  0  0  0  0  0  0  0
    3.1196   -7.7591    6.1098 C   0  0  0  0  0  0  0  0  0  0  0  0
    3.9147   -8.8604    6.1826 C   0  0  0  0  0  0  0  0  0  0  0  0
    5.4212   -8.8710    6.3757 C   0  0  0  0  0  0  0  0  0  0  0  0
    3.2802  -10.2168    5.9640 C   0  0  0  0  0  0  0  0  0  0  0  0
    3.9801  -11.2176    5.7816 O   0  0  0  0  0  0  0  0  0  0  0  0
    1.9280  -10.2126    5.8589 O   0  0  0  0  0  0  0  0  0  0  0  0
    1.1760   -9.1328    6.3233 C   0  0  1  0  0  0  0  0  0  0  0  0
    1.0774   -9.1263    7.8743 C   0  0  0  0  0  0  0  0  0  0  0  0
    1.7634   -7.8723    5.8689 N   0  0  0  0  0  0  0  0  0  0  0  0
    1.1978   -7.2175    4.6884 C   0  0  0  0  0  0  0  0  0  0  0  0
   -0.3176   -7.0075    4.8482 C   0  0  0  0  0  0  0  0  0  0  0  0
   -1.2771   -7.5166    4.0550 C   0  0  0  0  0  0  0  0  0  0  0  0
   -0.9102   -8.3488    2.8960 C   0  0  0  0  0  0  0  0  0  0  0  0
   -1.7980   -8.8040    2.1567 O   0  0  0  0  0  0  0  0  0  0  0  0
    0.5101   -8.6068    2.6288 C   0  0  0  0  0  0  0  0  0  0  0  0
    1.4542   -8.0860    3.4486 C   0  0  0  0  0  0  0  0  0  0  0  0
    3.5425   -4.0762    4.8761 C   0  0  1  0  0  0  0  0  0  0  0  0
    4.7519   -3.4364    5.5894 C   0  0  2  0  0  0  0  0  0  0  0  0
    4.5682   -2.2329    6.4762 C   0  0  1  0  0  0  0  0  0  0  0  0
    5.2268   -2.2037    7.7266 O   0  0  0  0  0  0  0  0  0  0  0  0
    4.8692   -1.0266    8.4538 C   0  0  0  0  0  0  0  0  0  0  0  0
    5.2093    0.2772    7.6803 C   0  0  0  0  0  0  0  0  0  0  0  0
    4.6837    0.2630    6.2235 C   0  0  0  0  0  0  0  0  0  0  0  0
    5.1235   -1.0768    5.6444 C   0  0  2  0  0  0  0  0  0  0  0  0
    4.7271   -1.3805    4.2757 N   0  0  0  0  0  0  0  0  0  0  0  0
    5.0309   -2.8129    4.2060 C   0  0  2  0  0  0  0  0  0  0  0  0
    2.8132   -5.4143    1.4716 C   0  0  0  0  0  0  0  0  0  0  0  0
    2.1001   -6.2395    0.8814 O   0  0  0  0  0  0  0  0  0  0  0  0
    6.6877   -1.8566   -1.7491 H   0  0  0  0  0  0  0  0  0  0  0  0
    7.0370   -3.1242   -0.5968 H   0  0  0  0  0  0  0  0  0  0  0  0
    7.1736   -1.4503   -0.0885 H   0  0  0  0  0  0  0  0  0  0  0  0
    4.6147   -0.2589   -1.3150 H   0  0  0  0  0  0  0  0  0  0  0  0
    5.0915   -0.0175    0.3753 H   0  0  0  0  0  0  0  0  0  0  0  0
    3.4955   -0.6633   -0.0206 H   0  0  0  0  0  0  0  0  0  0  0  0
    3.3303   -2.9269    0.2427 H   0  0  0  0  0  0  0  0  0  0  0  0
    4.3135   -5.0796   -0.8144 H   0  0  0  0  0  0  0  0  0  0  0  0
    5.8339   -4.7386   -0.0710 H   0  0  0  0  0  0  0  0  0  0  0  0
    5.9153   -9.0957    1.2767 H   0  0  0  0  0  0  0  0  0  0  0  0
    4.8590   -8.8725    2.6790 H   0  0  0  0  0  0  0  0  0  0  0  0
    6.6221   -8.8665    2.8920 H   0  0  0  0  0  0  0  0  0  0  0  0
    7.2758   -7.3497    0.7745 H   0  0  0  0  0  0  0  0  0  0  0  0
    4.7734   -6.7273    3.7933 H   0  0  0  0  0  0  0  0  0  0  0  0
    7.5893   -5.4676    3.6631 H   0  0  0  0  0  0  0  0  0  0  0  0
    7.2752   -7.0685    4.3214 H   0  0  0  0  0  0  0  0  0  0  0  0
    6.6265   -5.6695    5.1046 H   0  0  0  0  0  0  0  0  0  0  0  0
    5.9234   -4.3789    2.2861 H   0  0  0  0  0  0  0  0  0  0  0  0
    1.5432   -3.7385    1.6574 H   0  0  0  0  0  0  0  0  0  0  0  0
    0.7338   -4.0948    3.9467 H   0  0  0  0  0  0  0  0  0  0  0  0
    0.4414   -5.4371    2.8923 H   0  0  0  0  0  0  0  0  0  0  0  0
    4.6919   -6.2621    6.1325 H   0  0  0  0  0  0  0  0  0  0  0  0
    3.3415   -5.9362    7.1939 H   0  0  0  0  0  0  0  0  0  0  0  0
    5.7138   -9.6899    7.0491 H   0  0  0  0  0  0  0  0  0  0  0  0
    5.7979   -7.9571    6.8275 H   0  0  0  0  0  0  0  0  0  0  0  0
    5.9340   -9.0292    5.4328 H   0  0  0  0  0  0  0  0  0  0  0  0
    0.1870   -9.2306    5.8930 H   0  0  0  0  0  0  0  0  0  0  0  0
    0.4426   -8.3039    8.1993 H   0  0  0  0  0  0  0  0  0  0  0  0
    2.0388   -9.0263    8.3566 H   0  0  0  0  0  0  0  0  0  0  0  0
    0.6191  -10.0564    8.2132 H   0  0  0  0  0  0  0  0  0  0  0  0
   -0.6230   -6.4168    5.7123 H   0  0  0  0  0  0  0  0  0  0  0  0
   -2.3208   -7.3574    4.2298 H   0  0  0  0  0  0  0  0  0  0  0  0
    0.7634   -9.2095    1.7806 H   0  0  0  0  0  0  0  0  0  0  0  0
    2.4929   -8.3049    3.2224 H   0  0  0  0  0  0  0  0  0  0  0  0
    2.7275   -3.3747    4.9966 H   0  0  0  0  0  0  0  0  0  0  0  0
    5.5440   -4.1194    5.8873 H   0  0  0  0  0  0  0  0  0  0  0  0
    3.4959   -2.0761    6.6412 H   0  0  0  0  0  0  0  0  0  0  0  0
    3.8043   -1.0537    8.6913 H   0  0  0  0  0  0  0  0  0  0  0  0
    5.3987   -1.0336    9.4128 H   0  0  0  0  0  0  0  0  0  0  0  0
    4.8036    1.1456    8.2136 H   0  0  0  0  0  0  0  0  0  0  0  0
    6.2887    0.4063    7.6697 H   0  0  0  0  0  0  0  0  0  0  0  0
    3.6033    0.3566    6.2006 H   0  0  0  0  0  0  0  0  0  0  0  0
    5.1008    1.0969    5.6628 H   0  0  0  0  0  0  0  0  0  0  0  0
    6.2142   -1.1144    5.6942 H   0  0  0  0  0  0  0  0  0  0  0  0
    5.2890   -0.8628    3.6019 H   0  0  0  0  0  0  0  0  0  0  0  0
    6.0908   -2.9407    3.9632 H   0  0  0  0  0  0  0  0  0  0  0  0
  1  2  1  0
  1 49  1  0
  1 50  1  0
  1 51  1  0
  2  3  1  0
  2  4  2  3
  3 52  1  0
  3 53  1  0
  3 54  1  0
  4  5  1  0
  4 55  1  0
  6  5  1  6
  5 56  1  0
  5 57  1  0
  6 13  1  0
  6 47  1  0
  6  7  1  0
  7  8  1  0
  8  9  1  0
  8 10  1  6
  8 11  1  0
  9 58  1  0
  9 59  1  0
  9 60  1  0
 10 61  1  0
 11 12  1  0
 11 13  1  0
 11 62  1  1
 12 63  1  0
 12 64  1  0
 12 65  1  0
 13 14  1  0
 13 66  1  6
 14 37  1  0
 14 46  1  0
 14 15  1  6
 15 16  1  0
 16 17  1  0
 16 47  1  0
 16 67  1  6
 17 18  1  0
 17 68  1  0
 17 69  1  0
 18 30  1  0
 18 19  2  0
 19 20  1  0
 19 37  1  0
 20 21  1  0
 20 70  1  0
 20 71  1  0
 21 29  1  0
 21 22  2  0
 22 23  1  0
 22 24  1  0
 23 72  1  0
 23 73  1  0
 23 74  1  0
 24 25  2  0
 24 26  1  0
 26 27  1  0
 27 28  1  0
 27 29  1  0
 27 75  1  6
 28 76  1  0
 28 77  1  0
 28 78  1  0
 29 30  1  0
 30 36  1  0
 30 31  1  0
 31 32  2  0
 31 79  1  0
 32 33  1  0
 32 80  1  0
 33 34  2  0
 33 35  1  0
 35 36  2  0
 35 81  1  0
 36 82  1  0
 37 38  1  0
 37 83  1  6
 38 46  1  0
 38 39  1  0
 38 84  1  1
 39 44  1  0
 39 40  1  0
 39 85  1  1
 40 41  1  0
 41 42  1  0
 41 86  1  0
 41 87  1  0
 42 43  1  0
 42 88  1  0
 42 89  1  0
 43 44  1  0
 43 90  1  0
 43 91  1  0
 44 45  1  0
 44 92  1  6
 45 46  1  0
 45 93  1  0
 46 94  1  6
 47 48  2  0
M  END
>  <i_m_ct_stereo_status>  (43) 
1

>  <s_m_source_file>  (43) 
/var/tmp/pbs.5076255.sched01/tmpmzpp47sj/0ood7iq68.sdf

>  <i_m_source_file_index>  (43) 
22

>  <i_lp_mmshare_version>  (43) 
48012

>  <i_f3d_flags>  (43) 
0

>  <s_epik_input>  (43) 
W0NIM11DKFtDSDNdKT1bQ0hdW0NIMl1bQ0BdKFtDQEhdMVtDQEBdMjM0KShPW0NAQF0oW0NIM10pKFtPSF0pW0NASF0xW0NIM10pQyg9TylbQ0BIXShPMilbQ0gyXUM9NUM2KFtDSF09W0NIXUMoPU8pW0NIXT1bQ0hdNilON0MoPUMoW0NIM10pQyg9TylPW0NASF03W0NIM10pW0NIMl1DNVtDQEhdM1tDQEBIXThbQ0BASF05W0NAQEhdKFtOSF1bQ0BIXTQ4KVtDSDJdW0NIMl1bQ0gyXU85

>  <s_epik_cmdline>  (43) 
J2VwaWtfcHl0aG9uJywgJy1waHQnLCAnMi4wJywgJy1waCcsICc3LjAnLCAnLXRuJywgJzgnLCAnLW1hJywgJzIwMCcsICctaW1hZScsICc8aW5maWxlLm1hZT4nLCAnLW9tYWUnLCAnPG91dGZpbGUubWFlPic=

>  <r_epik_Ionization_Penalty>  (43) 
1.50872

>  <r_epik_Ionization_Penalty_Charging>  (43) 
0

>  <r_epik_Ionization_Penalty_Neutral>  (43) 
1.50872

>  <r_epik_State_Penalty>  (43) 
1.59956

>  <r_epik_Charging_Adjusted_Penalty>  (43) 
1.59956

>  <i_epik_Tot_Q>  (43) 
0

>  <i_epik_Tot_abs_Q>  (43) 
0

>  <s_epik_Chemistry_Notes>  (43) 
This compound has an ester and may undergo hydrolysis at high or low pH. This compound contains an acetal/aminal-like group ( X-CH(R)-Y where X, Y are N, S, or O) that may be acid/base labile, releasing an aldehyde.

>  <s_lp_Force_Field>  (43) 
OPLS3e

>  <r_lp_Energy>  (43) 
90.8599

>  <b_lp_Chiralities_Consistent>  (43) 
1

>  <s_lp_Variant>  (43) 
11:0-2

>  <s_i_glide_gridfile>  (43) 
pfpi4k_grid

>  <i_i_glide_lignum>  (43) 
22

>  <i_i_glide_rotatable_bonds>  (43) 
3

>  <r_i_docking_score>  (43) 
-1.82168

>  <r_i_glide_ligand_efficiency>  (43) 
-0.0379516

>  <r_i_glide_ligand_efficiency_sa>  (43) 
-0.137925

>  <r_i_glide_ligand_efficiency_ln>  (43) 
-0.373969

>  <r_i_glide_gscore>  (43) 
-1.82168

>  <r_i_glide_lipo>  (43) 
-0.191083

>  <r_i_glide_hbond>  (43) 
0

>  <r_i_glide_metal>  (43) 
-0

>  <r_i_glide_rewards>  (43) 
-0.066857

>  <r_i_glide_evdw>  (43) 
-31.1413

>  <r_i_glide_ecoul>  (43) 
0.459699

>  <r_i_glide_erotb>  (43) 
0.0980255

>  <r_i_glide_esite>  (43) 
-0.173651

>  <r_i_glide_emodel>  (43) 
-33.0937

>  <r_i_glide_energy>  (43) 
-30.6816

>  <r_i_glide_einternal>  (43) 
0.757013

>  <r_i_glide_intrahb_reward>  (43) 
-0

>  <i_i_glide_confnum>  (43) 
2

>  <i_i_glide_posenum>  (43) 
2

>  <r_i_glide_eff_state_penalty>  (43) 
0

>  <ligand_id>  (43) 
11

>  <original_smiles>  (43) 
CC(C)=CCC12OC(C)(O)C(C)C1C13OC(CC4=C(CC5=C(C)C(=O)OC(C)N5C45C=CC(=O)C=C5)C1C1C4OCCCC4NC13)C2=O

>  <smiles>  (43) 
[H]OC1(C([H])([H])[H])OC2(C([H])([H])C([H])=C(C([H])([H])[H])C([H])([H])[H])C(=O)C3([H])OC4(C([H])(C5=C(C6(C([H])=C([H])C(=O)C([H])=C6[H])N6C(=C(C([H])([H])[H])C(=O)OC6([H])C([H])([H])[H])C5([H])[H])C3([H])[H])C3([H])C5([H])OC([H])([H])C([H])([H])C([H])([H])C5([H])N([H])C34[H])C2([H])C1([H])C([H])([H])[H]

$$$$
11:1:2
     RDKit          3D

 94102  0  0  1  0  0  0  0  0999 V2000
   -0.2447   -2.1219   10.7005 C   0  0  0  0  0  0  0  0  0  0  0  0
    0.1609   -1.4700    9.3821 C   0  0  0  0  0  0  0  0  0  0  0  0
    0.7512   -0.0783    9.5356 C   0  0  0  0  0  0  0  0  0  0  0  0
    0.0200   -2.0364    8.1702 C   0  0  0  0  0  0  0  0  0  0  0  0
   -0.4230   -3.4615    7.8279 C   0  0  0  0  0  0  0  0  0  0  0  0
    0.5049   -4.2265    6.8363 C   0  0  1  0  0  0  0  0  0  0  0  0
    0.5364   -3.5087    5.5974 O   0  0  0  0  0  0  0  0  0  0  0  0
    1.8056   -2.9814    5.3359 C   0  0  1  0  0  0  0  0  0  0  0  0
    1.9699   -2.8780    3.8157 C   0  0  0  0  0  0  0  0  0  0  0  0
    1.9344   -1.6907    5.8718 O   0  0  0  0  0  0  0  0  0  0  0  0
    2.7803   -3.9479    6.0322 C   0  0  1  0  0  0  0  0  0  0  0  0
    4.1542   -3.2800    6.2739 C   0  0  0  0  0  0  0  0  0  0  0  0
    1.9878   -4.3367    7.2937 C   0  0  2  0  0  0  0  0  0  0  0  0
    2.3483   -5.6364    8.1094 C   0  0  1  0  0  0  0  0  0  0  0  0
    1.1599   -6.2792    8.5572 O   0  0  0  0  0  0  0  0  0  0  0  0
    0.3263   -6.7658    7.4950 C   0  0  2  0  0  0  0  0  0  0  0  0
    0.8566   -7.9911    6.6763 C   0  0  0  0  0  0  0  0  0  0  0  0
    2.0641   -7.7496    5.7425 C   0  0  0  0  0  0  0  0  0  0  0  0
    3.1991   -7.2096    6.2299 C   0  0  0  0  0  0  0  0  0  0  0  0
    4.4458   -6.9958    5.3795 C   0  0  0  0  0  0  0  0  0  0  0  0
    4.1139   -7.1137    3.8963 C   0  0  0  0  0  0  0  0  0  0  0  0
    4.5359   -6.2678    2.9206 C   0  0  0  0  0  0  0  0  0  0  0  0
    5.4338   -5.0550    3.1230 C   0  0  0  0  0  0  0  0  0  0  0  0
    4.0631   -6.4720    1.5209 C   0  0  0  0  0  0  0  0  0  0  0  0
    4.2065   -5.6371    0.6289 O   0  0  0  0  0  0  0  0  0  0  0  0
    3.3581   -7.6350    1.2828 O   0  0  0  0  0  0  0  0  0  0  0  0
    3.3902   -8.6671    2.2420 C   0  0  1  0  0  0  0  0  0  0  0  0
    4.6955   -9.4818    2.0914 C   0  0  0  0  0  0  0  0  0  0  0  0
    3.2616   -8.1703    3.6107 N   0  0  0  0  0  0  0  0  0  0  0  0
    1.9449   -8.2289    4.2725 C   0  0  0  0  0  0  0  0  0  0  0  0
    1.3834   -9.6584    4.2277 C   0  0  0  0  0  0  0  0  0  0  0  0
    0.2173  -10.0171    3.6495 C   0  0  0  0  0  0  0  0  0  0  0  0
   -0.6543   -9.0265    2.9962 C   0  0  0  0  0  0  0  0  0  0  0  0
   -1.7228   -9.3368    2.4800 O   0  0  0  0  0  0  0  0  0  0  0  0
   -0.1868   -7.6325    2.9893 C   0  0  0  0  0  0  0  0  0  0  0  0
    0.9770   -7.2761    3.5608 C   0  0  0  0  0  0  0  0  0  0  0  0
    3.2532   -6.8166    7.6973 C   0  0  1  0  0  0  0  0  0  0  0  0
    4.4485   -6.2063    8.4478 C   0  0  2  0  0  0  0  0  0  0  0  0
    5.1547   -7.0039    9.5348 C   0  0  1  0  0  0  0  0  0  0  0  0
    6.5706   -7.0120    9.5449 O   0  0  0  0  0  0  0  0  0  0  0  0
    7.0583   -7.8702   10.5878 C   0  0  0  0  0  0  0  0  0  0  0  0
    6.5449   -7.4465   11.9924 C   0  0  0  0  0  0  0  0  0  0  0  0
    5.0175   -7.2142   12.0236 C   0  0  0  0  0  0  0  0  0  0  0  0
    4.6949   -6.3261   10.8270 C   0  0  2  0  0  0  0  0  0  0  0  0
    3.3005   -5.9785   10.5838 N   0  0  0  0  0  0  0  0  0  0  0  0
    3.3849   -5.4149    9.2305 C   0  0  2  0  0  0  0  0  0  0  0  0
   -0.1009   -5.6194    6.5640 C   0  0  0  0  0  0  0  0  0  0  0  0
   -0.9286   -5.8189    5.6757 O   0  0  0  0  0  0  0  0  0  0  0  0
    0.6298   -2.2906   11.3360 H   0  0  0  0  0  0  0  0  0  0  0  0
   -0.7685   -3.0672   10.5661 H   0  0  0  0  0  0  0  0  0  0  0  0
   -0.9310   -1.4490   11.2234 H   0  0  0  0  0  0  0  0  0  0  0  0
    1.6343   -0.1028   10.1760 H   0  0  0  0  0  0  0  0  0  0  0  0
    0.0258    0.6038    9.9765 H   0  0  0  0  0  0  0  0  0  0  0  0
    1.0671    0.3343    8.5760 H   0  0  0  0  0  0  0  0  0  0  0  0
    0.2479   -1.4090    7.3230 H   0  0  0  0  0  0  0  0  0  0  0  0
   -0.5243   -4.0770    8.7260 H   0  0  0  0  0  0  0  0  0  0  0  0
   -1.4196   -3.3915    7.3958 H   0  0  0  0  0  0  0  0  0  0  0  0
    1.1803   -2.2424    3.4199 H   0  0  0  0  0  0  0  0  0  0  0  0
    1.9063   -3.8621    3.3356 H   0  0  0  0  0  0  0  0  0  0  0  0
    2.9324   -2.4228    3.5733 H   0  0  0  0  0  0  0  0  0  0  0  0
    2.8337   -1.4080    5.7122 H   0  0  0  0  0  0  0  0  0  0  0  0
    2.8867   -4.8013    5.3653 H   0  0  0  0  0  0  0  0  0  0  0  0
    4.0995   -2.5168    7.0534 H   0  0  0  0  0  0  0  0  0  0  0  0
    4.5317   -2.8058    5.3667 H   0  0  0  0  0  0  0  0  0  0  0  0
    4.9170   -3.9823    6.5790 H   0  0  0  0  0  0  0  0  0  0  0  0
    2.1415   -3.5052    7.9797 H   0  0  0  0  0  0  0  0  0  0  0  0
   -0.5742   -7.1068    8.0042 H   0  0  0  0  0  0  0  0  0  0  0  0
    1.0998   -8.8176    7.3446 H   0  0  0  0  0  0  0  0  0  0  0  0
    0.0236   -8.3640    6.0827 H   0  0  0  0  0  0  0  0  0  0  0  0
    4.8936   -6.0347    5.6134 H   0  0  0  0  0  0  0  0  0  0  0  0
    5.1868   -7.7532    5.6325 H   0  0  0  0  0  0  0  0  0  0  0  0
    6.1572   -4.9677    2.3084 H   0  0  0  0  0  0  0  0  0  0  0  0
    6.0116   -5.0973    4.0457 H   0  0  0  0  0  0  0  0  0  0  0  0
    4.8433   -4.1340    3.1352 H   0  0  0  0  0  0  0  0  0  0  0  0
    2.5422   -9.3160    2.0274 H   0  0  0  0  0  0  0  0  0  0  0  0
    4.6866  -10.3284    2.7739 H   0  0  0  0  0  0  0  0  0  0  0  0
    5.5830   -8.8868    2.2974 H   0  0  0  0  0  0  0  0  0  0  0  0
    4.7748   -9.8655    1.0764 H   0  0  0  0  0  0  0  0  0  0  0  0
    1.9910  -10.4283    4.6885 H   0  0  0  0  0  0  0  0  0  0  0  0
   -0.1120  -11.0441    3.6527 H   0  0  0  0  0  0  0  0  0  0  0  0
   -0.8227   -6.9099    2.5052 H   0  0  0  0  0  0  0  0  0  0  0  0
    1.2709   -6.2339    3.5273 H   0  0  0  0  0  0  0  0  0  0  0  0
    2.9757   -7.7138    8.2579 H   0  0  0  0  0  0  0  0  0  0  0  0
    5.0996   -5.5574    7.8727 H   0  0  0  0  0  0  0  0  0  0  0  0
    4.8004   -8.0326    9.5046 H   0  0  0  0  0  0  0  0  0  0  0  0
    6.7609   -8.9005   10.3781 H   0  0  0  0  0  0  0  0  0  0  0  0
    8.1491   -7.8530   10.5740 H   0  0  0  0  0  0  0  0  0  0  0  0
    6.8270   -8.1934   12.7357 H   0  0  0  0  0  0  0  0  0  0  0  0
    7.0486   -6.5226   12.2817 H   0  0  0  0  0  0  0  0  0  0  0  0
    4.4823   -8.1624   11.9564 H   0  0  0  0  0  0  0  0  0  0  0  0
    4.7203   -6.7423   12.9613 H   0  0  0  0  0  0  0  0  0  0  0  0
    5.2581   -5.3972   10.9477 H   0  0  0  0  0  0  0  0  0  0  0  0
    2.9815   -5.2781   11.2453 H   0  0  0  0  0  0  0  0  0  0  0  0
    3.6818   -4.3659    9.2940 H   0  0  0  0  0  0  0  0  0  0  0  0
  1  2  1  0
  1 49  1  0
  1 50  1  0
  1 51  1  0
  2  3  1  0
  2  4  2  3
  3 52  1  0
  3 53  1  0
  3 54  1  0
  4  5  1  0
  4 55  1  0
  6  5  1  1
  5 56  1  0
  5 57  1  0
  6 13  1  0
  6 47  1  0
  6  7  1  0
  7  8  1  0
  8  9  1  0
  8 10  1  1
  8 11  1  0
  9 58  1  0
  9 59  1  0
  9 60  1  0
 10 61  1  0
 11 12  1  0
 11 13  1  0
 11 62  1  6
 12 63  1  0
 12 64  1  0
 12 65  1  0
 13 14  1  0
 13 66  1  1
 14 37  1  0
 14 46  1  0
 14 15  1  1
 15 16  1  0
 16 17  1  0
 16 47  1  0
 16 67  1  1
 17 18  1  0
 17 68  1  0
 17 69  1  0
 18 30  1  0
 18 19  2  0
 19 20  1  0
 19 37  1  0
 20 21  1  0
 20 70  1  0
 20 71  1  0
 21 29  1  0
 21 22  2  0
 22 23  1  0
 22 24  1  0
 23 72  1  0
 23 73  1  0
 23 74  1  0
 24 25  2  0
 24 26  1  0
 26 27  1  0
 27 28  1  0
 27 29  1  0
 27 75  1  6
 28 76  1  0
 28 77  1  0
 28 78  1  0
 29 30  1  0
 30 36  1  0
 30 31  1  0
 31 32  2  0
 31 79  1  0
 32 33  1  0
 32 80  1  0
 33 34  2  0
 33 35  1  0
 35 36  2  0
 35 81  1  0
 36 82  1  0
 37 38  1  0
 37 83  1  1
 38 46  1  0
 38 39  1  0
 38 84  1  6
 39 44  1  0
 39 40  1  0
 39 85  1  1
 40 41  1  0
 41 42  1  0
 41 86  1  0
 41 87  1  0
 42 43  1  0
 42 88  1  0
 42 89  1  0
 43 44  1  0
 43 90  1  0
 43 91  1  0
 44 45  1  0
 44 92  1  1
 45 46  1  0
 45 93  1  0
 46 94  1  1
 47 48  2  0
M  END
>  <i_m_ct_stereo_status>  (44) 
1

>  <s_m_source_file>  (44) 
/var/tmp/pbs.5076255.sched01/tmpmzpp47sj/0ood7iq68.sdf

>  <i_m_source_file_index>  (44) 
22

>  <i_lp_mmshare_version>  (44) 
48012

>  <i_f3d_flags>  (44) 
0

>  <s_epik_input>  (44) 
W0NIM11DKFtDSDNdKT1bQ0hdW0NIMl1bQ0BdKFtDQEhdMVtDQEBdMjM0KShPW0NAQF0oW0NIM10pKFtPSF0pW0NASF0xW0NIM10pQyg9TylbQ0BIXShPMilbQ0gyXUM9NUM2KFtDSF09W0NIXUMoPU8pW0NIXT1bQ0hdNilON0MoPUMoW0NIM10pQyg9TylPW0NASF03W0NIM10pW0NIMl1DNVtDQEhdM1tDQEBIXThbQ0BASF05W0NAQEhdKFtOSF1bQ0BIXTQ4KVtDSDJdW0NIMl1bQ0gyXU85

>  <s_epik_cmdline>  (44) 
J2VwaWtfcHl0aG9uJywgJy1waHQnLCAnMi4wJywgJy1waCcsICc3LjAnLCAnLXRuJywgJzgnLCAnLW1hJywgJzIwMCcsICctaW1hZScsICc8aW5maWxlLm1hZT4nLCAnLW9tYWUnLCAnPG91dGZpbGUubWFlPic=

>  <r_epik_Ionization_Penalty>  (44) 
1.50872

>  <r_epik_Ionization_Penalty_Charging>  (44) 
0

>  <r_epik_Ionization_Penalty_Neutral>  (44) 
1.50872

>  <r_epik_State_Penalty>  (44) 
1.59956

>  <r_epik_Charging_Adjusted_Penalty>  (44) 
1.59956

>  <i_epik_Tot_Q>  (44) 
0

>  <i_epik_Tot_abs_Q>  (44) 
0

>  <s_epik_Chemistry_Notes>  (44) 
This compound has an ester and may undergo hydrolysis at high or low pH. This compound contains an acetal/aminal-like group ( X-CH(R)-Y where X, Y are N, S, or O) that may be acid/base labile, releasing an aldehyde.

>  <s_lp_Force_Field>  (44) 
OPLS3e

>  <r_lp_Energy>  (44) 
90.8599

>  <b_lp_Chiralities_Consistent>  (44) 
1

>  <s_lp_Variant>  (44) 
11:0-2

>  <s_i_glide_gridfile>  (44) 
pfpi4k_grid

>  <i_i_glide_lignum>  (44) 
22

>  <i_i_glide_rotatable_bonds>  (44) 
3

>  <r_i_docking_score>  (44) 
-1.42407

>  <r_i_glide_ligand_efficiency>  (44) 
-0.0296681

>  <r_i_glide_ligand_efficiency_sa>  (44) 
-0.107821

>  <r_i_glide_ligand_efficiency_ln>  (44) 
-0.292345

>  <r_i_glide_gscore>  (44) 
-1.42407

>  <r_i_glide_lipo>  (44) 
-0.0143455

>  <r_i_glide_hbond>  (44) 
0

>  <r_i_glide_metal>  (44) 
-0

>  <r_i_glide_rewards>  (44) 
-0.0932145

>  <r_i_glide_evdw>  (44) 
-25.1766

>  <r_i_glide_ecoul>  (44) 
-0.715581

>  <r_i_glide_erotb>  (44) 
0.0980255

>  <r_i_glide_esite>  (44) 
-0.0483696

>  <r_i_glide_emodel>  (44) 
-25.1823

>  <r_i_glide_energy>  (44) 
-25.8922

>  <r_i_glide_einternal>  (44) 
5.04056

>  <r_i_glide_intrahb_reward>  (44) 
-0

>  <i_i_glide_confnum>  (44) 
2

>  <i_i_glide_posenum>  (44) 
10

>  <r_i_glide_eff_state_penalty>  (44) 
0

>  <ligand_id>  (44) 
11

>  <original_smiles>  (44) 
CC(C)=CCC12OC(C)(O)C(C)C1C13OC(CC4=C(CC5=C(C)C(=O)OC(C)N5C45C=CC(=O)C=C5)C1C1C4OCCCC4NC13)C2=O

>  <smiles>  (44) 
[H]OC1(C([H])([H])[H])OC2(C([H])([H])C([H])=C(C([H])([H])[H])C([H])([H])[H])C(=O)C3([H])OC4(C([H])(C5=C(C6(C([H])=C([H])C(=O)C([H])=C6[H])N6C(=C(C([H])([H])[H])C(=O)OC6([H])C([H])([H])[H])C5([H])[H])C3([H])[H])C3([H])C5([H])OC([H])([H])C([H])([H])C([H])([H])C5([H])N([H])C34[H])C2([H])C1([H])C([H])([H])[H]

$$$$
12:0:0
     RDKit          3D

 65 72  0  0  1  0  0  0  0  0999 V2000
   -0.2872   -2.1374    4.9217 C   0  0  0  0  0  0  0  0  0  0  0  0
    0.5541   -1.0316    5.6005 C   0  0  2  0  0  0  0  0  0  0  0  0
    0.5480   -1.2463    7.0940 C   0  0  0  0  0  0  0  0  0  0  0  0
   -0.1569   -2.0482    7.7172 O   0  0  0  0  0  0  0  0  0  0  0  0
    1.4825   -0.3004    7.6095 C   0  0  0  0  0  0  0  0  0  0  0  0
    1.0595    0.9579    7.9503 C   0  0  0  0  0  0  0  0  0  0  0  0
    2.0955    2.0562    8.1478 C   0  0  0  0  0  0  0  0  0  0  0  0
    1.5211    3.4450    8.3467 C   0  0  0  0  0  0  0  0  0  0  0  0
    0.2219    3.7491    8.5248 C   0  0  0  0  0  0  0  0  0  0  0  0
   -0.1168    5.1509    8.7055 C   0  0  0  0  0  0  0  0  0  0  0  0
   -1.3852    5.5682    8.7934 C   0  0  0  0  0  0  0  0  0  0  0  0
   -2.5917    4.6549    8.7394 C   0  0  0  0  0  0  0  0  0  0  0  0
   -2.2334    3.2594    8.2040 C   0  0  0  0  0  0  0  0  0  0  0  0
   -3.0976    2.6243    7.6066 O   0  0  0  0  0  0  0  0  0  0  0  0
   -0.8446    2.6518    8.5818 C   0  0  2  0  0  0  0  0  0  0  0  0
   -0.9727    2.1847   10.0490 C   0  0  0  0  0  0  0  0  0  0  0  0
   -0.3580    1.4921    7.6712 C   0  0  2  0  0  0  0  0  0  0  0  0
   -1.3862    0.5539    7.3187 O   0  0  0  0  0  0  0  0  0  0  0  0
   -0.8200    1.2412    6.1939 C   0  0  2  0  0  0  0  0  0  0  0  0
    0.1332    0.4656    5.2545 C   0  0  2  0  0  0  0  0  0  0  0  0
    0.1790    0.7951    3.7476 C   0  0  0  0  0  0  0  0  0  0  0  0
    1.3612    0.0055    3.1147 C   0  0  1  0  0  0  0  0  0  0  0  0
    2.0100    0.6402    2.0207 O   0  0  0  0  0  0  0  0  0  0  0  0
    3.3924    0.3819    2.0807 C   0  0  2  0  0  0  0  0  0  0  0  0
    3.9848    0.0977    0.8382 O   0  0  0  0  0  0  0  0  0  0  0  0
    3.8320   -1.1356    0.2848 C   0  0  0  0  0  0  0  0  0  0  0  0
    4.2944   -1.4460   -0.8150 O   0  0  0  0  0  0  0  0  0  0  0  0
    3.0370   -2.1447    1.1026 C   0  0  0  0  0  0  0  0  0  0  0  0
    3.4809   -2.1464    2.5711 C   0  0  1  0  0  0  0  0  0  0  0  0
    4.6795   -2.9051    2.6542 O   0  0  0  0  0  0  0  0  0  0  0  0
    3.6423   -0.7041    3.1731 C   0  0  1  0  0  0  0  0  0  0  0  0
    5.0256   -0.4454    3.8165 C   0  0  0  0  0  0  0  0  0  0  0  0
    2.5111   -0.2724    4.1072 C   0  0  2  0  0  0  0  0  0  0  0  0
    2.0987   -1.1184    5.3655 C   0  0  1  0  0  0  0  0  0  0  0  0
    2.7086   -0.6145    6.7408 C   0  0  0  0  0  0  0  0  0  0  0  0
   -0.0479   -2.2911    3.8771 H   0  0  0  0  0  0  0  0  0  0  0  0
   -1.3522   -1.9149    4.9842 H   0  0  0  0  0  0  0  0  0  0  0  0
   -0.1302   -3.1106    5.3896 H   0  0  0  0  0  0  0  0  0  0  0  0
    2.7268    1.7937    8.9968 H   0  0  0  0  0  0  0  0  0  0  0  0
    2.7350    2.1266    7.2690 H   0  0  0  0  0  0  0  0  0  0  0  0
    2.2570    4.2349    8.3448 H   0  0  0  0  0  0  0  0  0  0  0  0
    0.6785    5.8784    8.7672 H   0  0  0  0  0  0  0  0  0  0  0  0
   -1.5891    6.6184    8.9384 H   0  0  0  0  0  0  0  0  0  0  0  0
   -3.0579    4.5819    9.7207 H   0  0  0  0  0  0  0  0  0  0  0  0
   -3.3329    5.1034    8.0801 H   0  0  0  0  0  0  0  0  0  0  0  0
   -1.2661    3.0080   10.7023 H   0  0  0  0  0  0  0  0  0  0  0  0
   -0.0329    1.7984   10.4442 H   0  0  0  0  0  0  0  0  0  0  0  0
   -1.7258    1.4129   10.1823 H   0  0  0  0  0  0  0  0  0  0  0  0
   -1.4690    1.9718    5.7228 H   0  0  0  0  0  0  0  0  0  0  0  0
    1.0028    1.0744    5.4885 H   0  0  0  0  0  0  0  0  0  0  0  0
   -0.7585    0.5705    3.2372 H   0  0  0  0  0  0  0  0  0  0  0  0
    0.3469    1.8674    3.6225 H   0  0  0  0  0  0  0  0  0  0  0  0
    0.9812   -0.9281    2.7126 H   0  0  0  0  0  0  0  0  0  0  0  0
    3.8147    1.3350    2.4014 H   0  0  0  0  0  0  0  0  0  0  0  0
    1.9857   -1.8815    1.0180 H   0  0  0  0  0  0  0  0  0  0  0  0
    3.1422   -3.1294    0.6520 H   0  0  0  0  0  0  0  0  0  0  0  0
    2.7334   -2.7107    3.1281 H   0  0  0  0  0  0  0  0  0  0  0  0
    4.5141   -3.7785    2.3317 H   0  0  0  0  0  0  0  0  0  0  0  0
    5.2071   -1.1235    4.6499 H   0  0  0  0  0  0  0  0  0  0  0  0
    5.1083    0.5701    4.2017 H   0  0  0  0  0  0  0  0  0  0  0  0
    5.8395   -0.5758    3.1016 H   0  0  0  0  0  0  0  0  0  0  0  0
    2.8137    0.7046    4.4852 H   0  0  0  0  0  0  0  0  0  0  0  0
    2.3759   -2.1612    5.2230 H   0  0  0  0  0  0  0  0  0  0  0  0
    3.4081    0.2092    6.6151 H   0  0  0  0  0  0  0  0  0  0  0  0
    3.2791   -1.4236    7.2000 H   0  0  0  0  0  0  0  0  0  0  0  0
  2  1  1  6
  1 36  1  0
  1 37  1  0
  1 38  1  0
  2 20  1  0
  2 34  1  0
  2  3  1  0
  3  4  2  0
  3  5  1  0
  5 35  1  0
  5  6  2  0
  6 17  1  0
  6  7  1  0
  7  8  1  0
  7 39  1  0
  7 40  1  0
  8  9  2  0
  8 41  1  0
  9 15  1  0
  9 10  1  0
 10 11  2  0
 10 42  1  0
 11 12  1  0
 11 43  1  0
 12 13  1  0
 12 44  1  0
 12 45  1  0
 13 14  2  0
 13 15  1  0
 15 16  1  1
 15 17  1  0
 16 46  1  0
 16 47  1  0
 16 48  1  0
 17 19  1  0
 17 18  1  1
 18 19  1  0
 19 20  1  0
 19 49  1  6
 20 21  1  0
 20 50  1  1
 21 22  1  0
 21 51  1  0
 21 52  1  0
 22 33  1  0
 22 23  1  0
 22 53  1  6
 23 24  1  0
 24 31  1  0
 24 25  1  0
 24 54  1  1
 25 26  1  0
 26 27  2  0
 26 28  1  0
 28 29  1  0
 28 55  1  0
 28 56  1  0
 29 30  1  0
 29 31  1  0
 29 57  1  1
 30 58  1  0
 31 32  1  1
 31 33  1  0
 32 59  1  0
 32 60  1  0
 32 61  1  0
 33 34  1  0
 33 62  1  1
 34 35  1  0
 34 63  1  6
 35 64  1  0
 35 65  1  0
M  END
>  <i_m_ct_stereo_status>  (45) 
1

>  <s_m_source_file>  (45) 
/var/tmp/pbs.5076255.sched01/tmpmzpp47sj/0ood7iq68.sdf

>  <i_m_source_file_index>  (45) 
23

>  <i_lp_mmshare_version>  (45) 
48012

>  <i_f3d_flags>  (45) 
0

>  <s_epik_input>  (45) 
W09IXVtDQEBIXTFbQ0gyXUMoPU8pT1tDQEBIXShPMilbQ0BAXTEoW0NIM10pW0NASF0oW0NASF0zW0NIMl00KVtDQEhdMltDSDJdW0NAQEhdKFtDQEhdNU82KVtDQF0zKFtDSDNdKUMoPU8pQzQ9QyhbQ0BAXTU2NylbQ0gyXVtDSF09QzhbQ0BAXTcoW0NIM10pQyg9TylbQ0gyXVtDSF09W0NIXTg=

>  <s_epik_cmdline>  (45) 
J2VwaWtfcHl0aG9uJywgJy1waHQnLCAnMi4wJywgJy1waCcsICc3LjAnLCAnLXRuJywgJzgnLCAnLW1hJywgJzIwMCcsICctaW1hZScsICc8aW5maWxlLm1hZT4nLCAnLW9tYWUnLCAnPG91dGZpbGUubWFlPic=

>  <r_lp_tautomer_probability>  (45) 
1

>  <r_epik_Ionization_Penalty>  (45) 
2.18344e-07

>  <r_epik_Ionization_Penalty_Charging>  (45) 
0

>  <r_epik_Ionization_Penalty_Neutral>  (45) 
2.18344e-07

>  <r_epik_State_Penalty>  (45) 
-0

>  <r_epik_Charging_Adjusted_Penalty>  (45) 
0

>  <i_epik_Tot_Q>  (45) 
0

>  <i_epik_Tot_abs_Q>  (45) 
0

>  <s_epik_Chemistry_Notes>  (45) 
This compound has an ester and may undergo hydrolysis at high or low pH. This compound contains an acetal/aminal-like group ( X-CH(R)-Y where X, Y are N, S, or O) that may be acid/base labile, releasing an aldehyde.

>  <s_lp_Force_Field>  (45) 
OPLS3e

>  <r_lp_Energy>  (45) 
112.137

>  <b_lp_Chiralities_Consistent>  (45) 
1

>  <s_lp_Variant>  (45) 
12:0-1

>  <s_i_glide_gridfile>  (45) 
pfpi4k_grid

>  <i_i_glide_lignum>  (45) 
23

>  <i_i_glide_rotatable_bonds>  (45) 
1

>  <r_i_docking_score>  (45) 
-3.19689

>  <r_i_glide_ligand_efficiency>  (45) 
-0.0913396

>  <r_i_glide_ligand_efficiency_sa>  (45) 
-0.298778

>  <r_i_glide_ligand_efficiency_ln>  (45) 
-0.701788

>  <r_i_glide_gscore>  (45) 
-3.19689

>  <r_i_glide_lipo>  (45) 
-0.179647

>  <r_i_glide_hbond>  (45) 
-0.220304

>  <r_i_glide_metal>  (45) 
-0

>  <r_i_glide_rewards>  (45) 
-0.267537

>  <r_i_glide_evdw>  (45) 
-27.0282

>  <r_i_glide_ecoul>  (45) 
-7.41532

>  <r_i_glide_erotb>  (45) 
0

>  <r_i_glide_esite>  (45) 
-0.0656882

>  <r_i_glide_emodel>  (45) 
-41.2489

>  <r_i_glide_energy>  (45) 
-34.4436

>  <r_i_glide_einternal>  (45) 
0.332497

>  <r_i_glide_intrahb_reward>  (45) 
-0

>  <i_i_glide_confnum>  (45) 
2

>  <i_i_glide_posenum>  (45) 
26

>  <r_i_glide_eff_state_penalty>  (45) 
0

>  <ligand_id>  (45) 
12

>  <original_smiles>  (45) 
CC12C(=O)C3=C4CC=C5C=CCC(=O)C5(C)C45OC5C1CC1OC4OC(=O)CC(O)C4(C)C1C2C3

>  <smiles>  (45) 
[H]OC1([H])C([H])([H])C(=O)OC2([H])OC3([H])C([H])([H])C4([H])C5([H])OC56C(=C5C(=O)C4(C([H])([H])[H])C([H])(C5([H])[H])C3([H])C21C([H])([H])[H])C([H])([H])C([H])=C1C([H])=C([H])C([H])([H])C(=O)C16C([H])([H])[H]

$$$$
12:0:1
     RDKit          3D

 65 72  0  0  1  0  0  0  0  0999 V2000
   -0.2264   -2.1426    5.0102 C   0  0  0  0  0  0  0  0  0  0  0  0
    0.6023   -1.0115    5.6659 C   0  0  2  0  0  0  0  0  0  0  0  0
    0.6041   -1.2002    7.1693 C   0  0  0  0  0  0  0  0  0  0  0  0
   -0.0534   -2.0225    7.7872 O   0  0  0  0  0  0  0  0  0  0  0  0
    1.5425   -0.2405    7.6785 C   0  0  0  0  0  0  0  0  0  0  0  0
    1.0957    1.0149    7.9843 C   0  0  0  0  0  0  0  0  0  0  0  0
    2.1068    2.1383    8.1637 C   0  0  0  0  0  0  0  0  0  0  0  0
    1.5077    3.5176    8.3500 C   0  0  0  0  0  0  0  0  0  0  0  0
    0.2042    3.7944    8.5437 C   0  0  0  0  0  0  0  0  0  0  0  0
   -0.1529    5.1930    8.7129 C   0  0  0  0  0  0  0  0  0  0  0  0
   -1.4332    5.5860    8.8061 C   0  0  0  0  0  0  0  0  0  0  0  0
   -2.6193    4.6532    8.7676 C   0  0  0  0  0  0  0  0  0  0  0  0
   -2.2352    3.2595    8.2383 C   0  0  0  0  0  0  0  0  0  0  0  0
   -3.0834    2.6061    7.6585 O   0  0  0  0  0  0  0  0  0  0  0  0
   -0.8355    2.6776    8.6249 C   0  0  2  0  0  0  0  0  0  0  0  0
   -0.9405    2.2230   10.0971 C   0  0  0  0  0  0  0  0  0  0  0  0
   -0.3427    1.5118    7.7182 C   0  0  2  0  0  0  0  0  0  0  0  0
   -1.3606    0.5452    7.3952 O   0  0  0  0  0  0  0  0  0  0  0  0
   -0.8070    1.2286    6.2596 C   0  0  2  0  0  0  0  0  0  0  0  0
    0.1560    0.4690    5.3129 C   0  0  2  0  0  0  0  0  0  0  0  0
    0.1758    0.7818    3.8010 C   0  0  0  0  0  0  0  0  0  0  0  0
    1.3654    0.0107    3.1624 C   0  0  1  0  0  0  0  0  0  0  0  0
    1.9915    0.6587    2.0644 O   0  0  0  0  0  0  0  0  0  0  0  0
    3.3779    0.4115    2.1058 C   0  0  2  0  0  0  0  0  0  0  0  0
    3.9715    0.1398    0.8620 O   0  0  0  0  0  0  0  0  0  0  0  0
    3.8317   -1.1051    0.3193 C   0  0  0  0  0  0  0  0  0  0  0  0
    4.2849   -1.4365   -0.7757 O   0  0  0  0  0  0  0  0  0  0  0  0
    3.0640   -2.1206    1.1549 C   0  0  0  0  0  0  0  0  0  0  0  0
    3.5232   -2.1006    2.6172 C   0  0  1  0  0  0  0  0  0  0  0  0
    4.7303   -2.8441    2.7110 O   0  0  0  0  0  0  0  0  0  0  0  0
    3.6604   -0.6540    3.2068 C   0  0  1  0  0  0  0  0  0  0  0  0
    5.0449   -0.3596    3.8297 C   0  0  0  0  0  0  0  0  0  0  0  0
    2.5291   -0.2309    4.1464 C   0  0  2  0  0  0  0  0  0  0  0  0
    2.1417   -1.0718    5.4175 C   0  0  1  0  0  0  0  0  0  0  0  0
    2.7566   -0.5353    6.7820 C   0  0  0  0  0  0  0  0  0  0  0  0
    0.0066   -2.3021    3.9647 H   0  0  0  0  0  0  0  0  0  0  0  0
   -1.2948   -1.9392    5.0844 H   0  0  0  0  0  0  0  0  0  0  0  0
   -0.0424   -3.1043    5.4897 H   0  0  0  0  0  0  0  0  0  0  0  0
    2.7542    1.8978    9.0065 H   0  0  0  0  0  0  0  0  0  0  0  0
    2.7367    2.2116    7.2816 H   0  0  0  0  0  0  0  0  0  0  0  0
    2.2332    4.3181    8.3350 H   0  0  0  0  0  0  0  0  0  0  0  0
    0.6277    5.9362    8.7593 H   0  0  0  0  0  0  0  0  0  0  0  0
   -1.6575    6.6302    8.9452 H   0  0  0  0  0  0  0  0  0  0  0  0
   -3.0780    4.5796    9.7559 H   0  0  0  0  0  0  0  0  0  0  0  0
   -3.3695    5.0769    8.0956 H   0  0  0  0  0  0  0  0  0  0  0  0
   -1.2419    3.0486   10.7397 H   0  0  0  0  0  0  0  0  0  0  0  0
    0.0119    1.8618   10.4852 H   0  0  0  0  0  0  0  0  0  0  0  0
   -1.6766    1.4396   10.2452 H   0  0  0  0  0  0  0  0  0  0  0  0
   -1.4680    1.9470    5.7841 H   0  0  0  0  0  0  0  0  0  0  0  0
    1.0130    1.1038    5.5301 H   0  0  0  0  0  0  0  0  0  0  0  0
   -0.7631    0.5383    3.2997 H   0  0  0  0  0  0  0  0  0  0  0  0
    0.3188    1.8569    3.6610 H   0  0  0  0  0  0  0  0  0  0  0  0
    1.0026   -0.9372    2.7785 H   0  0  0  0  0  0  0  0  0  0  0  0
    3.7954    1.3620    2.4129 H   0  0  0  0  0  0  0  0  0  0  0  0
    2.0060   -1.8848    1.0800 H   0  0  0  0  0  0  0  0  0  0  0  0
    3.1847   -3.1121    0.7207 H   0  0  0  0  0  0  0  0  0  0  0  0
    2.7921   -2.6698    3.1887 H   0  0  0  0  0  0  0  0  0  0  0  0
    5.3898   -2.4406    2.1658 H   0  0  0  0  0  0  0  0  0  0  0  0
    5.2453   -1.0223    4.6702 H   0  0  0  0  0  0  0  0  0  0  0  0
    5.1088    0.6620    4.2031 H   0  0  0  0  0  0  0  0  0  0  0  0
    5.8556   -0.4791    3.1095 H   0  0  0  0  0  0  0  0  0  0  0  0
    2.8181    0.7591    4.5077 H   0  0  0  0  0  0  0  0  0  0  0  0
    2.4419   -2.1087    5.2842 H   0  0  0  0  0  0  0  0  0  0  0  0
    3.4433    0.3019    6.6407 H   0  0  0  0  0  0  0  0  0  0  0  0
    3.3487   -1.3278    7.2397 H   0  0  0  0  0  0  0  0  0  0  0  0
  2  1  1  6
  1 36  1  0
  1 37  1  0
  1 38  1  0
  2 20  1  0
  2 34  1  0
  2  3  1  0
  3  4  2  0
  3  5  1  0
  5 35  1  0
  5  6  2  0
  6 17  1  0
  6  7  1  0
  7  8  1  0
  7 39  1  0
  7 40  1  0
  8  9  2  0
  8 41  1  0
  9 15  1  0
  9 10  1  0
 10 11  2  0
 10 42  1  0
 11 12  1  0
 11 43  1  0
 12 13  1  0
 12 44  1  0
 12 45  1  0
 13 14  2  0
 13 15  1  0
 15 16  1  1
 15 17  1  0
 16 46  1  0
 16 47  1  0
 16 48  1  0
 17 19  1  0
 17 18  1  1
 18 19  1  0
 19 20  1  0
 19 49  1  6
 20 21  1  0
 20 50  1  1
 21 22  1  0
 21 51  1  0
 21 52  1  0
 22 33  1  0
 22 23  1  0
 22 53  1  6
 23 24  1  0
 24 31  1  0
 24 25  1  0
 24 54  1  1
 25 26  1  0
 26 27  2  0
 26 28  1  0
 28 29  1  0
 28 55  1  0
 28 56  1  0
 29 30  1  0
 29 31  1  0
 29 57  1  1
 30 58  1  0
 31 32  1  1
 31 33  1  0
 32 59  1  0
 32 60  1  0
 32 61  1  0
 33 34  1  0
 33 62  1  1
 34 35  1  0
 34 63  1  6
 35 64  1  0
 35 65  1  0
M  END
>  <i_m_ct_stereo_status>  (46) 
1

>  <s_m_source_file>  (46) 
/var/tmp/pbs.5076255.sched01/tmpmzpp47sj/0ood7iq68.sdf

>  <i_m_source_file_index>  (46) 
23

>  <i_lp_mmshare_version>  (46) 
48012

>  <i_f3d_flags>  (46) 
0

>  <s_epik_input>  (46) 
W09IXVtDQEBIXTFbQ0gyXUMoPU8pT1tDQEBIXShPMilbQ0BAXTEoW0NIM10pW0NASF0oW0NASF0zW0NIMl00KVtDQEhdMltDSDJdW0NAQEhdKFtDQEhdNU82KVtDQF0zKFtDSDNdKUMoPU8pQzQ9QyhbQ0BAXTU2NylbQ0gyXVtDSF09QzhbQ0BAXTcoW0NIM10pQyg9TylbQ0gyXVtDSF09W0NIXTg=

>  <s_epik_cmdline>  (46) 
J2VwaWtfcHl0aG9uJywgJy1waHQnLCAnMi4wJywgJy1waCcsICc3LjAnLCAnLXRuJywgJzgnLCAnLW1hJywgJzIwMCcsICctaW1hZScsICc8aW5maWxlLm1hZT4nLCAnLW9tYWUnLCAnPG91dGZpbGUubWFlPic=

>  <r_lp_tautomer_probability>  (46) 
1

>  <r_epik_Ionization_Penalty>  (46) 
2.18344e-07

>  <r_epik_Ionization_Penalty_Charging>  (46) 
0

>  <r_epik_Ionization_Penalty_Neutral>  (46) 
2.18344e-07

>  <r_epik_State_Penalty>  (46) 
-0

>  <r_epik_Charging_Adjusted_Penalty>  (46) 
0

>  <i_epik_Tot_Q>  (46) 
0

>  <i_epik_Tot_abs_Q>  (46) 
0

>  <s_epik_Chemistry_Notes>  (46) 
This compound has an ester and may undergo hydrolysis at high or low pH. This compound contains an acetal/aminal-like group ( X-CH(R)-Y where X, Y are N, S, or O) that may be acid/base labile, releasing an aldehyde.

>  <s_lp_Force_Field>  (46) 
OPLS3e

>  <r_lp_Energy>  (46) 
112.137

>  <b_lp_Chiralities_Consistent>  (46) 
1

>  <s_lp_Variant>  (46) 
12:0-1

>  <s_i_glide_gridfile>  (46) 
pfpi4k_grid

>  <i_i_glide_lignum>  (46) 
23

>  <i_i_glide_rotatable_bonds>  (46) 
1

>  <r_i_docking_score>  (46) 
-3.14403

>  <r_i_glide_ligand_efficiency>  (46) 
-0.0898294

>  <r_i_glide_ligand_efficiency_sa>  (46) 
-0.293838

>  <r_i_glide_ligand_efficiency_ln>  (46) 
-0.690184

>  <r_i_glide_gscore>  (46) 
-3.14403

>  <r_i_glide_lipo>  (46) 
-0.190423

>  <r_i_glide_hbond>  (46) 
-0.207747

>  <r_i_glide_metal>  (46) 
-0

>  <r_i_glide_rewards>  (46) 
-0.269272

>  <r_i_glide_evdw>  (46) 
-26.8918

>  <r_i_glide_ecoul>  (46) 
-7.13564

>  <r_i_glide_erotb>  (46) 
0

>  <r_i_glide_esite>  (46) 
-0.0616515

>  <r_i_glide_emodel>  (46) 
-40.8537

>  <r_i_glide_energy>  (46) 
-34.0274

>  <r_i_glide_einternal>  (46) 
0.00294976

>  <r_i_glide_intrahb_reward>  (46) 
-0

>  <i_i_glide_confnum>  (46) 
1

>  <i_i_glide_posenum>  (46) 
6

>  <r_i_glide_eff_state_penalty>  (46) 
0

>  <ligand_id>  (46) 
12

>  <original_smiles>  (46) 
CC12C(=O)C3=C4CC=C5C=CCC(=O)C5(C)C45OC5C1CC1OC4OC(=O)CC(O)C4(C)C1C2C3

>  <smiles>  (46) 
[H]OC1([H])C([H])([H])C(=O)OC2([H])OC3([H])C([H])([H])C4([H])C5([H])OC56C(=C5C(=O)C4(C([H])([H])[H])C([H])(C5([H])[H])C3([H])C21C([H])([H])[H])C([H])([H])C([H])=C1C([H])=C([H])C([H])([H])C(=O)C16C([H])([H])[H]

$$$$
12:0:2
     RDKit          3D

 65 72  0  0  1  0  0  0  0  0999 V2000
    4.5279   -2.8602    5.6907 C   0  0  0  0  0  0  0  0  0  0  0  0
    3.9867   -1.9330    4.5745 C   0  0  2  0  0  0  0  0  0  0  0  0
    4.4341   -0.5128    4.8465 C   0  0  0  0  0  0  0  0  0  0  0  0
    5.0503   -0.1245    5.8312 O   0  0  0  0  0  0  0  0  0  0  0  0
    4.0577    0.2363    3.6828 C   0  0  0  0  0  0  0  0  0  0  0  0
    2.8093    0.7961    3.6319 C   0  0  0  0  0  0  0  0  0  0  0  0
    2.2573    1.2560    2.2915 C   0  0  0  0  0  0  0  0  0  0  0  0
    0.8178    1.7206    2.3156 C   0  0  0  0  0  0  0  0  0  0  0  0
    0.0710    1.9224    3.4115 C   0  0  0  0  0  0  0  0  0  0  0  0
   -1.2928    2.3892    3.2088 C   0  0  0  0  0  0  0  0  0  0  0  0
   -2.1539    2.5132    4.2247 C   0  0  0  0  0  0  0  0  0  0  0  0
   -1.8186    2.2142    5.6664 C   0  0  0  0  0  0  0  0  0  0  0  0
   -0.5260    1.3961    5.8010 C   0  0  0  0  0  0  0  0  0  0  0  0
   -0.4303    0.6360    6.7503 O   0  0  0  0  0  0  0  0  0  0  0  0
    0.6474    1.7021    4.8141 C   0  0  2  0  0  0  0  0  0  0  0  0
    1.2865    3.0286    5.2886 C   0  0  0  0  0  0  0  0  0  0  0  0
    1.7277    0.5919    4.7070 C   0  0  2  0  0  0  0  0  0  0  0  0
    2.1154    0.0447    5.9721 O   0  0  0  0  0  0  0  0  0  0  0  0
    1.5249   -0.9084    5.0682 C   0  0  2  0  0  0  0  0  0  0  0  0
    2.4182   -1.9562    4.3538 C   0  0  2  0  0  0  0  0  0  0  0  0
    1.8668   -3.3598    4.0091 C   0  0  0  0  0  0  0  0  0  0  0  0
    2.9236   -4.1039    3.1445 C   0  0  1  0  0  0  0  0  0  0  0  0
    2.3812   -4.9829    2.1694 O   0  0  0  0  0  0  0  0  0  0  0  0
    3.1990   -4.9656    1.0211 C   0  0  2  0  0  0  0  0  0  0  0  0
    3.4377   -6.2378    0.4726 O   0  0  0  0  0  0  0  0  0  0  0  0
    4.4139   -7.0266    0.9967 C   0  0  0  0  0  0  0  0  0  0  0  0
    4.6695   -8.1560    0.5850 O   0  0  0  0  0  0  0  0  0  0  0  0
    5.1635   -6.4649    2.1910 C   0  0  0  0  0  0  0  0  0  0  0  0
    5.6024   -5.0178    1.9574 C   0  0  1  0  0  0  0  0  0  0  0  0
    6.7764   -5.0495    1.1562 O   0  0  0  0  0  0  0  0  0  0  0  0
    4.4765   -4.1195    1.3317 C   0  0  1  0  0  0  0  0  0  0  0  0
    4.9089   -3.3839    0.0421 C   0  0  0  0  0  0  0  0  0  0  0  0
    3.8069   -3.1531    2.3142 C   0  0  2  0  0  0  0  0  0  0  0  0
    4.6320   -2.1201    3.1670 C   0  0  1  0  0  0  0  0  0  0  0  0
    4.6604   -0.6454    2.5770 C   0  0  0  0  0  0  0  0  0  0  0  0
    4.5729   -3.9047    5.4066 H   0  0  0  0  0  0  0  0  0  0  0  0
    3.9185   -2.7869    6.5944 H   0  0  0  0  0  0  0  0  0  0  0  0
    5.5503   -2.5982    5.9687 H   0  0  0  0  0  0  0  0  0  0  0  0
    2.8922    2.0602    1.9326 H   0  0  0  0  0  0  0  0  0  0  0  0
    2.2940    0.4493    1.5672 H   0  0  0  0  0  0  0  0  0  0  0  0
    0.4058    1.9248    1.3374 H   0  0  0  0  0  0  0  0  0  0  0  0
   -1.6114    2.6278    2.2061 H   0  0  0  0  0  0  0  0  0  0  0  0
   -3.1556    2.8565    4.0319 H   0  0  0  0  0  0  0  0  0  0  0  0
   -1.7594    3.1357    6.2469 H   0  0  0  0  0  0  0  0  0  0  0  0
   -2.6197    1.6121    6.0954 H   0  0  0  0  0  0  0  0  0  0  0  0
    0.5448    3.8255    5.3138 H   0  0  0  0  0  0  0  0  0  0  0  0
    2.0739    3.3679    4.6123 H   0  0  0  0  0  0  0  0  0  0  0  0
    1.7108    2.9535    6.2898 H   0  0  0  0  0  0  0  0  0  0  0  0
    0.5242   -1.2375    5.3097 H   0  0  0  0  0  0  0  0  0  0  0  0
    2.2466   -1.5709    3.3490 H   0  0  0  0  0  0  0  0  0  0  0  0
    1.6052   -3.9477    4.8912 H   0  0  0  0  0  0  0  0  0  0  0  0
    0.9420   -3.2496    3.4368 H   0  0  0  0  0  0  0  0  0  0  0  0
    3.5495   -4.7080    3.7936 H   0  0  0  0  0  0  0  0  0  0  0  0
    2.5947   -4.4475    0.2842 H   0  0  0  0  0  0  0  0  0  0  0  0
    4.5012   -6.5297    3.0455 H   0  0  0  0  0  0  0  0  0  0  0  0
    6.0110   -7.1067    2.4095 H   0  0  0  0  0  0  0  0  0  0  0  0
    5.9116   -4.6172    2.9255 H   0  0  0  0  0  0  0  0  0  0  0  0
    7.4335   -5.5648    1.6011 H   0  0  0  0  0  0  0  0  0  0  0  0
    5.7383   -2.7048    0.2337 H   0  0  0  0  0  0  0  0  0  0  0  0
    4.0956   -2.7898   -0.3731 H   0  0  0  0  0  0  0  0  0  0  0  0
    5.2207   -4.0802   -0.7375 H   0  0  0  0  0  0  0  0  0  0  0  0
    3.1121   -2.5670    1.7055 H   0  0  0  0  0  0  0  0  0  0  0  0
    5.6543   -2.4671    3.2882 H   0  0  0  0  0  0  0  0  0  0  0  0
    4.1713   -0.5622    1.6035 H   0  0  0  0  0  0  0  0  0  0  0  0
    5.6961   -0.3505    2.4151 H   0  0  0  0  0  0  0  0  0  0  0  0
  2  1  1  1
  1 36  1  0
  1 37  1  0
  1 38  1  0
  2 20  1  0
  2 34  1  0
  2  3  1  0
  3  4  2  0
  3  5  1  0
  5 35  1  0
  5  6  2  0
  6 17  1  0
  6  7  1  0
  7  8  1  0
  7 39  1  0
  7 40  1  0
  8  9  2  0
  8 41  1  0
  9 15  1  0
  9 10  1  0
 10 11  2  0
 10 42  1  0
 11 12  1  0
 11 43  1  0
 12 13  1  0
 12 44  1  0
 12 45  1  0
 13 14  2  0
 13 15  1  0
 15 16  1  1
 15 17  1  0
 16 46  1  0
 16 47  1  0
 16 48  1  0
 17 19  1  0
 17 18  1  1
 18 19  1  0
 19 20  1  0
 19 49  1  1
 20 21  1  0
 20 50  1  6
 21 22  1  0
 21 51  1  0
 21 52  1  0
 22 33  1  0
 22 23  1  0
 22 53  1  1
 23 24  1  0
 24 31  1  0
 24 25  1  0
 24 54  1  6
 25 26  1  0
 26 27  2  0
 26 28  1  0
 28 29  1  0
 28 55  1  0
 28 56  1  0
 29 30  1  0
 29 31  1  0
 29 57  1  1
 30 58  1  0
 31 32  1  6
 31 33  1  0
 32 59  1  0
 32 60  1  0
 32 61  1  0
 33 34  1  0
 33 62  1  6
 34 35  1  0
 34 63  1  1
 35 64  1  0
 35 65  1  0
M  END
>  <i_m_ct_stereo_status>  (47) 
1

>  <s_m_source_file>  (47) 
/var/tmp/pbs.5076255.sched01/tmpmzpp47sj/0ood7iq68.sdf

>  <i_m_source_file_index>  (47) 
23

>  <i_lp_mmshare_version>  (47) 
48012

>  <i_f3d_flags>  (47) 
0

>  <s_epik_input>  (47) 
W09IXVtDQEBIXTFbQ0gyXUMoPU8pT1tDQEBIXShPMilbQ0BAXTEoW0NIM10pW0NASF0oW0NASF0zW0NIMl00KVtDQEhdMltDSDJdW0NAQEhdKFtDQEhdNU82KVtDQF0zKFtDSDNdKUMoPU8pQzQ9QyhbQ0BAXTU2NylbQ0gyXVtDSF09QzhbQ0BAXTcoW0NIM10pQyg9TylbQ0gyXVtDSF09W0NIXTg=

>  <s_epik_cmdline>  (47) 
J2VwaWtfcHl0aG9uJywgJy1waHQnLCAnMi4wJywgJy1waCcsICc3LjAnLCAnLXRuJywgJzgnLCAnLW1hJywgJzIwMCcsICctaW1hZScsICc8aW5maWxlLm1hZT4nLCAnLW9tYWUnLCAnPG91dGZpbGUubWFlPic=

>  <r_lp_tautomer_probability>  (47) 
1

>  <r_epik_Ionization_Penalty>  (47) 
2.18344e-07

>  <r_epik_Ionization_Penalty_Charging>  (47) 
0

>  <r_epik_Ionization_Penalty_Neutral>  (47) 
2.18344e-07

>  <r_epik_State_Penalty>  (47) 
-0

>  <r_epik_Charging_Adjusted_Penalty>  (47) 
0

>  <i_epik_Tot_Q>  (47) 
0

>  <i_epik_Tot_abs_Q>  (47) 
0

>  <s_epik_Chemistry_Notes>  (47) 
This compound has an ester and may undergo hydrolysis at high or low pH. This compound contains an acetal/aminal-like group ( X-CH(R)-Y where X, Y are N, S, or O) that may be acid/base labile, releasing an aldehyde.

>  <s_lp_Force_Field>  (47) 
OPLS3e

>  <r_lp_Energy>  (47) 
112.137

>  <b_lp_Chiralities_Consistent>  (47) 
1

>  <s_lp_Variant>  (47) 
12:0-1

>  <s_i_glide_gridfile>  (47) 
pfpi4k_grid

>  <i_i_glide_lignum>  (47) 
23

>  <i_i_glide_rotatable_bonds>  (47) 
1

>  <r_i_docking_score>  (47) 
-2.71074

>  <r_i_glide_ligand_efficiency>  (47) 
-0.0774497

>  <r_i_glide_ligand_efficiency_sa>  (47) 
-0.253343

>  <r_i_glide_ligand_efficiency_ln>  (47) 
-0.595067

>  <r_i_glide_gscore>  (47) 
-2.71074

>  <r_i_glide_lipo>  (47) 
-0.285171

>  <r_i_glide_hbond>  (47) 
0

>  <r_i_glide_metal>  (47) 
-0

>  <r_i_glide_rewards>  (47) 
-0.31863

>  <r_i_glide_evdw>  (47) 
-31.3995

>  <r_i_glide_ecoul>  (47) 
-3.45897

>  <r_i_glide_erotb>  (47) 
0

>  <r_i_glide_esite>  (47) 
-0.0181188

>  <r_i_glide_emodel>  (47) 
-40.5049

>  <r_i_glide_energy>  (47) 
-34.8584

>  <r_i_glide_einternal>  (47) 
0.33369

>  <r_i_glide_intrahb_reward>  (47) 
-0

>  <i_i_glide_confnum>  (47) 
1

>  <i_i_glide_posenum>  (47) 
17

>  <r_i_glide_eff_state_penalty>  (47) 
0

>  <ligand_id>  (47) 
12

>  <original_smiles>  (47) 
CC12C(=O)C3=C4CC=C5C=CCC(=O)C5(C)C45OC5C1CC1OC4OC(=O)CC(O)C4(C)C1C2C3

>  <smiles>  (47) 
[H]OC1([H])C([H])([H])C(=O)OC2([H])OC3([H])C([H])([H])C4([H])C5([H])OC56C(=C5C(=O)C4(C([H])([H])[H])C([H])(C5([H])[H])C3([H])C21C([H])([H])[H])C([H])([H])C([H])=C1C([H])=C([H])C([H])([H])C(=O)C16C([H])([H])[H]

$$$$
14:0:0
     RDKit          3D

 42 46  0  0  1  0  0  0  0  0999 V2000
    2.5192   -2.6419   -3.6493 C   0  0  0  0  0  0  0  0  0  0  0  0
    3.1522   -1.3885   -3.8537 C   0  0  0  0  0  0  0  0  0  0  0  0
    3.9314   -0.7690   -2.9355 N   0  0  0  0  0  0  0  0  0  0  0  0
    4.0743   -1.4334   -1.7617 C   0  0  0  0  0  0  0  0  0  0  0  0
    3.4951   -2.6575   -1.4545 C   0  0  0  0  0  0  0  0  0  0  0  0
    2.6780   -3.2837   -2.4000 C   0  0  0  0  0  0  0  0  0  0  0  0
    3.7109   -3.0673   -0.0252 C   0  0  2  0  0  0  0  0  0  0  0  0
    4.4772   -4.3941    0.0853 C   0  0  0  0  0  0  0  0  0  0  0  0
    3.8070   -5.1668    1.2319 C   0  0  2  0  0  0  0  0  0  0  0  0
    4.7352   -5.5584    2.4299 C   0  0  0  0  0  0  0  0  0  0  0  0
    4.0967   -6.8327    2.9513 C   0  0  0  0  0  0  0  0  0  0  0  0
    2.9568   -7.1668    1.9723 C   0  0  0  0  0  0  0  0  0  0  0  0
    3.3148   -6.4518    0.7781 O   0  0  0  0  0  0  0  0  0  0  0  0
    2.6307   -4.2522    1.6403 C   0  0  0  0  0  0  0  0  0  0  0  0
    2.4519   -3.3423    0.5669 O   0  0  0  0  0  0  0  0  0  0  0  0
    4.4222   -1.8344    0.6129 C   0  0  1  0  0  0  0  0  0  0  0  0
    3.5790   -1.0892    1.6684 C   0  0  0  0  0  0  0  0  0  0  0  0
    4.6288   -0.3748    2.4892 C   0  0  0  0  0  0  0  0  0  0  0  0
    5.7777   -1.3651    2.4747 C   0  0  0  0  0  0  0  0  0  0  0  0
    5.6189   -2.1593    1.3045 O   0  0  0  0  0  0  0  0  0  0  0  0
    4.7851   -0.8764   -0.5588 C   0  0  0  0  0  0  0  0  0  0  0  0
    1.8974   -3.0931   -4.3927 H   0  0  0  0  0  0  0  0  0  0  0  0
    3.0269   -0.8624   -4.7893 H   0  0  0  0  0  0  0  0  0  0  0  0
    2.1569   -4.1892   -2.1510 H   0  0  0  0  0  0  0  0  0  0  0  0
    4.4024   -5.0227   -0.8294 H   0  0  0  0  0  0  0  0  0  0  0  0
    5.5359   -4.2610    0.2743 H   0  0  0  0  0  0  0  0  0  0  0  0
    5.7743   -5.7320    2.0949 H   0  0  0  0  0  0  0  0  0  0  0  0
    4.7662   -4.7691    3.1802 H   0  0  0  0  0  0  0  0  0  0  0  0
    4.8093   -7.6458    2.9261 H   0  0  0  0  0  0  0  0  0  0  0  0
    3.6852   -6.6843    3.9288 H   0  0  0  0  0  0  0  0  0  0  0  0
    2.8453   -8.2394    1.7374 H   0  0  0  0  0  0  0  0  0  0  0  0
    1.9673   -6.8350    2.3554 H   0  0  0  0  0  0  0  0  0  0  0  0
    1.7070   -4.7808    1.8184 H   0  0  0  0  0  0  0  0  0  0  0  0
    2.8982   -3.7006    2.5366 H   0  0  0  0  0  0  0  0  0  0  0  0
    2.8626   -0.3841    1.2020 H   0  0  0  0  0  0  0  0  0  0  0  0
    3.0638   -1.7139    2.4090 H   0  0  0  0  0  0  0  0  0  0  0  0
    4.8934    0.5494    1.9474 H   0  0  0  0  0  0  0  0  0  0  0  0
    4.2721   -0.1126    3.4987 H   0  0  0  0  0  0  0  0  0  0  0  0
    6.7313   -0.8524    2.4826 H   0  0  0  0  0  0  0  0  0  0  0  0
    5.7244   -2.0370    3.3293 H   0  0  0  0  0  0  0  0  0  0  0  0
    5.8506   -0.8697   -0.7894 H   0  0  0  0  0  0  0  0  0  0  0  0
    4.4703    0.1571   -0.3766 H   0  0  0  0  0  0  0  0  0  0  0  0
  1  6  2  0
  1  2  1  0
  1 22  1  0
  2  3  2  0
  2 23  1  0
  3  4  1  0
  4 21  1  0
  4  5  2  0
  5  6  1  0
  5  7  1  0
  6 24  1  0
  7 15  1  1
  7  8  1  0
  7 16  1  0
  8  9  1  0
  8 25  1  0
  8 26  1  0
  9 13  1  6
  9 10  1  0
  9 14  1  0
 10 11  1  0
 10 27  1  0
 10 28  1  0
 11 12  1  0
 11 29  1  0
 11 30  1  0
 12 13  1  0
 12 31  1  0
 12 32  1  0
 14 15  1  0
 14 33  1  0
 14 34  1  0
 16 20  1  1
 16 17  1  0
 16 21  1  0
 17 18  1  0
 17 35  1  0
 17 36  1  0
 18 19  1  0
 18 37  1  0
 18 38  1  0
 19 20  1  0
 19 39  1  0
 19 40  1  0
 21 41  1  0
 21 42  1  0
M  END
>  <i_m_ct_stereo_status>  (48) 
1

>  <s_m_source_file>  (48) 
/var/tmp/pbs.5076255.sched01/tmpmzpp47sj/0ood7iq68.sdf

>  <i_m_source_file_index>  (48) 
25

>  <i_lp_mmshare_version>  (48) 
48012

>  <i_f3d_flags>  (48) 
0

>  <s_epik_input>  (48) 
bjFbY0hdW2NIXVtjSF1jMmMxW0NIMl1bQ0BAXTMoW0NIMl1bQ0gyXVtDSDJdTzMpW0NAXTI0W0NIMl1bQ0BdNShbQ0gyXU80KVtDSDJdW0NIMl1bQ0gyXU81

>  <s_epik_cmdline>  (48) 
J2VwaWtfcHl0aG9uJywgJy1waHQnLCAnMi4wJywgJy1waCcsICc3LjAnLCAnLXRuJywgJzgnLCAnLW1hJywgJzIwMCcsICctaW1hZScsICc8aW5maWxlLm1hZT4nLCAnLW9tYWUnLCAnPG91dGZpbGUubWFlPic=

>  <r_epik_Ionization_Penalty>  (48) 
0.110345

>  <r_epik_Ionization_Penalty_Charging>  (48) 
0

>  <r_epik_Ionization_Penalty_Neutral>  (48) 
0.110345

>  <r_epik_State_Penalty>  (48) 
0.100095

>  <r_epik_Charging_Adjusted_Penalty>  (48) 
0.100095

>  <i_epik_Tot_Q>  (48) 
0

>  <i_epik_Tot_abs_Q>  (48) 
0

>  <s_lp_Force_Field>  (48) 
OPLS3e

>  <r_lp_Energy>  (48) 
21.7991

>  <b_lp_Chiralities_Consistent>  (48) 
1

>  <s_lp_Variant>  (48) 
14:0-1

>  <s_i_glide_gridfile>  (48) 
pfpi4k_grid

>  <i_i_glide_lignum>  (48) 
25

>  <i_i_glide_rotatable_bonds>  (48) 
0

>  <r_i_docking_score>  (48) 
-3.45117

>  <r_i_glide_ligand_efficiency>  (48) 
-0.164342

>  <r_i_glide_ligand_efficiency_sa>  (48) 
-0.453406

>  <r_i_glide_ligand_efficiency_ln>  (48) 
-0.853295

>  <r_i_glide_gscore>  (48) 
-3.45117

>  <r_i_glide_lipo>  (48) 
-0.732662

>  <r_i_glide_hbond>  (48) 
0

>  <r_i_glide_metal>  (48) 
-0

>  <r_i_glide_rewards>  (48) 
-1.44986

>  <r_i_glide_evdw>  (48) 
-23.4034

>  <r_i_glide_ecoul>  (48) 
-0.656516

>  <r_i_glide_erotb>  (48) 
0

>  <r_i_glide_esite>  (48) 
0

>  <r_i_glide_emodel>  (48) 
-28.4264

>  <r_i_glide_energy>  (48) 
-24.0599

>  <r_i_glide_einternal>  (48) 
0

>  <r_i_glide_intrahb_reward>  (48) 
-0

>  <i_i_glide_confnum>  (48) 
4

>  <i_i_glide_posenum>  (48) 
21

>  <r_i_glide_eff_state_penalty>  (48) 
0

>  <ligand_id>  (48) 
14

>  <original_smiles>  (48) 
c1cnc2c(c1)C1(CC3(CCCO3)CO1)C1(CCCO1)C2

>  <smiles>  (48) 
[H]c1nc2c(c([H])c1[H])C1(OC([H])([H])C3(OC([H])([H])C([H])([H])C3([H])[H])C1([H])[H])C1(OC([H])([H])C([H])([H])C1([H])[H])C2([H])[H]

$$$$
14:0:1
     RDKit          3D

 42 46  0  0  1  0  0  0  0  0999 V2000
   -2.1112    2.3057    8.1007 C   0  0  0  0  0  0  0  0  0  0  0  0
   -2.6143    3.3203    7.2549 C   0  0  0  0  0  0  0  0  0  0  0  0
   -2.3023    3.4139    5.9365 N   0  0  0  0  0  0  0  0  0  0  0  0
   -1.4769    2.4768    5.4568 C   0  0  0  0  0  0  0  0  0  0  0  0
   -0.9287    1.4480    6.2079 C   0  0  0  0  0  0  0  0  0  0  0  0
   -1.2288    1.3469    7.5717 C   0  0  0  0  0  0  0  0  0  0  0  0
    0.0826    0.6223    5.4494 C   0  0  2  0  0  0  0  0  0  0  0  0
   -0.3649   -0.8552    5.3222 C   0  0  0  0  0  0  0  0  0  0  0  0
    0.9434   -1.6752    5.5699 C   0  0  2  0  0  0  0  0  0  0  0  0
    1.3631   -2.5480    4.3727 C   0  0  0  0  0  0  0  0  0  0  0  0
    0.8255   -3.9039    4.7623 C   0  0  0  0  0  0  0  0  0  0  0  0
    0.9902   -3.8970    6.2892 C   0  0  0  0  0  0  0  0  0  0  0  0
    0.7281   -2.5268    6.6716 O   0  0  0  0  0  0  0  0  0  0  0  0
    1.9933   -0.5969    5.8330 C   0  0  0  0  0  0  0  0  0  0  0  0
    1.2963    0.5810    6.1714 O   0  0  0  0  0  0  0  0  0  0  0  0
    0.1804    1.3848    4.0502 C   0  0  1  0  0  0  0  0  0  0  0  0
    1.5623    2.0408    3.7923 C   0  0  0  0  0  0  0  0  0  0  0  0
    1.7206    1.9779    2.2613 C   0  0  0  0  0  0  0  0  0  0  0  0
    0.4308    1.3124    1.7904 C   0  0  0  0  0  0  0  0  0  0  0  0
    0.0069    0.5511    2.9123 O   0  0  0  0  0  0  0  0  0  0  0  0
   -0.9457    2.4751    4.0543 C   0  0  0  0  0  0  0  0  0  0  0  0
   -2.3795    2.2900    9.1543 H   0  0  0  0  0  0  0  0  0  0  0  0
   -3.2855    4.0738    7.6394 H   0  0  0  0  0  0  0  0  0  0  0  0
   -0.7615    0.5917    8.1903 H   0  0  0  0  0  0  0  0  0  0  0  0
   -1.0539   -1.1505    6.1098 H   0  0  0  0  0  0  0  0  0  0  0  0
   -0.8176   -1.1030    4.3747 H   0  0  0  0  0  0  0  0  0  0  0  0
    1.0566   -2.1857    3.3969 H   0  0  0  0  0  0  0  0  0  0  0  0
    2.4706   -2.6353    4.3806 H   0  0  0  0  0  0  0  0  0  0  0  0
   -0.2287   -3.9569    4.4923 H   0  0  0  0  0  0  0  0  0  0  0  0
    1.3931   -4.7277    4.2871 H   0  0  0  0  0  0  0  0  0  0  0  0
    0.2809   -4.5484    6.7926 H   0  0  0  0  0  0  0  0  0  0  0  0
    2.0059   -4.1510    6.5869 H   0  0  0  0  0  0  0  0  0  0  0  0
    2.7142   -0.9195    6.6043 H   0  0  0  0  0  0  0  0  0  0  0  0
    2.5474   -0.4213    4.9157 H   0  0  0  0  0  0  0  0  0  0  0  0
    1.5884    3.0639    4.1546 H   0  0  0  0  0  0  0  0  0  0  0  0
    2.4331    1.5127    4.1573 H   0  0  0  0  0  0  0  0  0  0  0  0
    1.8768    2.9796    1.8524 H   0  0  0  0  0  0  0  0  0  0  0  0
    2.5652    1.3350    2.0296 H   0  0  0  0  0  0  0  0  0  0  0  0
   -0.3090    2.0732    1.5411 H   0  0  0  0  0  0  0  0  0  0  0  0
    0.5906    0.6920    0.8941 H   0  0  0  0  0  0  0  0  0  0  0  0
   -1.7792    2.1927    3.4099 H   0  0  0  0  0  0  0  0  0  0  0  0
   -0.6012    3.4671    3.7396 H   0  0  0  0  0  0  0  0  0  0  0  0
  1  6  2  0
  1  2  1  0
  1 22  1  0
  2  3  2  0
  2 23  1  0
  3  4  1  0
  4 21  1  0
  4  5  2  0
  5  6  1  0
  5  7  1  0
  6 24  1  0
  7 15  1  1
  7  8  1  0
  7 16  1  0
  8  9  1  0
  8 25  1  0
  8 26  1  0
  9 13  1  1
  9 10  1  0
  9 14  1  0
 10 11  1  0
 10 27  1  0
 10 28  1  0
 11 12  1  0
 11 29  1  0
 11 30  1  0
 12 13  1  0
 12 31  1  0
 12 32  1  0
 14 15  1  0
 14 33  1  0
 14 34  1  0
 16 20  1  6
 16 17  1  0
 16 21  1  0
 17 18  1  0
 17 35  1  0
 17 36  1  0
 18 19  1  0
 18 37  1  0
 18 38  1  0
 19 20  1  0
 19 39  1  0
 19 40  1  0
 21 41  1  0
 21 42  1  0
M  END
>  <i_m_ct_stereo_status>  (49) 
1

>  <s_m_source_file>  (49) 
/var/tmp/pbs.5076255.sched01/tmpmzpp47sj/0ood7iq68.sdf

>  <i_m_source_file_index>  (49) 
25

>  <i_lp_mmshare_version>  (49) 
48012

>  <i_f3d_flags>  (49) 
0

>  <s_epik_input>  (49) 
bjFbY0hdW2NIXVtjSF1jMmMxW0NIMl1bQ0BAXTMoW0NIMl1bQ0gyXVtDSDJdTzMpW0NAXTI0W0NIMl1bQ0BdNShbQ0gyXU80KVtDSDJdW0NIMl1bQ0gyXU81

>  <s_epik_cmdline>  (49) 
J2VwaWtfcHl0aG9uJywgJy1waHQnLCAnMi4wJywgJy1waCcsICc3LjAnLCAnLXRuJywgJzgnLCAnLW1hJywgJzIwMCcsICctaW1hZScsICc8aW5maWxlLm1hZT4nLCAnLW9tYWUnLCAnPG91dGZpbGUubWFlPic=

>  <r_epik_Ionization_Penalty>  (49) 
0.110345

>  <r_epik_Ionization_Penalty_Charging>  (49) 
0

>  <r_epik_Ionization_Penalty_Neutral>  (49) 
0.110345

>  <r_epik_State_Penalty>  (49) 
0.100095

>  <r_epik_Charging_Adjusted_Penalty>  (49) 
0.100095

>  <i_epik_Tot_Q>  (49) 
0

>  <i_epik_Tot_abs_Q>  (49) 
0

>  <s_lp_Force_Field>  (49) 
OPLS3e

>  <r_lp_Energy>  (49) 
21.7991

>  <b_lp_Chiralities_Consistent>  (49) 
1

>  <s_lp_Variant>  (49) 
14:0-1

>  <s_i_glide_gridfile>  (49) 
pfpi4k_grid

>  <i_i_glide_lignum>  (49) 
25

>  <i_i_glide_rotatable_bonds>  (49) 
0

>  <r_i_docking_score>  (49) 
-2.88344

>  <r_i_glide_ligand_efficiency>  (49) 
-0.137307

>  <r_i_glide_ligand_efficiency_sa>  (49) 
-0.378819

>  <r_i_glide_ligand_efficiency_ln>  (49) 
-0.712925

>  <r_i_glide_gscore>  (49) 
-2.88344

>  <r_i_glide_lipo>  (49) 
-0.152364

>  <r_i_glide_hbond>  (49) 
0

>  <r_i_glide_metal>  (49) 
-0

>  <r_i_glide_rewards>  (49) 
-1.44986

>  <r_i_glide_evdw>  (49) 
-19.7245

>  <r_i_glide_ecoul>  (49) 
-1.96658

>  <r_i_glide_erotb>  (49) 
0

>  <r_i_glide_esite>  (49) 
0

>  <r_i_glide_emodel>  (49) 
-25.5048

>  <r_i_glide_energy>  (49) 
-21.6911

>  <r_i_glide_einternal>  (49) 
0

>  <r_i_glide_intrahb_reward>  (49) 
-0

>  <i_i_glide_confnum>  (49) 
6

>  <i_i_glide_posenum>  (49) 
12

>  <r_i_glide_eff_state_penalty>  (49) 
0

>  <ligand_id>  (49) 
14

>  <original_smiles>  (49) 
c1cnc2c(c1)C1(CC3(CCCO3)CO1)C1(CCCO1)C2

>  <smiles>  (49) 
[H]c1nc2c(c([H])c1[H])C1(OC([H])([H])C3(OC([H])([H])C([H])([H])C3([H])[H])C1([H])[H])C1(OC([H])([H])C([H])([H])C1([H])[H])C2([H])[H]

$$$$
14:0:2
     RDKit          3D

 42 46  0  0  1  0  0  0  0  0999 V2000
   -3.1833    3.0892    8.6463 C   0  0  0  0  0  0  0  0  0  0  0  0
   -2.4753    3.2597    9.8553 C   0  0  0  0  0  0  0  0  0  0  0  0
   -1.2220    2.7710   10.0626 N   0  0  0  0  0  0  0  0  0  0  0  0
   -0.6763    2.0968    9.0415 C   0  0  0  0  0  0  0  0  0  0  0  0
   -1.2936    1.8636    7.8209 C   0  0  0  0  0  0  0  0  0  0  0  0
   -2.5815    2.3740    7.5859 C   0  0  0  0  0  0  0  0  0  0  0  0
   -0.4931    0.9753    6.9113 C   0  0  2  0  0  0  0  0  0  0  0  0
   -0.0866    1.6874    5.5927 C   0  0  0  0  0  0  0  0  0  0  0  0
   -0.2974    0.6155    4.5080 C   0  0  2  0  0  0  0  0  0  0  0  0
    0.9695    0.2283    3.7117 C   0  0  0  0  0  0  0  0  0  0  0  0
    0.8188    0.9362    2.3671 C   0  0  0  0  0  0  0  0  0  0  0  0
   -0.4967    1.7227    2.5048 C   0  0  0  0  0  0  0  0  0  0  0  0
   -1.2370    1.0493    3.5249 O   0  0  0  0  0  0  0  0  0  0  0  0
   -0.8445   -0.5954    5.2566 C   0  0  0  0  0  0  0  0  0  0  0  0
   -1.3210   -0.1177    6.4986 O   0  0  0  0  0  0  0  0  0  0  0  0
    0.7348    0.5427    7.8201 C   0  0  1  0  0  0  0  0  0  0  0  0
    0.7725   -0.9655    8.1841 C   0  0  0  0  0  0  0  0  0  0  0  0
    2.2555   -1.2854    8.3100 C   0  0  0  0  0  0  0  0  0  0  0  0
    2.9642    0.0431    8.0205 C   0  0  0  0  0  0  0  0  0  0  0  0
    2.0201    0.7519    7.2202 O   0  0  0  0  0  0  0  0  0  0  0  0
    0.6572    1.4168    9.1213 C   0  0  0  0  0  0  0  0  0  0  0  0
   -4.1862    3.4787    8.5379 H   0  0  0  0  0  0  0  0  0  0  0  0
   -2.9049    3.8080   10.6845 H   0  0  0  0  0  0  0  0  0  0  0  0
   -3.0937    2.1705    6.6576 H   0  0  0  0  0  0  0  0  0  0  0  0
   -0.7511    2.5291    5.3718 H   0  0  0  0  0  0  0  0  0  0  0  0
    0.9366    2.0815    5.6107 H   0  0  0  0  0  0  0  0  0  0  0  0
    1.9109    0.4657    4.2331 H   0  0  0  0  0  0  0  0  0  0  0  0
    0.9649   -0.8493    3.4986 H   0  0  0  0  0  0  0  0  0  0  0  0
    1.6776    1.5926    2.1545 H   0  0  0  0  0  0  0  0  0  0  0  0
    0.7278    0.1752    1.5751 H   0  0  0  0  0  0  0  0  0  0  0  0
   -0.2834    2.7581    2.7989 H   0  0  0  0  0  0  0  0  0  0  0  0
   -1.0656    1.7188    1.5760 H   0  0  0  0  0  0  0  0  0  0  0  0
   -1.6075   -1.1207    4.6768 H   0  0  0  0  0  0  0  0  0  0  0  0
   -0.0226   -1.2824    5.4565 H   0  0  0  0  0  0  0  0  0  0  0  0
    0.2284   -1.1540    9.1171 H   0  0  0  0  0  0  0  0  0  0  0  0
    0.4000   -1.6315    7.4024 H   0  0  0  0  0  0  0  0  0  0  0  0
    2.4961   -1.6992    9.2939 H   0  0  0  0  0  0  0  0  0  0  0  0
    2.5310   -2.0038    7.5351 H   0  0  0  0  0  0  0  0  0  0  0  0
    3.1451    0.5807    8.9591 H   0  0  0  0  0  0  0  0  0  0  0  0
    3.9249   -0.0788    7.5075 H   0  0  0  0  0  0  0  0  0  0  0  0
    1.4095    2.2062    9.1237 H   0  0  0  0  0  0  0  0  0  0  0  0
    0.7657    0.8439   10.0462 H   0  0  0  0  0  0  0  0  0  0  0  0
  1  6  2  0
  1  2  1  0
  1 22  1  0
  2  3  2  0
  2 23  1  0
  3  4  1  0
  4 21  1  0
  4  5  2  0
  5  6  1  0
  5  7  1  0
  6 24  1  0
  7 15  1  6
  7  8  1  0
  7 16  1  0
  8  9  1  0
  8 25  1  0
  8 26  1  0
  9 13  1  6
  9 10  1  0
  9 14  1  0
 10 11  1  0
 10 27  1  0
 10 28  1  0
 11 12  1  0
 11 29  1  0
 11 30  1  0
 12 13  1  0
 12 31  1  0
 12 32  1  0
 14 15  1  0
 14 33  1  0
 14 34  1  0
 16 20  1  6
 16 17  1  0
 16 21  1  0
 17 18  1  0
 17 35  1  0
 17 36  1  0
 18 19  1  0
 18 37  1  0
 18 38  1  0
 19 20  1  0
 19 39  1  0
 19 40  1  0
 21 41  1  0
 21 42  1  0
M  END
>  <i_m_ct_stereo_status>  (50) 
1

>  <s_m_source_file>  (50) 
/var/tmp/pbs.5076255.sched01/tmpmzpp47sj/0ood7iq68.sdf

>  <i_m_source_file_index>  (50) 
25

>  <i_lp_mmshare_version>  (50) 
48012

>  <i_f3d_flags>  (50) 
0

>  <s_epik_input>  (50) 
bjFbY0hdW2NIXVtjSF1jMmMxW0NIMl1bQ0BAXTMoW0NIMl1bQ0gyXVtDSDJdTzMpW0NAXTI0W0NIMl1bQ0BdNShbQ0gyXU80KVtDSDJdW0NIMl1bQ0gyXU81

>  <s_epik_cmdline>  (50) 
J2VwaWtfcHl0aG9uJywgJy1waHQnLCAnMi4wJywgJy1waCcsICc3LjAnLCAnLXRuJywgJzgnLCAnLW1hJywgJzIwMCcsICctaW1hZScsICc8aW5maWxlLm1hZT4nLCAnLW9tYWUnLCAnPG91dGZpbGUubWFlPic=

>  <r_epik_Ionization_Penalty>  (50) 
0.110345

>  <r_epik_Ionization_Penalty_Charging>  (50) 
0

>  <r_epik_Ionization_Penalty_Neutral>  (50) 
0.110345

>  <r_epik_State_Penalty>  (50) 
0.100095

>  <r_epik_Charging_Adjusted_Penalty>  (50) 
0.100095

>  <i_epik_Tot_Q>  (50) 
0

>  <i_epik_Tot_abs_Q>  (50) 
0

>  <s_lp_Force_Field>  (50) 
OPLS3e

>  <r_lp_Energy>  (50) 
21.7991

>  <b_lp_Chiralities_Consistent>  (50) 
1

>  <s_lp_Variant>  (50) 
14:0-1

>  <s_i_glide_gridfile>  (50) 
pfpi4k_grid

>  <i_i_glide_lignum>  (50) 
25

>  <i_i_glide_rotatable_bonds>  (50) 
0

>  <r_i_docking_score>  (50) 
-2.86772

>  <r_i_glide_ligand_efficiency>  (50) 
-0.136558

>  <r_i_glide_ligand_efficiency_sa>  (50) 
-0.376754

>  <r_i_glide_ligand_efficiency_ln>  (50) 
-0.709039

>  <r_i_glide_gscore>  (50) 
-2.86772

>  <r_i_glide_lipo>  (50) 
-0.0755602

>  <r_i_glide_hbond>  (50) 
-0.135824

>  <r_i_glide_metal>  (50) 
-0

>  <r_i_glide_rewards>  (50) 
-1.44986

>  <r_i_glide_evdw>  (50) 
-18.9886

>  <r_i_glide_ecoul>  (50) 
-1.71364

>  <r_i_glide_erotb>  (50) 
0

>  <r_i_glide_esite>  (50) 
0

>  <r_i_glide_emodel>  (50) 
-24.4794

>  <r_i_glide_energy>  (50) 
-20.7023

>  <r_i_glide_einternal>  (50) 
0

>  <r_i_glide_intrahb_reward>  (50) 
-0

>  <i_i_glide_confnum>  (50) 
3

>  <i_i_glide_posenum>  (50) 
4

>  <r_i_glide_eff_state_penalty>  (50) 
0

>  <ligand_id>  (50) 
14

>  <original_smiles>  (50) 
c1cnc2c(c1)C1(CC3(CCCO3)CO1)C1(CCCO1)C2

>  <smiles>  (50) 
[H]c1nc2c(c([H])c1[H])C1(OC([H])([H])C3(OC([H])([H])C([H])([H])C3([H])[H])C1([H])[H])C1(OC([H])([H])C([H])([H])C1([H])[H])C2([H])[H]

$$$$
14:1:0
     RDKit          3D

 43 47  0  0  1  0  0  0  0  0999 V2000
   -5.4606   -6.5537   -5.0531 C   0  0  0  0  0  0  0  0  0  0  0  0
   -6.1475   -5.3612   -4.7326 C   0  0  0  0  0  0  0  0  0  0  0  0
   -7.2876   -5.0217   -5.3906 N   0  0  0  0  0  0  0  0  0  0  0  0
   -7.7516   -5.8098   -6.3963 C   0  0  0  0  0  0  0  0  0  0  0  0
   -7.0731   -6.9533   -6.7702 C   0  0  0  0  0  0  0  0  0  0  0  0
   -5.9180   -7.3663   -6.0946 C   0  0  0  0  0  0  0  0  0  0  0  0
   -7.8492   -7.7151   -7.8177 C   0  0  2  0  0  0  0  0  0  0  0  0
   -8.3607   -8.9835   -7.1217 C   0  0  0  0  0  0  0  0  0  0  0  0
   -8.4198  -10.0818   -8.1617 C   0  0  2  0  0  0  0  0  0  0  0  0
   -9.8731  -10.5586   -8.3805 C   0  0  0  0  0  0  0  0  0  0  0  0
   -9.7136  -12.0247   -8.7308 C   0  0  0  0  0  0  0  0  0  0  0  0
   -8.2006  -12.2730   -8.6956 C   0  0  0  0  0  0  0  0  0  0  0  0
   -7.7094  -11.2626   -7.8167 O   0  0  0  0  0  0  0  0  0  0  0  0
   -7.7672   -9.4104   -9.3624 C   0  0  0  0  0  0  0  0  0  0  0  0
   -7.0966   -8.2404   -8.8847 O   0  0  0  0  0  0  0  0  0  0  0  0
   -8.9465   -6.6741   -8.3200 C   0  0  1  0  0  0  0  0  0  0  0  0
   -8.5993   -6.0287   -9.6838 C   0  0  0  0  0  0  0  0  0  0  0  0
   -9.3666   -6.7736  -10.7368 C   0  0  0  0  0  0  0  0  0  0  0  0
  -10.5870   -7.2275   -9.9278 C   0  0  0  0  0  0  0  0  0  0  0  0
  -10.2420   -7.2621   -8.5442 O   0  0  0  0  0  0  0  0  0  0  0  0
   -9.0040   -5.5693   -7.1912 C   0  0  0  0  0  0  0  0  0  0  0  0
   -4.6057   -6.8582   -4.4893 H   0  0  0  0  0  0  0  0  0  0  0  0
   -5.8703   -4.6320   -3.9865 H   0  0  0  0  0  0  0  0  0  0  0  0
   -5.4419   -8.3029   -6.3228 H   0  0  0  0  0  0  0  0  0  0  0  0
   -7.7400   -9.3535   -6.2956 H   0  0  0  0  0  0  0  0  0  0  0  0
   -9.3631   -8.7460   -6.7455 H   0  0  0  0  0  0  0  0  0  0  0  0
  -10.4908  -10.4954   -7.4761 H   0  0  0  0  0  0  0  0  0  0  0  0
  -10.4140  -10.0000   -9.1562 H   0  0  0  0  0  0  0  0  0  0  0  0
  -10.2047  -12.5923   -7.9414 H   0  0  0  0  0  0  0  0  0  0  0  0
  -10.1603  -12.2495   -9.7018 H   0  0  0  0  0  0  0  0  0  0  0  0
   -7.9303  -13.2582   -8.3141 H   0  0  0  0  0  0  0  0  0  0  0  0
   -7.7791  -12.1670   -9.7021 H   0  0  0  0  0  0  0  0  0  0  0  0
   -7.0024  -10.0296   -9.8517 H   0  0  0  0  0  0  0  0  0  0  0  0
   -8.5692   -9.2102  -10.0806 H   0  0  0  0  0  0  0  0  0  0  0  0
   -8.9989   -5.0308   -9.6790 H   0  0  0  0  0  0  0  0  0  0  0  0
   -7.5240   -5.9589   -9.8477 H   0  0  0  0  0  0  0  0  0  0  0  0
   -9.6571   -6.1409  -11.5745 H   0  0  0  0  0  0  0  0  0  0  0  0
   -8.7589   -7.5942  -11.1293 H   0  0  0  0  0  0  0  0  0  0  0  0
  -11.3930   -6.5121  -10.0386 H   0  0  0  0  0  0  0  0  0  0  0  0
  -10.9995   -8.1675  -10.2806 H   0  0  0  0  0  0  0  0  0  0  0  0
   -9.8931   -5.6668   -6.5507 H   0  0  0  0  0  0  0  0  0  0  0  0
   -9.0163   -4.5429   -7.5713 H   0  0  0  0  0  0  0  0  0  0  0  0
   -7.7874   -4.1987   -5.1294 H   0  0  0  0  0  0  0  0  0  0  0  0
  1  6  2  0
  1  2  1  0
  1 22  1  0
  2  3  2  0
  2 23  1  0
  3  4  1  0
  3 43  1  0
  4 21  1  0
  4  5  2  0
  5  6  1  0
  5  7  1  0
  6 24  1  0
  7 15  1  6
  7  8  1  0
  7 16  1  0
  8  9  1  0
  8 25  1  0
  8 26  1  0
  9 13  1  1
  9 10  1  0
  9 14  1  0
 10 11  1  0
 10 27  1  0
 10 28  1  0
 11 12  1  0
 11 29  1  0
 11 30  1  0
 12 13  1  0
 12 31  1  0
 12 32  1  0
 14 15  1  0
 14 33  1  0
 14 34  1  0
 16 20  1  6
 16 17  1  0
 16 21  1  0
 17 18  1  0
 17 35  1  0
 17 36  1  0
 18 19  1  0
 18 37  1  0
 18 38  1  0
 19 20  1  0
 19 39  1  0
 19 40  1  0
 21 41  1  0
 21 42  1  0
M  CHG  1   3   1
M  END
>  <i_m_ct_stereo_status>  (51) 
1

>  <s_m_source_file>  (51) 
/var/tmp/pbs.5076255.sched01/tmpmzpp47sj/0ood7iq68.sdf

>  <i_m_source_file_index>  (51) 
26

>  <i_lp_mmshare_version>  (51) 
48012

>  <i_f3d_flags>  (51) 
0

>  <s_epik_input>  (51) 
bjFbY0hdW2NIXVtjSF1jMmMxW0NIMl1bQ0BAXTMoW0NIMl1bQ0gyXVtDSDJdTzMpW0NAXTI0W0NIMl1bQ0BdNShbQ0gyXU80KVtDSDJdW0NIMl1bQ0gyXU81

>  <s_epik_cmdline>  (51) 
J2VwaWtfcHl0aG9uJywgJy1waHQnLCAnMi4wJywgJy1waCcsICc3LjAnLCAnLXRuJywgJzgnLCAnLW1hJywgJzIwMCcsICctaW1hZScsICc8aW5maWxlLm1hZT4nLCAnLW9tYWUnLCAnPG91dGZpbGUubWFlPic=

>  <r_epik_Ionization_Penalty>  (51) 
1.05012

>  <r_epik_Ionization_Penalty_Charging>  (51) 
1.05012

>  <r_epik_Ionization_Penalty_Neutral>  (51) 
2.66958e-12

>  <r_epik_State_Penalty>  (51) 
1.10291

>  <r_epik_Charging_Adjusted_Penalty>  (51) 
2.15302

>  <i_epik_Tot_Q>  (51) 
1

>  <i_epik_Tot_abs_Q>  (51) 
1

>  <s_lp_Force_Field>  (51) 
OPLS3e

>  <r_lp_Energy>  (51) 
21.4492

>  <b_lp_Chiralities_Consistent>  (51) 
1

>  <s_lp_Variant>  (51) 
14:0-2

>  <s_i_glide_gridfile>  (51) 
pfpi4k_grid

>  <i_i_glide_lignum>  (51) 
26

>  <i_i_glide_rotatable_bonds>  (51) 
0

>  <r_i_docking_score>  (51) 
-5.1999

>  <r_i_glide_ligand_efficiency>  (51) 
-0.247614

>  <r_i_glide_ligand_efficiency_sa>  (51) 
-0.683149

>  <r_i_glide_ligand_efficiency_ln>  (51) 
-1.28567

>  <r_i_glide_gscore>  (51) 
-5.1999

>  <r_i_glide_lipo>  (51) 
-2.2589

>  <r_i_glide_hbond>  (51) 
0

>  <r_i_glide_metal>  (51) 
-0

>  <r_i_glide_rewards>  (51) 
-1.82003

>  <r_i_glide_evdw>  (51) 
-23.3492

>  <r_i_glide_ecoul>  (51) 
0.30995

>  <r_i_glide_erotb>  (51) 
0

>  <r_i_glide_esite>  (51) 
0

>  <r_i_glide_emodel>  (51) 
-32.5267

>  <r_i_glide_energy>  (51) 
-23.0392

>  <r_i_glide_einternal>  (51) 
0

>  <r_i_glide_intrahb_reward>  (51) 
-0

>  <i_i_glide_confnum>  (51) 
4

>  <i_i_glide_posenum>  (51) 
8

>  <r_i_glide_eff_state_penalty>  (51) 
0

>  <ligand_id>  (51) 
14

>  <original_smiles>  (51) 
c1cnc2c(c1)C1(CC3(CCCO3)CO1)C1(CCCO1)C2

>  <smiles>  (51) 
[H]c1c([H])c([H])[n+]([H])c2c1C1(OC([H])([H])C3(OC([H])([H])C([H])([H])C3([H])[H])C1([H])[H])C1(OC([H])([H])C([H])([H])C1([H])[H])C2([H])[H]

$$$$
14:1:1
     RDKit          3D

 43 47  0  0  1  0  0  0  0  0999 V2000
   -4.8107   -9.0390   -5.1139 C   0  0  0  0  0  0  0  0  0  0  0  0
   -3.9693  -10.0988   -5.5237 C   0  0  0  0  0  0  0  0  0  0  0  0
   -4.3531  -10.9493   -6.4944 N   0  0  0  0  0  0  0  0  0  0  0  0
   -5.5472  -10.8058   -7.1004 C   0  0  0  0  0  0  0  0  0  0  0  0
   -6.4133   -9.8036   -6.7345 C   0  0  0  0  0  0  0  0  0  0  0  0
   -6.0665   -8.8729   -5.7308 C   0  0  0  0  0  0  0  0  0  0  0  0
   -7.6130   -9.7691   -7.6396 C   0  0  2  0  0  0  0  0  0  0  0  0
   -7.4765   -8.5202   -8.5058 C   0  0  0  0  0  0  0  0  0  0  0  0
   -8.9121   -8.0520   -8.7500 C   0  0  2  0  0  0  0  0  0  0  0  0
   -9.2314   -7.9757  -10.2366 C   0  0  0  0  0  0  0  0  0  0  0  0
   -8.8414   -6.5387  -10.5882 C   0  0  0  0  0  0  0  0  0  0  0  0
   -8.4778   -5.8712   -9.2540 C   0  0  0  0  0  0  0  0  0  0  0  0
   -9.0769   -6.7171   -8.2887 O   0  0  0  0  0  0  0  0  0  0  0  0
   -9.7716   -9.0147   -7.9315 C   0  0  0  0  0  0  0  0  0  0  0  0
   -8.8520   -9.5646   -6.9820 O   0  0  0  0  0  0  0  0  0  0  0  0
   -7.5490  -11.1324   -8.4179 C   0  0  1  0  0  0  0  0  0  0  0  0
   -8.5404  -12.2024   -7.8873 C   0  0  0  0  0  0  0  0  0  0  0  0
   -8.8865  -13.0502   -9.1032 C   0  0  0  0  0  0  0  0  0  0  0  0
   -8.1628  -12.3597  -10.2642 C   0  0  0  0  0  0  0  0  0  0  0  0
   -7.8872  -11.0330   -9.8119 O   0  0  0  0  0  0  0  0  0  0  0  0
   -6.0780  -11.6377   -8.2316 C   0  0  0  0  0  0  0  0  0  0  0  0
   -4.4886   -8.3610   -4.3441 H   0  0  0  0  0  0  0  0  0  0  0  0
   -2.9962  -10.3046   -5.0999 H   0  0  0  0  0  0  0  0  0  0  0  0
   -6.7183   -8.0472   -5.4920 H   0  0  0  0  0  0  0  0  0  0  0  0
   -6.9666   -7.7241   -7.9513 H   0  0  0  0  0  0  0  0  0  0  0  0
   -6.8839   -8.6984   -9.4099 H   0  0  0  0  0  0  0  0  0  0  0  0
   -8.6542   -8.7159  -10.8054 H   0  0  0  0  0  0  0  0  0  0  0  0
  -10.2935   -8.1689  -10.4313 H   0  0  0  0  0  0  0  0  0  0  0  0
   -7.9918   -6.5139  -11.2716 H   0  0  0  0  0  0  0  0  0  0  0  0
   -9.6995   -6.0467  -11.0459 H   0  0  0  0  0  0  0  0  0  0  0  0
   -7.3987   -5.8703   -9.0912 H   0  0  0  0  0  0  0  0  0  0  0  0
   -8.8152   -4.8400   -9.1407 H   0  0  0  0  0  0  0  0  0  0  0  0
  -10.6198   -8.5074   -7.4427 H   0  0  0  0  0  0  0  0  0  0  0  0
  -10.1823   -9.8082   -8.5762 H   0  0  0  0  0  0  0  0  0  0  0  0
   -8.1251  -12.7863   -7.0487 H   0  0  0  0  0  0  0  0  0  0  0  0
   -9.4656  -11.7492   -7.5433 H   0  0  0  0  0  0  0  0  0  0  0  0
   -8.5544  -14.0810   -8.9806 H   0  0  0  0  0  0  0  0  0  0  0  0
   -9.9698  -13.0386   -9.2595 H   0  0  0  0  0  0  0  0  0  0  0  0
   -7.2233  -12.8757  -10.4816 H   0  0  0  0  0  0  0  0  0  0  0  0
   -8.7593  -12.3596  -11.1803 H   0  0  0  0  0  0  0  0  0  0  0  0
   -5.4832  -11.4541   -9.1402 H   0  0  0  0  0  0  0  0  0  0  0  0
   -6.0159  -12.7112   -8.0069 H   0  0  0  0  0  0  0  0  0  0  0  0
   -3.7313  -11.6973   -6.7804 H   0  0  0  0  0  0  0  0  0  0  0  0
  1  6  2  0
  1  2  1  0
  1 22  1  0
  2  3  2  0
  2 23  1  0
  3  4  1  0
  3 43  1  0
  4 21  1  0
  4  5  2  0
  5  6  1  0
  5  7  1  0
  6 24  1  0
  7 15  1  1
  7  8  1  0
  7 16  1  0
  8  9  1  0
  8 25  1  0
  8 26  1  0
  9 13  1  1
  9 10  1  0
  9 14  1  0
 10 11  1  0
 10 27  1  0
 10 28  1  0
 11 12  1  0
 11 29  1  0
 11 30  1  0
 12 13  1  0
 12 31  1  0
 12 32  1  0
 14 15  1  0
 14 33  1  0
 14 34  1  0
 16 20  1  6
 16 17  1  0
 16 21  1  0
 17 18  1  0
 17 35  1  0
 17 36  1  0
 18 19  1  0
 18 37  1  0
 18 38  1  0
 19 20  1  0
 19 39  1  0
 19 40  1  0
 21 41  1  0
 21 42  1  0
M  CHG  1   3   1
M  END
>  <i_m_ct_stereo_status>  (52) 
1

>  <s_m_source_file>  (52) 
/var/tmp/pbs.5076255.sched01/tmpmzpp47sj/0ood7iq68.sdf

>  <i_m_source_file_index>  (52) 
26

>  <i_lp_mmshare_version>  (52) 
48012

>  <i_f3d_flags>  (52) 
0

>  <s_epik_input>  (52) 
bjFbY0hdW2NIXVtjSF1jMmMxW0NIMl1bQ0BAXTMoW0NIMl1bQ0gyXVtDSDJdTzMpW0NAXTI0W0NIMl1bQ0BdNShbQ0gyXU80KVtDSDJdW0NIMl1bQ0gyXU81

>  <s_epik_cmdline>  (52) 
J2VwaWtfcHl0aG9uJywgJy1waHQnLCAnMi4wJywgJy1waCcsICc3LjAnLCAnLXRuJywgJzgnLCAnLW1hJywgJzIwMCcsICctaW1hZScsICc8aW5maWxlLm1hZT4nLCAnLW9tYWUnLCAnPG91dGZpbGUubWFlPic=

>  <r_epik_Ionization_Penalty>  (52) 
1.05012

>  <r_epik_Ionization_Penalty_Charging>  (52) 
1.05012

>  <r_epik_Ionization_Penalty_Neutral>  (52) 
2.66958e-12

>  <r_epik_State_Penalty>  (52) 
1.10291

>  <r_epik_Charging_Adjusted_Penalty>  (52) 
2.15302

>  <i_epik_Tot_Q>  (52) 
1

>  <i_epik_Tot_abs_Q>  (52) 
1

>  <s_lp_Force_Field>  (52) 
OPLS3e

>  <r_lp_Energy>  (52) 
21.4492

>  <b_lp_Chiralities_Consistent>  (52) 
1

>  <s_lp_Variant>  (52) 
14:0-2

>  <s_i_glide_gridfile>  (52) 
pfpi4k_grid

>  <i_i_glide_lignum>  (52) 
26

>  <i_i_glide_rotatable_bonds>  (52) 
0

>  <r_i_docking_score>  (52) 
-4.80707

>  <r_i_glide_ligand_efficiency>  (52) 
-0.228908

>  <r_i_glide_ligand_efficiency_sa>  (52) 
-0.63154

>  <r_i_glide_ligand_efficiency_ln>  (52) 
-1.18854

>  <r_i_glide_gscore>  (52) 
-4.80707

>  <r_i_glide_lipo>  (52) 
-1.71849

>  <r_i_glide_hbond>  (52) 
0

>  <r_i_glide_metal>  (52) 
-0

>  <r_i_glide_rewards>  (52) 
-1.66429

>  <r_i_glide_evdw>  (52) 
-23.8689

>  <r_i_glide_ecoul>  (52) 
-1.53896

>  <r_i_glide_erotb>  (52) 
0

>  <r_i_glide_esite>  (52) 
0

>  <r_i_glide_emodel>  (52) 
-34.9775

>  <r_i_glide_energy>  (52) 
-25.4079

>  <r_i_glide_einternal>  (52) 
0

>  <r_i_glide_intrahb_reward>  (52) 
-0

>  <i_i_glide_confnum>  (52) 
2

>  <i_i_glide_posenum>  (52) 
5

>  <r_i_glide_eff_state_penalty>  (52) 
0

>  <ligand_id>  (52) 
14

>  <original_smiles>  (52) 
c1cnc2c(c1)C1(CC3(CCCO3)CO1)C1(CCCO1)C2

>  <smiles>  (52) 
[H]c1c([H])c([H])[n+]([H])c2c1C1(OC([H])([H])C3(OC([H])([H])C([H])([H])C3([H])[H])C1([H])[H])C1(OC([H])([H])C([H])([H])C1([H])[H])C2([H])[H]

$$$$
14:1:2
     RDKit          3D

 43 47  0  0  1  0  0  0  0  0999 V2000
    1.0300   -2.3004    3.6257 C   0  0  0  0  0  0  0  0  0  0  0  0
    1.5361   -1.7664    2.4263 C   0  0  0  0  0  0  0  0  0  0  0  0
    1.3720   -0.4611    2.1361 N   0  0  0  0  0  0  0  0  0  0  0  0
    0.7553    0.3713    2.9806 C   0  0  0  0  0  0  0  0  0  0  0  0
    0.2281   -0.1090    4.1683 C   0  0  0  0  0  0  0  0  0  0  0  0
    0.3478   -1.4560    4.5369 C   0  0  0  0  0  0  0  0  0  0  0  0
   -0.2911    1.0130    5.0191 C   0  0  2  0  0  0  0  0  0  0  0  0
    0.6791    1.1867    6.1985 C   0  0  0  0  0  0  0  0  0  0  0  0
   -0.1926    1.6857    7.3518 C   0  0  2  0  0  0  0  0  0  0  0  0
    0.2783    3.0537    7.8765 C   0  0  0  0  0  0  0  0  0  0  0  0
    0.0453    2.9862    9.3761 C   0  0  0  0  0  0  0  0  0  0  0  0
   -0.5649    1.6056    9.6273 C   0  0  0  0  0  0  0  0  0  0  0  0
   -0.1390    0.8349    8.5046 O   0  0  0  0  0  0  0  0  0  0  0  0
   -1.6280    1.6335    6.7714 C   0  0  0  0  0  0  0  0  0  0  0  0
   -1.5237    0.7300    5.6668 O   0  0  0  0  0  0  0  0  0  0  0  0
   -0.3531    2.2469    4.0148 C   0  0  1  0  0  0  0  0  0  0  0  0
   -1.7743    2.5714    3.4933 C   0  0  0  0  0  0  0  0  0  0  0  0
   -1.7644    4.0749    3.2582 C   0  0  0  0  0  0  0  0  0  0  0  0
   -0.3756    4.5326    3.7280 C   0  0  0  0  0  0  0  0  0  0  0  0
    0.0713    3.4881    4.5956 O   0  0  0  0  0  0  0  0  0  0  0  0
    0.5754    1.8620    2.8158 C   0  0  0  0  0  0  0  0  0  0  0  0
    1.1622   -3.3302    3.8682 H   0  0  0  0  0  0  0  0  0  0  0  0
    2.0388   -2.3285    1.6548 H   0  0  0  0  0  0  0  0  0  0  0  0
    0.0098   -1.8004    5.4891 H   0  0  0  0  0  0  0  0  0  0  0  0
    1.1152    0.2480    6.5426 H   0  0  0  0  0  0  0  0  0  0  0  0
    1.5081    1.8382    5.9134 H   0  0  0  0  0  0  0  0  0  0  0  0
    1.3546    3.1904    7.7285 H   0  0  0  0  0  0  0  0  0  0  0  0
   -0.2344    3.8829    7.3783 H   0  0  0  0  0  0  0  0  0  0  0  0
    1.0147    3.0548    9.8731 H   0  0  0  0  0  0  0  0  0  0  0  0
   -0.6049    3.7940    9.7147 H   0  0  0  0  0  0  0  0  0  0  0  0
   -0.2429    1.1468   10.5666 H   0  0  0  0  0  0  0  0  0  0  0  0
   -1.6543    1.6800    9.6455 H   0  0  0  0  0  0  0  0  0  0  0  0
   -2.3803    1.2306    7.4536 H   0  0  0  0  0  0  0  0  0  0  0  0
   -1.9516    2.6232    6.4298 H   0  0  0  0  0  0  0  0  0  0  0  0
   -2.0618    1.9881    2.6031 H   0  0  0  0  0  0  0  0  0  0  0  0
   -2.5158    2.3890    4.2681 H   0  0  0  0  0  0  0  0  0  0  0  0
   -1.9144    4.3095    2.1990 H   0  0  0  0  0  0  0  0  0  0  0  0
   -2.5608    4.5323    3.8543 H   0  0  0  0  0  0  0  0  0  0  0  0
    0.3060    4.6545    2.8780 H   0  0  0  0  0  0  0  0  0  0  0  0
   -0.4184    5.4909    4.2467 H   0  0  0  0  0  0  0  0  0  0  0  0
    1.5403    2.3706    2.8871 H   0  0  0  0  0  0  0  0  0  0  0  0
    0.1407    2.1135    1.8474 H   0  0  0  0  0  0  0  0  0  0  0  0
    1.7095   -0.0923    1.2356 H   0  0  0  0  0  0  0  0  0  0  0  0
  1  6  2  0
  1  2  1  0
  1 22  1  0
  2  3  2  0
  2 23  1  0
  3  4  1  0
  3 43  1  0
  4 21  1  0
  4  5  2  0
  5  6  1  0
  5  7  1  0
  6 24  1  0
  7 15  1  1
  7  8  1  0
  7 16  1  0
  8  9  1  0
  8 25  1  0
  8 26  1  0
  9 13  1  1
  9 10  1  0
  9 14  1  0
 10 11  1  0
 10 27  1  0
 10 28  1  0
 11 12  1  0
 11 29  1  0
 11 30  1  0
 12 13  1  0
 12 31  1  0
 12 32  1  0
 14 15  1  0
 14 33  1  0
 14 34  1  0
 16 20  1  1
 16 17  1  0
 16 21  1  0
 17 18  1  0
 17 35  1  0
 17 36  1  0
 18 19  1  0
 18 37  1  0
 18 38  1  0
 19 20  1  0
 19 39  1  0
 19 40  1  0
 21 41  1  0
 21 42  1  0
M  CHG  1   3   1
M  END
>  <i_m_ct_stereo_status>  (53) 
1

>  <s_m_source_file>  (53) 
/var/tmp/pbs.5076255.sched01/tmpmzpp47sj/0ood7iq68.sdf

>  <i_m_source_file_index>  (53) 
26

>  <i_lp_mmshare_version>  (53) 
48012

>  <i_f3d_flags>  (53) 
0

>  <s_epik_input>  (53) 
bjFbY0hdW2NIXVtjSF1jMmMxW0NIMl1bQ0BAXTMoW0NIMl1bQ0gyXVtDSDJdTzMpW0NAXTI0W0NIMl1bQ0BdNShbQ0gyXU80KVtDSDJdW0NIMl1bQ0gyXU81

>  <s_epik_cmdline>  (53) 
J2VwaWtfcHl0aG9uJywgJy1waHQnLCAnMi4wJywgJy1waCcsICc3LjAnLCAnLXRuJywgJzgnLCAnLW1hJywgJzIwMCcsICctaW1hZScsICc8aW5maWxlLm1hZT4nLCAnLW9tYWUnLCAnPG91dGZpbGUubWFlPic=

>  <r_epik_Ionization_Penalty>  (53) 
1.05012

>  <r_epik_Ionization_Penalty_Charging>  (53) 
1.05012

>  <r_epik_Ionization_Penalty_Neutral>  (53) 
2.66958e-12

>  <r_epik_State_Penalty>  (53) 
1.10291

>  <r_epik_Charging_Adjusted_Penalty>  (53) 
2.15302

>  <i_epik_Tot_Q>  (53) 
1

>  <i_epik_Tot_abs_Q>  (53) 
1

>  <s_lp_Force_Field>  (53) 
OPLS3e

>  <r_lp_Energy>  (53) 
21.4492

>  <b_lp_Chiralities_Consistent>  (53) 
1

>  <s_lp_Variant>  (53) 
14:0-2

>  <s_i_glide_gridfile>  (53) 
pfpi4k_grid

>  <i_i_glide_lignum>  (53) 
26

>  <i_i_glide_rotatable_bonds>  (53) 
0

>  <r_i_docking_score>  (53) 
-3.0649

>  <r_i_glide_ligand_efficiency>  (53) 
-0.145948

>  <r_i_glide_ligand_efficiency_sa>  (53) 
-0.402659

>  <r_i_glide_ligand_efficiency_ln>  (53) 
-0.757791

>  <r_i_glide_gscore>  (53) 
-3.0649

>  <r_i_glide_lipo>  (53) 
-0.0490892

>  <r_i_glide_hbond>  (53) 
-0.00433648

>  <r_i_glide_metal>  (53) 
-0

>  <r_i_glide_rewards>  (53) 
-1.44299

>  <r_i_glide_evdw>  (53) 
-18.6823

>  <r_i_glide_ecoul>  (53) 
-3.77896

>  <r_i_glide_erotb>  (53) 
0

>  <r_i_glide_esite>  (53) 
-0.0675284

>  <r_i_glide_emodel>  (53) 
-28.4161

>  <r_i_glide_energy>  (53) 
-22.4613

>  <r_i_glide_einternal>  (53) 
0

>  <r_i_glide_intrahb_reward>  (53) 
-0

>  <i_i_glide_confnum>  (53) 
1

>  <i_i_glide_posenum>  (53) 
32

>  <r_i_glide_eff_state_penalty>  (53) 
0

>  <ligand_id>  (53) 
14

>  <original_smiles>  (53) 
c1cnc2c(c1)C1(CC3(CCCO3)CO1)C1(CCCO1)C2

>  <smiles>  (53) 
[H]c1c([H])c([H])[n+]([H])c2c1C1(OC([H])([H])C3(OC([H])([H])C([H])([H])C3([H])[H])C1([H])[H])C1(OC([H])([H])C([H])([H])C1([H])[H])C2([H])[H]

$$$$
15:0:0
     RDKit          3D

 30 33  0  0  1  0  0  0  0  0999 V2000
    3.8416   -0.4492   -3.1307 C   0  0  0  0  0  0  0  0  0  0  0  0
    3.5149   -1.2362   -4.2439 C   0  0  0  0  0  0  0  0  0  0  0  0
    3.7833   -2.5577   -4.3056 N   0  0  0  0  0  0  0  0  0  0  0  0
    4.3709   -3.1330   -3.2332 C   0  0  0  0  0  0  0  0  0  0  0  0
    4.7783   -2.4370   -2.0828 C   0  0  0  0  0  0  0  0  0  0  0  0
    5.4948   -3.1266   -0.9896 C   0  0  0  0  0  0  0  0  0  0  0  0
    6.2424   -2.4842   -0.1097 N   0  0  0  0  0  0  0  0  0  0  0  0
    6.5988   -3.5117    0.7959 O   0  0  0  0  0  0  0  0  0  0  0  0
    5.9804   -4.6409    0.3540 C   0  0  0  0  0  0  0  0  0  0  0  0
    6.0803   -5.8721    1.1533 C   0  0  0  0  0  0  0  0  0  0  0  0
    7.4027   -6.2541    1.4847 C   0  0  0  0  0  0  0  0  0  0  0  0
    7.6626   -7.4057    2.2383 C   0  0  0  0  0  0  0  0  0  0  0  0
    6.5998   -8.1903    2.6852 C   0  0  0  0  0  0  0  0  0  0  0  0
    5.2797   -7.8294    2.3706 C   0  0  0  0  0  0  0  0  0  0  0  0
    4.9722   -6.6682    1.5955 C   0  0  0  0  0  0  0  0  0  0  0  0
    3.5175   -6.4090    1.3341 C   0  0  0  0  0  0  0  0  0  0  0  0
    2.5268   -7.1563    1.8486 N   0  0  0  0  0  0  0  0  0  0  0  0
    1.4180   -6.6135    1.3166 N   0  0  0  0  0  0  0  0  0  0  0  0
    1.7465   -5.6130    0.5165 N   0  0  0  0  0  0  0  0  0  0  0  0
    3.0558   -5.4169    0.5639 N   0  0  0  0  0  0  0  0  0  0  0  0
    5.4012   -4.4645   -0.8308 N   0  0  0  0  0  0  0  0  0  0  0  0
    4.4689   -1.0552   -2.0294 C   0  0  0  0  0  0  0  0  0  0  0  0
    3.6120    0.6071   -3.1326 H   0  0  0  0  0  0  0  0  0  0  0  0
    3.0435   -0.8040   -5.1135 H   0  0  0  0  0  0  0  0  0  0  0  0
    4.5467   -4.1950   -3.3277 H   0  0  0  0  0  0  0  0  0  0  0  0
    8.2279   -5.6617    1.1427 H   0  0  0  0  0  0  0  0  0  0  0  0
    8.6806   -7.6872    2.4659 H   0  0  0  0  0  0  0  0  0  0  0  0
    6.7869   -9.0699    3.2791 H   0  0  0  0  0  0  0  0  0  0  0  0
    4.4955   -8.4685    2.7407 H   0  0  0  0  0  0  0  0  0  0  0  0
    4.7175   -0.4590   -1.1622 H   0  0  0  0  0  0  0  0  0  0  0  0
  1 22  2  0
  1  2  1  0
  1 23  1  0
  2  3  2  0
  2 24  1  0
  3  4  1  0
  4  5  2  0
  4 25  1  0
  5  6  1  0
  5 22  1  0
  6 21  1  0
  6  7  2  0
  7  8  1  0
  8  9  1  0
  9 10  1  0
  9 21  2  0
 10 15  1  0
 10 11  2  0
 11 12  1  0
 11 26  1  0
 12 13  2  0
 12 27  1  0
 13 14  1  0
 13 28  1  0
 14 15  2  0
 14 29  1  0
 15 16  1  0
 16 20  2  0
 16 17  1  0
 17 18  1  0
 18 19  2  0
 19 20  1  0
 22 30  1  0
M  CHG  1  17  -1
M  END
>  <i_m_ct_stereo_status>  (54) 
1

>  <s_m_source_file>  (54) 
/var/tmp/pbs.5076255.sched01/tmpmzpp47sj/0ood7iq68.sdf

>  <i_m_source_file_index>  (54) 
27

>  <i_lp_mmshare_version>  (54) 
48012

>  <i_f3d_flags>  (54) 
0

>  <s_epik_input>  (54) 
W2NIXTFbY0hdW2NIXW5bY0hdYzEtYzJub2MobjIpLWMzW2NIXVtjSF1bY0hdW2NIXWMzLWM0bm5bbkhdbjQ=

>  <s_epik_cmdline>  (54) 
J2VwaWtfcHl0aG9uJywgJy1waHQnLCAnMi4wJywgJy1waCcsICc3LjAnLCAnLXRuJywgJzgnLCAnLW1hJywgJzIwMCcsICctaW1hZScsICc8aW5maWxlLm1hZT4nLCAnLW9tYWUnLCAnPG91dGZpbGUubWFlPic=

>  <r_lp_tautomer_probability>  (54) 
1

>  <r_epik_Ionization_Penalty>  (54) 
0.00131979

>  <r_epik_Ionization_Penalty_Charging>  (54) 
0.000927567

>  <r_epik_Ionization_Penalty_Neutral>  (54) 
0.000392224

>  <r_epik_State_Penalty>  (54) 
-0

>  <r_epik_Charging_Adjusted_Penalty>  (54) 
0.000927567

>  <i_epik_Tot_Q>  (54) 
-1

>  <i_epik_Tot_abs_Q>  (54) 
1

>  <s_lp_Force_Field>  (54) 
OPLS3e

>  <r_lp_Energy>  (54) 
32.3883

>  <b_lp_Chiralities_Consistent>  (54) 
1

>  <s_lp_Variant>  (54) 
15:0-1

>  <s_i_glide_gridfile>  (54) 
pfpi4k_grid

>  <i_i_glide_lignum>  (54) 
27

>  <i_i_glide_rotatable_bonds>  (54) 
3

>  <r_i_docking_score>  (54) 
-3.87994

>  <r_i_glide_ligand_efficiency>  (54) 
-0.176361

>  <r_i_glide_ligand_efficiency_sa>  (54) 
-0.49417

>  <r_i_glide_ligand_efficiency_ln>  (54) 
-0.948398

>  <r_i_glide_gscore>  (54) 
-3.87994

>  <r_i_glide_lipo>  (54) 
-0.67446

>  <r_i_glide_hbond>  (54) 
-0.32

>  <r_i_glide_metal>  (54) 
-0

>  <r_i_glide_rewards>  (54) 
-1.57915

>  <r_i_glide_evdw>  (54) 
-27.6817

>  <r_i_glide_ecoul>  (54) 
-2.59584

>  <r_i_glide_erotb>  (54) 
0.648854

>  <r_i_glide_esite>  (54) 
-0.181714

>  <r_i_glide_emodel>  (54) 
-37.693

>  <r_i_glide_energy>  (54) 
-30.2776

>  <r_i_glide_einternal>  (54) 
2.23569

>  <r_i_glide_intrahb_reward>  (54) 
-0

>  <i_i_glide_confnum>  (54) 
2

>  <i_i_glide_posenum>  (54) 
2

>  <r_i_glide_eff_state_penalty>  (54) 
0

>  <ligand_id>  (54) 
15

>  <original_smiles>  (54) 
c1cncc(-c2noc(-c3ccccc3-c3nn[nH]n3)n2)c1

>  <smiles>  (54) 
[H]c1nc([H])c(-c2noc(-c3c([H])c([H])c([H])c([H])c3-c3nnn[n-]3)n2)c([H])c1[H]

$$$$
15:0:1
     RDKit          3D

 30 33  0  0  1  0  0  0  0  0999 V2000
    5.2018   -9.0359    2.1619 C   0  0  0  0  0  0  0  0  0  0  0  0
    6.5260   -8.7165    2.5113 C   0  0  0  0  0  0  0  0  0  0  0  0
    7.0868   -7.5198    2.2480 N   0  0  0  0  0  0  0  0  0  0  0  0
    6.3331   -6.5897    1.6231 C   0  0  0  0  0  0  0  0  0  0  0  0
    4.9899   -6.7940    1.2327 C   0  0  0  0  0  0  0  0  0  0  0  0
    4.2262   -5.7358    0.5462 C   0  0  0  0  0  0  0  0  0  0  0  0
    2.9188   -5.5931    0.7165 N   0  0  0  0  0  0  0  0  0  0  0  0
    2.6249   -4.5022   -0.1162 O   0  0  0  0  0  0  0  0  0  0  0  0
    3.8003   -4.1314   -0.6947 C   0  0  0  0  0  0  0  0  0  0  0  0
    3.7556   -3.0577   -1.6889 C   0  0  0  0  0  0  0  0  0  0  0  0
    2.7084   -3.0555   -2.6380 C   0  0  0  0  0  0  0  0  0  0  0  0
    2.6177   -2.0388   -3.6023 C   0  0  0  0  0  0  0  0  0  0  0  0
    3.5510   -0.9933   -3.6109 C   0  0  0  0  0  0  0  0  0  0  0  0
    4.5933   -0.9916   -2.6680 C   0  0  0  0  0  0  0  0  0  0  0  0
    4.7212   -2.0233   -1.7164 C   0  0  0  0  0  0  0  0  0  0  0  0
    5.8591   -1.9789   -0.7884 C   0  0  0  0  0  0  0  0  0  0  0  0
    5.8305   -1.2559    0.3318 N   0  0  0  0  0  0  0  0  0  0  0  0
    7.0563   -1.4612    0.8304 N   0  0  0  0  0  0  0  0  0  0  0  0
    7.7663   -2.2525    0.0060 N   0  0  0  0  0  0  0  0  0  0  0  0
    7.0311   -2.5551   -1.0737 N   0  0  0  0  0  0  0  0  0  0  0  0
    4.8376   -4.8782   -0.3076 N   0  0  0  0  0  0  0  0  0  0  0  0
    4.4236   -8.0581    1.5150 C   0  0  0  0  0  0  0  0  0  0  0  0
    4.7935  -10.0109    2.3821 H   0  0  0  0  0  0  0  0  0  0  0  0
    7.1522   -9.4367    3.0170 H   0  0  0  0  0  0  0  0  0  0  0  0
    6.8262   -5.6466    1.4344 H   0  0  0  0  0  0  0  0  0  0  0  0
    1.9794   -3.8498   -2.6484 H   0  0  0  0  0  0  0  0  0  0  0  0
    1.8136   -2.0512   -4.3208 H   0  0  0  0  0  0  0  0  0  0  0  0
    3.4615   -0.1880   -4.3237 H   0  0  0  0  0  0  0  0  0  0  0  0
    5.3042   -0.1811   -2.6613 H   0  0  0  0  0  0  0  0  0  0  0  0
    3.4057   -8.2819    1.2277 H   0  0  0  0  0  0  0  0  0  0  0  0
  1 22  2  0
  1  2  1  0
  1 23  1  0
  2  3  2  0
  2 24  1  0
  3  4  1  0
  4  5  2  0
  4 25  1  0
  5  6  1  0
  5 22  1  0
  6 21  1  0
  6  7  2  0
  7  8  1  0
  8  9  1  0
  9 10  1  0
  9 21  2  0
 10 15  1  0
 10 11  2  0
 11 12  1  0
 11 26  1  0
 12 13  2  0
 12 27  1  0
 13 14  1  0
 13 28  1  0
 14 15  2  0
 14 29  1  0
 15 16  1  0
 16 20  2  0
 16 17  1  0
 17 18  1  0
 18 19  2  0
 19 20  1  0
 22 30  1  0
M  CHG  1  17  -1
M  END
>  <i_m_ct_stereo_status>  (55) 
1

>  <s_m_source_file>  (55) 
/var/tmp/pbs.5076255.sched01/tmpmzpp47sj/0ood7iq68.sdf

>  <i_m_source_file_index>  (55) 
27

>  <i_lp_mmshare_version>  (55) 
48012

>  <i_f3d_flags>  (55) 
0

>  <s_epik_input>  (55) 
W2NIXTFbY0hdW2NIXW5bY0hdYzEtYzJub2MobjIpLWMzW2NIXVtjSF1bY0hdW2NIXWMzLWM0bm5bbkhdbjQ=

>  <s_epik_cmdline>  (55) 
J2VwaWtfcHl0aG9uJywgJy1waHQnLCAnMi4wJywgJy1waCcsICc3LjAnLCAnLXRuJywgJzgnLCAnLW1hJywgJzIwMCcsICctaW1hZScsICc8aW5maWxlLm1hZT4nLCAnLW9tYWUnLCAnPG91dGZpbGUubWFlPic=

>  <r_lp_tautomer_probability>  (55) 
1

>  <r_epik_Ionization_Penalty>  (55) 
0.00131979

>  <r_epik_Ionization_Penalty_Charging>  (55) 
0.000927567

>  <r_epik_Ionization_Penalty_Neutral>  (55) 
0.000392224

>  <r_epik_State_Penalty>  (55) 
-0

>  <r_epik_Charging_Adjusted_Penalty>  (55) 
0.000927567

>  <i_epik_Tot_Q>  (55) 
-1

>  <i_epik_Tot_abs_Q>  (55) 
1

>  <s_lp_Force_Field>  (55) 
OPLS3e

>  <r_lp_Energy>  (55) 
32.3883

>  <b_lp_Chiralities_Consistent>  (55) 
1

>  <s_lp_Variant>  (55) 
15:0-1

>  <s_i_glide_gridfile>  (55) 
pfpi4k_grid

>  <i_i_glide_lignum>  (55) 
27

>  <i_i_glide_rotatable_bonds>  (55) 
3

>  <r_i_docking_score>  (55) 
-3.69851

>  <r_i_glide_ligand_efficiency>  (55) 
-0.168114

>  <r_i_glide_ligand_efficiency_sa>  (55) 
-0.471062

>  <r_i_glide_ligand_efficiency_ln>  (55) 
-0.90405

>  <r_i_glide_gscore>  (55) 
-3.69851

>  <r_i_glide_lipo>  (55) 
-0.689212

>  <r_i_glide_hbond>  (55) 
0

>  <r_i_glide_metal>  (55) 
-0

>  <r_i_glide_rewards>  (55) 
-1.54084

>  <r_i_glide_evdw>  (55) 
-29.7244

>  <r_i_glide_ecoul>  (55) 
-2.98886

>  <r_i_glide_erotb>  (55) 
0.648854

>  <r_i_glide_esite>  (55) 
-0.182761

>  <r_i_glide_emodel>  (55) 
-39.9364

>  <r_i_glide_energy>  (55) 
-32.7133

>  <r_i_glide_einternal>  (55) 
2.62251

>  <r_i_glide_intrahb_reward>  (55) 
-0

>  <i_i_glide_confnum>  (55) 
5

>  <i_i_glide_posenum>  (55) 
23

>  <r_i_glide_eff_state_penalty>  (55) 
0

>  <ligand_id>  (55) 
15

>  <original_smiles>  (55) 
c1cncc(-c2noc(-c3ccccc3-c3nn[nH]n3)n2)c1

>  <smiles>  (55) 
[H]c1nc([H])c(-c2noc(-c3c([H])c([H])c([H])c([H])c3-c3nnn[n-]3)n2)c([H])c1[H]

$$$$
15:0:2
     RDKit          3D

 30 33  0  0  1  0  0  0  0  0999 V2000
    5.9706   -4.0773    0.0275 C   0  0  0  0  0  0  0  0  0  0  0  0
    5.5167   -3.0922   -0.8663 C   0  0  0  0  0  0  0  0  0  0  0  0
    4.2284   -2.9736   -1.2367 N   0  0  0  0  0  0  0  0  0  0  0  0
    3.3356   -3.8474   -0.7181 C   0  0  0  0  0  0  0  0  0  0  0  0
    3.6710   -4.8872    0.1862 C   0  0  0  0  0  0  0  0  0  0  0  0
    2.6660   -5.8362    0.7203 C   0  0  0  0  0  0  0  0  0  0  0  0
    1.4144   -5.8573    0.2763 N   0  0  0  0  0  0  0  0  0  0  0  0
    0.8166   -6.8486    1.0698 O   0  0  0  0  0  0  0  0  0  0  0  0
    1.7943   -7.3124    1.8894 C   0  0  0  0  0  0  0  0  0  0  0  0
    1.4657   -8.3506    2.8619 C   0  0  0  0  0  0  0  0  0  0  0  0
    1.7169   -9.6852    2.4678 C   0  0  0  0  0  0  0  0  0  0  0  0
    1.4846  -10.7575    3.3468 C   0  0  0  0  0  0  0  0  0  0  0  0
    1.0155  -10.4923    4.6435 C   0  0  0  0  0  0  0  0  0  0  0  0
    0.7604   -9.1651    5.0409 C   0  0  0  0  0  0  0  0  0  0  0  0
    0.9686   -8.0579    4.1710 C   0  0  0  0  0  0  0  0  0  0  0  0
    0.6564   -6.6824    4.6707 C   0  0  0  0  0  0  0  0  0  0  0  0
    1.1586   -5.5490    4.1558 N   0  0  0  0  0  0  0  0  0  0  0  0
    0.6098   -4.5927    4.9183 N   0  0  0  0  0  0  0  0  0  0  0  0
   -0.1833   -5.1526    5.8447 N   0  0  0  0  0  0  0  0  0  0  0  0
   -0.1809   -6.4833    5.6979 N   0  0  0  0  0  0  0  0  0  0  0  0
    2.9829   -6.7416    1.6819 N   0  0  0  0  0  0  0  0  0  0  0  0
    5.0332   -4.9864    0.5555 C   0  0  0  0  0  0  0  0  0  0  0  0
    7.0120   -4.1393    0.2974 H   0  0  0  0  0  0  0  0  0  0  0  0
    6.2057   -2.3766   -1.2944 H   0  0  0  0  0  0  0  0  0  0  0  0
    2.3183   -3.7039   -1.0520 H   0  0  0  0  0  0  0  0  0  0  0  0
    2.0873   -9.8810    1.4719 H   0  0  0  0  0  0  0  0  0  0  0  0
    1.6665  -11.7751    3.0317 H   0  0  0  0  0  0  0  0  0  0  0  0
    0.8356  -11.3049    5.3357 H   0  0  0  0  0  0  0  0  0  0  0  0
    0.4021   -9.0104    6.0491 H   0  0  0  0  0  0  0  0  0  0  0  0
    5.3651   -5.7572    1.2360 H   0  0  0  0  0  0  0  0  0  0  0  0
  1 22  2  0
  1  2  1  0
  1 23  1  0
  2  3  2  0
  2 24  1  0
  3  4  1  0
  4  5  2  0
  4 25  1  0
  5  6  1  0
  5 22  1  0
  6 21  1  0
  6  7  2  0
  7  8  1  0
  8  9  1  0
  9 10  1  0
  9 21  2  0
 10 15  1  0
 10 11  2  0
 11 12  1  0
 11 26  1  0
 12 13  2  0
 12 27  1  0
 13 14  1  0
 13 28  1  0
 14 15  2  0
 14 29  1  0
 15 16  1  0
 16 20  2  0
 16 17  1  0
 17 18  1  0
 18 19  2  0
 19 20  1  0
 22 30  1  0
M  CHG  1  17  -1
M  END
>  <i_m_ct_stereo_status>  (56) 
1

>  <s_m_source_file>  (56) 
/var/tmp/pbs.5076255.sched01/tmpmzpp47sj/0ood7iq68.sdf

>  <i_m_source_file_index>  (56) 
27

>  <i_lp_mmshare_version>  (56) 
48012

>  <i_f3d_flags>  (56) 
0

>  <s_epik_input>  (56) 
W2NIXTFbY0hdW2NIXW5bY0hdYzEtYzJub2MobjIpLWMzW2NIXVtjSF1bY0hdW2NIXWMzLWM0bm5bbkhdbjQ=

>  <s_epik_cmdline>  (56) 
J2VwaWtfcHl0aG9uJywgJy1waHQnLCAnMi4wJywgJy1waCcsICc3LjAnLCAnLXRuJywgJzgnLCAnLW1hJywgJzIwMCcsICctaW1hZScsICc8aW5maWxlLm1hZT4nLCAnLW9tYWUnLCAnPG91dGZpbGUubWFlPic=

>  <r_lp_tautomer_probability>  (56) 
1

>  <r_epik_Ionization_Penalty>  (56) 
0.00131979

>  <r_epik_Ionization_Penalty_Charging>  (56) 
0.000927567

>  <r_epik_Ionization_Penalty_Neutral>  (56) 
0.000392224

>  <r_epik_State_Penalty>  (56) 
-0

>  <r_epik_Charging_Adjusted_Penalty>  (56) 
0.000927567

>  <i_epik_Tot_Q>  (56) 
-1

>  <i_epik_Tot_abs_Q>  (56) 
1

>  <s_lp_Force_Field>  (56) 
OPLS3e

>  <r_lp_Energy>  (56) 
32.3883

>  <b_lp_Chiralities_Consistent>  (56) 
1

>  <s_lp_Variant>  (56) 
15:0-1

>  <s_i_glide_gridfile>  (56) 
pfpi4k_grid

>  <i_i_glide_lignum>  (56) 
27

>  <i_i_glide_rotatable_bonds>  (56) 
3

>  <r_i_docking_score>  (56) 
-3.24739

>  <r_i_glide_ligand_efficiency>  (56) 
-0.147608

>  <r_i_glide_ligand_efficiency_sa>  (56) 
-0.413605

>  <r_i_glide_ligand_efficiency_ln>  (56) 
-0.79378

>  <r_i_glide_gscore>  (56) 
-3.24739

>  <r_i_glide_lipo>  (56) 
-0.417598

>  <r_i_glide_hbond>  (56) 
0

>  <r_i_glide_metal>  (56) 
-0

>  <r_i_glide_rewards>  (56) 
-1.43005

>  <r_i_glide_evdw>  (56) 
-25.3375

>  <r_i_glide_ecoul>  (56) 
-3.53008

>  <r_i_glide_erotb>  (56) 
0.648854

>  <r_i_glide_esite>  (56) 
-0.252205

>  <r_i_glide_emodel>  (56) 
-34.7835

>  <r_i_glide_energy>  (56) 
-28.8676

>  <r_i_glide_einternal>  (56) 
2.88177

>  <r_i_glide_intrahb_reward>  (56) 
-0

>  <i_i_glide_confnum>  (56) 
4

>  <i_i_glide_posenum>  (56) 
3

>  <r_i_glide_eff_state_penalty>  (56) 
0

>  <ligand_id>  (56) 
15

>  <original_smiles>  (56) 
c1cncc(-c2noc(-c3ccccc3-c3nn[nH]n3)n2)c1

>  <smiles>  (56) 
[H]c1nc([H])c(-c2noc(-c3c([H])c([H])c([H])c([H])c3-c3nnn[n-]3)n2)c([H])c1[H]

$$$$
16:0:0
     RDKit          3D

 23 25  0  0  1  0  0  0  0  0999 V2000
   -3.0650  -13.8098   -7.1197 Br  0  0  0  0  0  0  0  0  0  0  0  0
   -4.1816  -12.2718   -7.0676 C   0  0  0  0  0  0  0  0  0  0  0  0
   -5.2756  -12.1750   -7.9457 C   0  0  0  0  0  0  0  0  0  0  0  0
   -6.0997  -11.0342   -7.9254 C   0  0  0  0  0  0  0  0  0  0  0  0
   -5.8516   -9.9697   -7.0327 C   0  0  0  0  0  0  0  0  0  0  0  0
   -6.5893   -8.8011   -6.9334 N   0  0  0  0  0  0  0  0  0  0  0  0
   -6.0801   -8.0021   -5.9872 C   0  0  0  0  0  0  0  0  0  0  0  0
   -6.6559   -6.6991   -5.6525 C   0  0  0  0  0  0  0  0  0  0  0  0
   -6.1645   -5.9142   -4.5871 C   0  0  0  0  0  0  0  0  0  0  0  0
   -6.7659   -4.6706   -4.3215 C   0  0  0  0  0  0  0  0  0  0  0  0
   -7.8449   -4.2602   -5.1274 C   0  0  0  0  0  0  0  0  0  0  0  0
   -8.3279   -4.9946   -6.1488 N   0  0  0  0  0  0  0  0  0  0  0  0
   -7.7435   -6.1850   -6.3973 C   0  0  0  0  0  0  0  0  0  0  0  0
   -4.6360   -8.6271   -5.1560 S   0  0  0  0  0  0  0  0  0  0  0  0
   -4.7416  -10.0849   -6.1489 C   0  0  0  0  0  0  0  0  0  0  0  0
   -3.9158  -11.2270   -6.1621 C   0  0  0  0  0  0  0  0  0  0  0  0
   -5.4867  -12.9744   -8.6396 H   0  0  0  0  0  0  0  0  0  0  0  0
   -6.9380  -10.9590   -8.6005 H   0  0  0  0  0  0  0  0  0  0  0  0
   -5.3426   -6.2491   -3.9728 H   0  0  0  0  0  0  0  0  0  0  0  0
   -6.4153   -4.0441   -3.5157 H   0  0  0  0  0  0  0  0  0  0  0  0
   -8.3354   -3.3167   -4.9548 H   0  0  0  0  0  0  0  0  0  0  0  0
   -8.1680   -6.7360   -7.2213 H   0  0  0  0  0  0  0  0  0  0  0  0
   -3.0759  -11.2929   -5.4883 H   0  0  0  0  0  0  0  0  0  0  0  0
  1  2  1  0
  2 16  2  0
  2  3  1  0
  3  4  2  0
  3 17  1  0
  4  5  1  0
  4 18  1  0
  5 15  2  0
  5  6  1  0
  6  7  2  0
  7  8  1  0
  7 14  1  0
  8 13  1  0
  8  9  2  0
  9 10  1  0
  9 19  1  0
 10 11  2  0
 10 20  1  0
 11 12  1  0
 11 21  1  0
 12 13  2  0
 13 22  1  0
 14 15  1  0
 15 16  1  0
 16 23  1  0
M  END
>  <i_m_ct_stereo_status>  (57) 
1

>  <s_m_source_file>  (57) 
/var/tmp/pbs.5076255.sched01/tmpmzpp47sj/0ood7iq68.sdf

>  <i_m_source_file_index>  (57) 
28

>  <i_lp_mmshare_version>  (57) 
48012

>  <i_f3d_flags>  (57) 
0

>  <s_epik_input>  (57) 
W2NIXTFbY0hdYyhCcilbY0hdYyhjMTIpc2MobjIpLWMzW2NIXVtjSF1bY0hdbltjSF0z

>  <s_epik_cmdline>  (57) 
J2VwaWtfcHl0aG9uJywgJy1waHQnLCAnMi4wJywgJy1waCcsICc3LjAnLCAnLXRuJywgJzgnLCAnLW1hJywgJzIwMCcsICctaW1hZScsICc8aW5maWxlLm1hZT4nLCAnLW9tYWUnLCAnPG91dGZpbGUubWFlPic=

>  <r_lp_tautomer_probability>  (57) 
1

>  <r_epik_Ionization_Penalty>  (57) 
0.000119329

>  <r_epik_Ionization_Penalty_Charging>  (57) 
0

>  <r_epik_Ionization_Penalty_Neutral>  (57) 
0.000119329

>  <r_epik_State_Penalty>  (57) 
-0

>  <r_epik_Charging_Adjusted_Penalty>  (57) 
0

>  <i_epik_Tot_Q>  (57) 
0

>  <i_epik_Tot_abs_Q>  (57) 
0

>  <s_lp_Force_Field>  (57) 
OPLS3e

>  <r_lp_Energy>  (57) 
21.4092

>  <b_lp_Chiralities_Consistent>  (57) 
1

>  <s_lp_Variant>  (57) 
16:0-1

>  <s_i_glide_gridfile>  (57) 
pfpi4k_grid

>  <i_i_glide_lignum>  (57) 
28

>  <i_i_glide_rotatable_bonds>  (57) 
1

>  <r_i_docking_score>  (57) 
-5.68717

>  <r_i_glide_ligand_efficiency>  (57) 
-0.355448

>  <r_i_glide_ligand_efficiency_sa>  (57) 
-0.895673

>  <r_i_glide_ligand_efficiency_ln>  (57) 
-1.5075

>  <r_i_glide_gscore>  (57) 
-5.68717

>  <r_i_glide_lipo>  (57) 
-2.31401

>  <r_i_glide_hbond>  (57) 
0

>  <r_i_glide_metal>  (57) 
-0

>  <r_i_glide_rewards>  (57) 
-1.87494

>  <r_i_glide_evdw>  (57) 
-32.2178

>  <r_i_glide_ecoul>  (57) 
-0.682904

>  <r_i_glide_erotb>  (57) 
0.21511

>  <r_i_glide_esite>  (57) 
0

>  <r_i_glide_emodel>  (57) 
-44.2662

>  <r_i_glide_energy>  (57) 
-32.9007

>  <r_i_glide_einternal>  (57) 
0.0117954

>  <r_i_glide_intrahb_reward>  (57) 
-0

>  <i_i_glide_confnum>  (57) 
1

>  <i_i_glide_posenum>  (57) 
1

>  <r_i_glide_eff_state_penalty>  (57) 
0

>  <ligand_id>  (57) 
16

>  <original_smiles>  (57) 
Brc1ccc2nc(-c3cccnc3)sc2c1

>  <smiles>  (57) 
[H]c1nc([H])c(-c2nc3c([H])c([H])c(Br)c([H])c3s2)c([H])c1[H]

$$$$
16:0:1
     RDKit          3D

 23 25  0  0  1  0  0  0  0  0999 V2000
    3.8062   -1.3164   -4.3183 Br  0  0  0  0  0  0  0  0  0  0  0  0
    3.8854   -1.8520   -2.5016 C   0  0  0  0  0  0  0  0  0  0  0  0
    4.5937   -1.0465   -1.5999 C   0  0  0  0  0  0  0  0  0  0  0  0
    4.6598   -1.3950   -0.2397 C   0  0  0  0  0  0  0  0  0  0  0  0
    4.0213   -2.5558    0.2448 C   0  0  0  0  0  0  0  0  0  0  0  0
    4.0220   -2.9972    1.5582 N   0  0  0  0  0  0  0  0  0  0  0  0
    3.3308   -4.1376    1.6670 C   0  0  0  0  0  0  0  0  0  0  0  0
    3.1509   -4.8463    2.9309 C   0  0  0  0  0  0  0  0  0  0  0  0
    2.6347   -6.1608    2.9881 C   0  0  0  0  0  0  0  0  0  0  0  0
    2.4985   -6.7776    4.2439 C   0  0  0  0  0  0  0  0  0  0  0  0
    2.8859   -6.0620    5.3939 C   0  0  0  0  0  0  0  0  0  0  0  0
    3.3790   -4.8083    5.3558 N   0  0  0  0  0  0  0  0  0  0  0  0
    3.5084   -4.2230    4.1493 C   0  0  0  0  0  0  0  0  0  0  0  0
    2.6164   -4.7460    0.1621 S   0  0  0  0  0  0  0  0  0  0  0  0
    3.3133   -3.3690   -0.6874 C   0  0  0  0  0  0  0  0  0  0  0  0
    3.2451   -3.0232   -2.0539 C   0  0  0  0  0  0  0  0  0  0  0  0
    5.0656   -0.1423   -1.9531 H   0  0  0  0  0  0  0  0  0  0  0  0
    5.1873   -0.7617    0.4529 H   0  0  0  0  0  0  0  0  0  0  0  0
    2.3530   -6.6995    2.0930 H   0  0  0  0  0  0  0  0  0  0  0  0
    2.1133   -7.7825    4.3288 H   0  0  0  0  0  0  0  0  0  0  0  0
    2.7971   -6.5059    6.3736 H   0  0  0  0  0  0  0  0  0  0  0  0
    3.9105   -3.2204    4.1671 H   0  0  0  0  0  0  0  0  0  0  0  0
    2.7005   -3.6483   -2.7463 H   0  0  0  0  0  0  0  0  0  0  0  0
  1  2  1  0
  2 16  2  0
  2  3  1  0
  3  4  2  0
  3 17  1  0
  4  5  1  0
  4 18  1  0
  5 15  2  0
  5  6  1  0
  6  7  2  0
  7  8  1  0
  7 14  1  0
  8 13  1  0
  8  9  2  0
  9 10  1  0
  9 19  1  0
 10 11  2  0
 10 20  1  0
 11 12  1  0
 11 21  1  0
 12 13  2  0
 13 22  1  0
 14 15  1  0
 15 16  1  0
 16 23  1  0
M  END
>  <i_m_ct_stereo_status>  (58) 
1

>  <s_m_source_file>  (58) 
/var/tmp/pbs.5076255.sched01/tmpmzpp47sj/0ood7iq68.sdf

>  <i_m_source_file_index>  (58) 
28

>  <i_lp_mmshare_version>  (58) 
48012

>  <i_f3d_flags>  (58) 
0

>  <s_epik_input>  (58) 
W2NIXTFbY0hdYyhCcilbY0hdYyhjMTIpc2MobjIpLWMzW2NIXVtjSF1bY0hdbltjSF0z

>  <s_epik_cmdline>  (58) 
J2VwaWtfcHl0aG9uJywgJy1waHQnLCAnMi4wJywgJy1waCcsICc3LjAnLCAnLXRuJywgJzgnLCAnLW1hJywgJzIwMCcsICctaW1hZScsICc8aW5maWxlLm1hZT4nLCAnLW9tYWUnLCAnPG91dGZpbGUubWFlPic=

>  <r_lp_tautomer_probability>  (58) 
1

>  <r_epik_Ionization_Penalty>  (58) 
0.000119329

>  <r_epik_Ionization_Penalty_Charging>  (58) 
0

>  <r_epik_Ionization_Penalty_Neutral>  (58) 
0.000119329

>  <r_epik_State_Penalty>  (58) 
-0

>  <r_epik_Charging_Adjusted_Penalty>  (58) 
0

>  <i_epik_Tot_Q>  (58) 
0

>  <i_epik_Tot_abs_Q>  (58) 
0

>  <s_lp_Force_Field>  (58) 
OPLS3e

>  <r_lp_Energy>  (58) 
21.4092

>  <b_lp_Chiralities_Consistent>  (58) 
1

>  <s_lp_Variant>  (58) 
16:0-1

>  <s_i_glide_gridfile>  (58) 
pfpi4k_grid

>  <i_i_glide_lignum>  (58) 
28

>  <i_i_glide_rotatable_bonds>  (58) 
1

>  <r_i_docking_score>  (58) 
-2.65175

>  <r_i_glide_ligand_efficiency>  (58) 
-0.165735

>  <r_i_glide_ligand_efficiency_sa>  (58) 
-0.417625

>  <r_i_glide_ligand_efficiency_ln>  (58) 
-0.7029

>  <r_i_glide_gscore>  (58) 
-2.65175

>  <r_i_glide_lipo>  (58) 
-0.0767579

>  <r_i_glide_hbond>  (58) 
0

>  <r_i_glide_metal>  (58) 
-0

>  <r_i_glide_rewards>  (58) 
-1.42386

>  <r_i_glide_evdw>  (58) 
-20.0328

>  <r_i_glide_ecoul>  (58) 
-2.4307

>  <r_i_glide_erotb>  (58) 
0.21511

>  <r_i_glide_esite>  (58) 
0

>  <r_i_glide_emodel>  (58) 
-27.7073

>  <r_i_glide_energy>  (58) 
-22.4635

>  <r_i_glide_einternal>  (58) 
0.0785724

>  <r_i_glide_intrahb_reward>  (58) 
-0

>  <i_i_glide_confnum>  (58) 
2

>  <i_i_glide_posenum>  (58) 
17

>  <r_i_glide_eff_state_penalty>  (58) 
0

>  <ligand_id>  (58) 
16

>  <original_smiles>  (58) 
Brc1ccc2nc(-c3cccnc3)sc2c1

>  <smiles>  (58) 
[H]c1nc([H])c(-c2nc3c([H])c([H])c(Br)c([H])c3s2)c([H])c1[H]

$$$$
16:0:2
     RDKit          3D

 23 25  0  0  1  0  0  0  0  0999 V2000
    3.8137   -1.2401   -4.3131 Br  0  0  0  0  0  0  0  0  0  0  0  0
    3.9316   -1.7944   -2.4985 C   0  0  0  0  0  0  0  0  0  0  0  0
    4.7173   -1.0481   -1.6072 C   0  0  0  0  0  0  0  0  0  0  0  0
    4.8289   -1.4223   -0.2571 C   0  0  0  0  0  0  0  0  0  0  0  0
    4.1519   -2.5571    0.2339 C   0  0  0  0  0  0  0  0  0  0  0  0
    4.1907   -3.0253    1.5397 N   0  0  0  0  0  0  0  0  0  0  0  0
    3.4389   -4.1267    1.6605 C   0  0  0  0  0  0  0  0  0  0  0  0
    3.2799   -4.8540    2.9189 C   0  0  0  0  0  0  0  0  0  0  0  0
    4.1481   -4.6057    4.0063 C   0  0  0  0  0  0  0  0  0  0  0  0
    3.9630   -5.3150    5.2069 C   0  0  0  0  0  0  0  0  0  0  0  0
    2.9102   -6.2472    5.2784 C   0  0  0  0  0  0  0  0  0  0  0  0
    2.0663   -6.4900    4.2531 N   0  0  0  0  0  0  0  0  0  0  0  0
    2.2587   -5.8121    3.1021 C   0  0  0  0  0  0  0  0  0  0  0  0
    2.6275   -4.6665    0.1753 S   0  0  0  0  0  0  0  0  0  0  0  0
    3.3591   -3.3098   -0.6809 C   0  0  0  0  0  0  0  0  0  0  0  0
    3.2478   -2.9350   -2.0368 C   0  0  0  0  0  0  0  0  0  0  0  0
    5.2302   -0.1689   -1.9615 H   0  0  0  0  0  0  0  0  0  0  0  0
    5.4244   -0.8351    0.4248 H   0  0  0  0  0  0  0  0  0  0  0  0
    4.9476   -3.8834    3.9304 H   0  0  0  0  0  0  0  0  0  0  0  0
    4.6121   -5.1503    6.0542 H   0  0  0  0  0  0  0  0  0  0  0  0
    2.7406   -6.8099    6.1824 H   0  0  0  0  0  0  0  0  0  0  0  0
    1.5561   -6.0402    2.3158 H   0  0  0  0  0  0  0  0  0  0  0  0
    2.6395   -3.5198   -2.7110 H   0  0  0  0  0  0  0  0  0  0  0  0
  1  2  1  0
  2 16  2  0
  2  3  1  0
  3  4  2  0
  3 17  1  0
  4  5  1  0
  4 18  1  0
  5 15  2  0
  5  6  1  0
  6  7  2  0
  7  8  1  0
  7 14  1  0
  8 13  1  0
  8  9  2  0
  9 10  1  0
  9 19  1  0
 10 11  2  0
 10 20  1  0
 11 12  1  0
 11 21  1  0
 12 13  2  0
 13 22  1  0
 14 15  1  0
 15 16  1  0
 16 23  1  0
M  END
>  <i_m_ct_stereo_status>  (59) 
1

>  <s_m_source_file>  (59) 
/var/tmp/pbs.5076255.sched01/tmpmzpp47sj/0ood7iq68.sdf

>  <i_m_source_file_index>  (59) 
28

>  <i_lp_mmshare_version>  (59) 
48012

>  <i_f3d_flags>  (59) 
0

>  <s_epik_input>  (59) 
W2NIXTFbY0hdYyhCcilbY0hdYyhjMTIpc2MobjIpLWMzW2NIXVtjSF1bY0hdbltjSF0z

>  <s_epik_cmdline>  (59) 
J2VwaWtfcHl0aG9uJywgJy1waHQnLCAnMi4wJywgJy1waCcsICc3LjAnLCAnLXRuJywgJzgnLCAnLW1hJywgJzIwMCcsICctaW1hZScsICc8aW5maWxlLm1hZT4nLCAnLW9tYWUnLCAnPG91dGZpbGUubWFlPic=

>  <r_lp_tautomer_probability>  (59) 
1

>  <r_epik_Ionization_Penalty>  (59) 
0.000119329

>  <r_epik_Ionization_Penalty_Charging>  (59) 
0

>  <r_epik_Ionization_Penalty_Neutral>  (59) 
0.000119329

>  <r_epik_State_Penalty>  (59) 
-0

>  <r_epik_Charging_Adjusted_Penalty>  (59) 
0

>  <i_epik_Tot_Q>  (59) 
0

>  <i_epik_Tot_abs_Q>  (59) 
0

>  <s_lp_Force_Field>  (59) 
OPLS3e

>  <r_lp_Energy>  (59) 
21.4092

>  <b_lp_Chiralities_Consistent>  (59) 
1

>  <s_lp_Variant>  (59) 
16:0-1

>  <s_i_glide_gridfile>  (59) 
pfpi4k_grid

>  <i_i_glide_lignum>  (59) 
28

>  <i_i_glide_rotatable_bonds>  (59) 
1

>  <r_i_docking_score>  (59) 
-2.58325

>  <r_i_glide_ligand_efficiency>  (59) 
-0.161453

>  <r_i_glide_ligand_efficiency_sa>  (59) 
-0.406836

>  <r_i_glide_ligand_efficiency_ln>  (59) 
-0.684742

>  <r_i_glide_gscore>  (59) 
-2.58325

>  <r_i_glide_lipo>  (59) 
-0.0653061

>  <r_i_glide_hbond>  (59) 
0

>  <r_i_glide_metal>  (59) 
-0

>  <r_i_glide_rewards>  (59) 
-1.42386

>  <r_i_glide_evdw>  (59) 
-20.5159

>  <r_i_glide_ecoul>  (59) 
-1.88933

>  <r_i_glide_erotb>  (59) 
0.21511

>  <r_i_glide_esite>  (59) 
0

>  <r_i_glide_emodel>  (59) 
-27.4791

>  <r_i_glide_energy>  (59) 
-22.4052

>  <r_i_glide_einternal>  (59) 
0.160882

>  <r_i_glide_intrahb_reward>  (59) 
-0

>  <i_i_glide_confnum>  (59) 
2

>  <i_i_glide_posenum>  (59) 
2

>  <r_i_glide_eff_state_penalty>  (59) 
0

>  <ligand_id>  (59) 
16

>  <original_smiles>  (59) 
Brc1ccc2nc(-c3cccnc3)sc2c1

>  <smiles>  (59) 
[H]c1nc([H])c(-c2nc3c([H])c([H])c(Br)c([H])c3s2)c([H])c1[H]

$$$$
17:0:0
     RDKit          3D

 72 80  0  0  1  0  0  0  0  0999 V2000
   -1.9231   -9.2383    2.2021 C   0  0  0  0  0  0  0  0  0  0  0  0
   -2.1342   -8.4504    3.5020 C   0  0  0  0  0  0  0  0  0  0  0  0
   -0.8660   -8.1285    4.2952 C   0  0  2  0  0  0  0  0  0  0  0  0
   -0.4473   -6.6568    4.4819 C   0  0  0  0  0  0  0  0  0  0  0  0
    0.4886   -6.8528    3.2854 C   0  0  1  0  0  0  0  0  0  0  0  0
    1.6095   -5.8653    2.8437 C   0  0  2  0  0  0  0  0  0  0  0  0
    2.0450   -6.1491    1.4068 C   0  0  0  0  0  0  0  0  0  0  0  0
    3.3180   -6.3432    1.0223 C   0  0  0  0  0  0  0  0  0  0  0  0
    4.4632   -6.3130    1.9589 C   0  0  2  0  0  0  0  0  0  0  0  0
    4.6274   -7.2204    3.1807 C   0  0  2  0  0  0  0  0  0  0  0  0
    5.9605   -7.8711    3.4318 C   0  0  0  0  0  0  0  0  0  0  0  0
    7.2365   -7.3543    3.7567 C   0  0  0  0  0  0  0  0  0  0  0  0
    8.2899   -8.2809    3.8833 C   0  0  0  0  0  0  0  0  0  0  0  0
    8.0652   -9.6628    3.6869 C   0  0  0  0  0  0  0  0  0  0  0  0
    6.7708  -10.1325    3.3822 C   0  0  0  0  0  0  0  0  0  0  0  0
    6.5502  -11.4652    3.1916 O   0  0  0  0  0  0  0  0  0  0  0  0
    5.6984   -9.2366    3.2814 C   0  0  0  0  0  0  0  0  0  0  0  0
    4.3880   -9.5565    3.0872 O   0  0  0  0  0  0  0  0  0  0  0  0
    3.6321   -8.3736    3.3753 C   0  0  1  0  0  0  0  0  0  0  0  0
    2.9413   -8.4838    4.7920 C   0  0  1  0  0  0  0  0  0  0  0  0
    3.7799   -9.3891    5.5270 O   0  0  0  0  0  0  0  0  0  0  0  0
    3.2809  -10.0181    6.7070 C   0  0  0  0  0  0  0  0  0  0  0  0
    2.7396   -7.2172    5.6239 C   0  0  0  0  0  0  0  0  0  0  0  0
    2.6456   -5.9434    5.2229 C   0  0  0  0  0  0  0  0  0  0  0  0
    2.7881   -5.4584    3.8123 C   0  0  1  0  0  0  0  0  0  0  0  0
    4.2120   -5.7640    3.3396 C   0  0  2  0  0  0  0  0  0  0  0  0
    5.1131   -4.7289    3.8427 N   0  0  0  0  0  0  0  0  0  0  0  0
    5.3997   -3.6712    2.8681 C   0  0  0  0  0  0  0  0  0  0  0  0
    5.3913   -2.2781    3.4744 C   0  0  0  0  0  0  0  0  0  0  0  0
    4.3467   -1.2783    3.0198 C   0  0  0  0  0  0  0  0  0  0  0  0
    5.7839   -1.0896    2.6163 C   0  0  0  0  0  0  0  0  0  0  0  0
    6.2082   -5.1580    4.7082 C   0  0  0  0  0  0  0  0  0  0  0  0
    7.3668   -5.8605    3.9778 C   0  0  0  0  0  0  0  0  0  0  0  0
    1.5413   -9.0967    4.6102 C   0  0  0  0  0  0  0  0  0  0  0  0
    0.5489   -8.3644    3.6874 C   0  0  1  0  0  0  0  0  0  0  0  0
   -2.8589   -9.4461    1.6897 H   0  0  0  0  0  0  0  0  0  0  0  0
   -1.4325  -10.1855    2.4164 H   0  0  0  0  0  0  0  0  0  0  0  0
   -1.2970   -8.6789    1.5133 H   0  0  0  0  0  0  0  0  0  0  0  0
   -2.6999   -7.5451    3.2807 H   0  0  0  0  0  0  0  0  0  0  0  0
   -2.7702   -9.0527    4.1432 H   0  0  0  0  0  0  0  0  0  0  0  0
   -0.9496   -8.5782    5.2920 H   0  0  0  0  0  0  0  0  0  0  0  0
   -1.2667   -5.9613    4.3119 H   0  0  0  0  0  0  0  0  0  0  0  0
    0.0579   -6.4771    5.4288 H   0  0  0  0  0  0  0  0  0  0  0  0
   -0.2037   -6.8432    2.4430 H   0  0  0  0  0  0  0  0  0  0  0  0
    1.0829   -4.9190    2.7181 H   0  0  0  0  0  0  0  0  0  0  0  0
    1.2621   -6.1853    0.6605 H   0  0  0  0  0  0  0  0  0  0  0  0
    3.5518   -6.5132   -0.0210 H   0  0  0  0  0  0  0  0  0  0  0  0
    5.3819   -6.0272    1.4492 H   0  0  0  0  0  0  0  0  0  0  0  0
    9.2872   -7.9458    4.1300 H   0  0  0  0  0  0  0  0  0  0  0  0
    8.8790  -10.3587    3.7694 H   0  0  0  0  0  0  0  0  0  0  0  0
    5.6510  -11.6308    2.9491 H   0  0  0  0  0  0  0  0  0  0  0  0
    2.8810   -8.3225    2.5917 H   0  0  0  0  0  0  0  0  0  0  0  0
    4.0737  -10.6268    7.1422 H   0  0  0  0  0  0  0  0  0  0  0  0
    2.4533  -10.6886    6.4831 H   0  0  0  0  0  0  0  0  0  0  0  0
    2.9571   -9.3085    7.4674 H   0  0  0  0  0  0  0  0  0  0  0  0
    2.5900   -7.3777    6.6779 H   0  0  0  0  0  0  0  0  0  0  0  0
    2.4704   -5.1704    5.9582 H   0  0  0  0  0  0  0  0  0  0  0  0
    2.7200   -4.3725    3.8821 H   0  0  0  0  0  0  0  0  0  0  0  0
    6.3462   -3.8395    2.3560 H   0  0  0  0  0  0  0  0  0  0  0  0
    4.6400   -3.6783    2.0846 H   0  0  0  0  0  0  0  0  0  0  0  0
    5.7058   -2.2216    4.5167 H   0  0  0  0  0  0  0  0  0  0  0  0
    3.6434   -1.6053    2.2535 H   0  0  0  0  0  0  0  0  0  0  0  0
    3.9408   -0.5981    3.7644 H   0  0  0  0  0  0  0  0  0  0  0  0
    6.3218   -0.2692    3.0866 H   0  0  0  0  0  0  0  0  0  0  0  0
    6.0476   -1.2838    1.5775 H   0  0  0  0  0  0  0  0  0  0  0  0
    6.5979   -4.2636    5.1951 H   0  0  0  0  0  0  0  0  0  0  0  0
    5.8384   -5.7784    5.5250 H   0  0  0  0  0  0  0  0  0  0  0  0
    8.2381   -5.7493    4.6231 H   0  0  0  0  0  0  0  0  0  0  0  0
    7.6653   -5.3965    3.0403 H   0  0  0  0  0  0  0  0  0  0  0  0
    1.6717  -10.1062    4.2201 H   0  0  0  0  0  0  0  0  0  0  0  0
    1.0753   -9.2470    5.5892 H   0  0  0  0  0  0  0  0  0  0  0  0
    0.5333   -8.9212    2.7472 H   0  0  0  0  0  0  0  0  0  0  0  0
  1  2  1  0
  1 36  1  0
  1 37  1  0
  1 38  1  0
  2  3  1  0
  2 39  1  0
  2 40  1  0
  3 35  1  0
  3  4  1  0
  3 41  1  1
  4  5  1  0
  4 42  1  0
  4 43  1  0
  5 35  1  0
  5  6  1  0
  5 44  1  6
  6 25  1  0
  6  7  1  0
  6 45  1  6
  7  8  2  0
  7 46  1  0
  8  9  1  0
  8 47  1  0
  9 26  1  0
  9 10  1  0
  9 48  1  6
 10 19  1  0
 10 26  1  0
 10 11  1  1
 11 17  2  0
 11 12  1  0
 12 33  1  0
 12 13  2  0
 13 14  1  0
 13 49  1  0
 14 15  2  0
 14 50  1  0
 15 16  1  0
 15 17  1  0
 16 51  1  0
 17 18  1  0
 18 19  1  0
 19 20  1  0
 19 52  1  6
 20 21  1  1
 20 23  1  0
 20 34  1  0
 21 22  1  0
 22 53  1  0
 22 54  1  0
 22 55  1  0
 23 24  2  0
 23 56  1  0
 24 25  1  0
 24 57  1  0
 25 26  1  0
 25 58  1  1
 26 27  1  1
 27 28  1  0
 27 32  1  0
 28 29  1  0
 28 59  1  0
 28 60  1  0
 29 31  1  0
 29 30  1  0
 29 61  1  0
 30 31  1  0
 30 62  1  0
 30 63  1  0
 31 64  1  0
 31 65  1  0
 32 33  1  0
 32 66  1  0
 32 67  1  0
 33 68  1  0
 33 69  1  0
 34 35  1  0
 34 70  1  0
 34 71  1  0
 35 72  1  6
M  END
>  <i_m_ct_stereo_status>  (60) 
1

>  <s_m_source_file>  (60) 
/var/tmp/pbs.5076255.sched01/tmpmzpp47sj/0ood7iq68.sdf

>  <i_m_source_file_index>  (60) 
29

>  <i_lp_mmshare_version>  (60) 
48012

>  <i_f3d_flags>  (60) 
0

>  <s_epik_input>  (60) 
W0NAXTEyM1tDQEBdNDVbQ0BASF0xW0NIXT1bQ0hdW0NASF02W0NASF03W0NASF0oW0NAQEhdKFtDSDJdNylbQ0gyXVtDSDNdKVtDSDJdW0NAXShPW0NIM10pKFtDSF09W0NIXVtDQEBIXTQ2KVtDQEBIXTNPYzhjMmMoW2NIXVtjSF1jOFtPSF0pW0NIMl1bQ0gyXU41W0NIMl1bQ0hdOVtDSDJdW0NIMl05

>  <s_epik_cmdline>  (60) 
J2VwaWtfcHl0aG9uJywgJy1waHQnLCAnMi4wJywgJy1waCcsICc3LjAnLCAnLXRuJywgJzgnLCAnLW1hJywgJzIwMCcsICctaW1hZScsICc8aW5maWxlLm1hZT4nLCAnLW9tYWUnLCAnPG91dGZpbGUubWFlPic=

>  <r_lp_tautomer_probability>  (60) 
1

>  <r_epik_Ionization_Penalty>  (60) 
0.0636396

>  <r_epik_Ionization_Penalty_Charging>  (60) 
0

>  <r_epik_Ionization_Penalty_Neutral>  (60) 
0.0636396

>  <r_epik_State_Penalty>  (60) 
0.0302112

>  <r_epik_Charging_Adjusted_Penalty>  (60) 
0.0302112

>  <i_epik_Tot_Q>  (60) 
0

>  <i_epik_Tot_abs_Q>  (60) 
0

>  <s_lp_Force_Field>  (60) 
OPLS3e

>  <r_lp_Energy>  (60) 
100.782

>  <b_lp_Chiralities_Consistent>  (60) 
1

>  <s_lp_Variant>  (60) 
17:0-1

>  <s_i_glide_gridfile>  (60) 
pfpi4k_grid

>  <i_i_glide_lignum>  (60) 
29

>  <i_i_glide_rotatable_bonds>  (60) 
5

>  <r_i_docking_score>  (60) 
-1.85005

>  <r_i_glide_ligand_efficiency>  (60) 
-0.0528586

>  <r_i_glide_ligand_efficiency_sa>  (60) 
-0.172904

>  <r_i_glide_ligand_efficiency_ln>  (60) 
-0.406127

>  <r_i_glide_gscore>  (60) 
-1.85005

>  <r_i_glide_lipo>  (60) 
-0.556323

>  <r_i_glide_hbond>  (60) 
0

>  <r_i_glide_metal>  (60) 
-0

>  <r_i_glide_rewards>  (60) 
-0.193429

>  <r_i_glide_evdw>  (60) 
-22.5991

>  <r_i_glide_ecoul>  (60) 
-1.01397

>  <r_i_glide_erotb>  (60) 
0.181752

>  <r_i_glide_esite>  (60) 
0

>  <r_i_glide_emodel>  (60) 
-22.757

>  <r_i_glide_energy>  (60) 
-23.6131

>  <r_i_glide_einternal>  (60) 
7.52272

>  <r_i_glide_intrahb_reward>  (60) 
-0

>  <i_i_glide_confnum>  (60) 
1

>  <i_i_glide_posenum>  (60) 
24

>  <r_i_glide_eff_state_penalty>  (60) 
0

>  <ligand_id>  (60) 
17

>  <original_smiles>  (60) 
CCC1CC2C3C=CC4C56c7c8ccc(O)c7OC5C(OC)(C=CC3C46N(CC3CC3)CC8)CC12

>  <smiles>  (60) 
[H]Oc1c([H])c([H])c2c3c1OC1([H])C4(OC([H])([H])[H])C([H])=C([H])C5([H])C([H])(C([H])=C([H])C6([H])C31C56N(C([H])([H])C1([H])C([H])([H])C1([H])[H])C([H])([H])C2([H])[H])C1([H])C([H])([H])C([H])(C([H])([H])C([H])([H])[H])C1([H])C4([H])[H]

$$$$
17:0:1
     RDKit          3D

 72 80  0  0  1  0  0  0  0  0999 V2000
    1.8619    1.3828    2.2164 C   0  0  0  0  0  0  0  0  0  0  0  0
    2.7625    0.3750    2.9437 C   0  0  0  0  0  0  0  0  0  0  0  0
    3.0588   -0.8827    2.1209 C   0  0  2  0  0  0  0  0  0  0  0  0
    1.9200   -1.8344    1.7134 C   0  0  0  0  0  0  0  0  0  0  0  0
    2.2722   -2.6795    2.9403 C   0  0  1  0  0  0  0  0  0  0  0  0
    1.7618   -4.1270    3.1995 C   0  0  2  0  0  0  0  0  0  0  0  0
    1.9451   -4.5121    4.6670 C   0  0  0  0  0  0  0  0  0  0  0  0
    2.5575   -5.6264    5.0910 C   0  0  0  0  0  0  0  0  0  0  0  0
    3.1177   -6.6374    4.1649 C   0  0  2  0  0  0  0  0  0  0  0  0
    4.1963   -6.3805    3.1158 C   0  0  2  0  0  0  0  0  0  0  0  0
    5.3422   -7.3486    3.0038 C   0  0  0  0  0  0  0  0  0  0  0  0
    5.4161   -8.7086    2.6149 C   0  0  0  0  0  0  0  0  0  0  0  0
    6.6875   -9.3153    2.6534 C   0  0  0  0  0  0  0  0  0  0  0  0
    7.8205   -8.5891    3.0857 C   0  0  0  0  0  0  0  0  0  0  0  0
    7.7013   -7.2251    3.4365 C   0  0  0  0  0  0  0  0  0  0  0  0
    8.8175   -6.5242    3.8010 O   0  0  0  0  0  0  0  0  0  0  0  0
    6.4572   -6.5869    3.3828 C   0  0  0  0  0  0  0  0  0  0  0  0
    6.2070   -5.2674    3.6127 O   0  0  0  0  0  0  0  0  0  0  0  0
    4.8902   -5.0086    3.1178 C   0  0  1  0  0  0  0  0  0  0  0  0
    4.9541   -4.2300    1.7476 C   0  0  1  0  0  0  0  0  0  0  0  0
    6.2276   -4.6069    1.1991 O   0  0  0  0  0  0  0  0  0  0  0  0
    6.7849   -3.8567    0.1216 C   0  0  0  0  0  0  0  0  0  0  0  0
    3.8770   -4.4770    0.6936 C   0  0  0  0  0  0  0  0  0  0  0  0
    2.6313   -4.9094    0.8632 C   0  0  0  0  0  0  0  0  0  0  0  0
    2.0170   -5.3009    2.1683 C   0  0  1  0  0  0  0  0  0  0  0  0
    2.7391   -6.5386    2.7119 C   0  0  2  0  0  0  0  0  0  0  0  0
    2.2152   -7.7383    2.0563 N   0  0  0  0  0  0  0  0  0  0  0  0
    1.2450   -8.5142    2.8407 C   0  0  0  0  0  0  0  0  0  0  0  0
    0.0240   -7.6885    3.2590 C   0  0  0  0  0  0  0  0  0  0  0  0
   -1.0607   -8.2920    4.1088 C   0  0  0  0  0  0  0  0  0  0  0  0
   -1.3456   -7.9544    2.6680 C   0  0  0  0  0  0  0  0  0  0  0  0
    3.1756   -8.5406    1.2976 C   0  0  0  0  0  0  0  0  0  0  0  0
    4.1391   -9.3833    2.1447 C   0  0  0  0  0  0  0  0  0  0  0  0
    4.9350   -2.7161    2.0494 C   0  0  0  0  0  0  0  0  0  0  0  0
    3.7236   -2.1101    2.8004 C   0  0  1  0  0  0  0  0  0  0  0  0
    1.6866    2.2633    2.8325 H   0  0  0  0  0  0  0  0  0  0  0  0
    0.8882    0.9554    1.9756 H   0  0  0  0  0  0  0  0  0  0  0  0
    2.3081    1.7190    1.2816 H   0  0  0  0  0  0  0  0  0  0  0  0
    3.6978    0.8735    3.2025 H   0  0  0  0  0  0  0  0  0  0  0  0
    2.2954    0.1187    3.8965 H   0  0  0  0  0  0  0  0  0  0  0  0
    3.5890   -0.6045    1.2058 H   0  0  0  0  0  0  0  0  0  0  0  0
    0.9331   -1.3715    1.7552 H   0  0  0  0  0  0  0  0  0  0  0  0
    2.1136   -2.3207    0.7598 H   0  0  0  0  0  0  0  0  0  0  0  0
    1.8487   -2.1015    3.7632 H   0  0  0  0  0  0  0  0  0  0  0  0
    0.6786   -4.0254    3.1659 H   0  0  0  0  0  0  0  0  0  0  0  0
    1.5308   -3.8222    5.3940 H   0  0  0  0  0  0  0  0  0  0  0  0
    2.6309   -5.8434    6.1508 H   0  0  0  0  0  0  0  0  0  0  0  0
    3.1544   -7.6125    4.6432 H   0  0  0  0  0  0  0  0  0  0  0  0
    6.8074  -10.3464    2.3485 H   0  0  0  0  0  0  0  0  0  0  0  0
    8.7836   -9.0588    3.1288 H   0  0  0  0  0  0  0  0  0  0  0  0
    9.6143   -6.9693    3.5789 H   0  0  0  0  0  0  0  0  0  0  0  0
    4.4279   -4.3869    3.8770 H   0  0  0  0  0  0  0  0  0  0  0  0
    7.7085   -4.3378   -0.1982 H   0  0  0  0  0  0  0  0  0  0  0  0
    7.0510   -2.8507    0.4430 H   0  0  0  0  0  0  0  0  0  0  0  0
    6.1373   -3.7913   -0.7532 H   0  0  0  0  0  0  0  0  0  0  0  0
    4.1323   -4.2371   -0.3249 H   0  0  0  0  0  0  0  0  0  0  0  0
    1.9847   -5.0151    0.0003 H   0  0  0  0  0  0  0  0  0  0  0  0
    1.0287   -5.6111    1.8416 H   0  0  0  0  0  0  0  0  0  0  0  0
    0.9009   -9.3699    2.2562 H   0  0  0  0  0  0  0  0  0  0  0  0
    1.7057   -8.9402    3.7338 H   0  0  0  0  0  0  0  0  0  0  0  0
    0.2366   -6.6769    3.6028 H   0  0  0  0  0  0  0  0  0  0  0  0
   -0.9250   -9.3311    4.3984 H   0  0  0  0  0  0  0  0  0  0  0  0
   -1.4755   -7.6353    4.8716 H   0  0  0  0  0  0  0  0  0  0  0  0
   -1.9789   -7.0922    2.4766 H   0  0  0  0  0  0  0  0  0  0  0  0
   -1.4382   -8.7745    1.9567 H   0  0  0  0  0  0  0  0  0  0  0  0
    2.5943   -9.2381    0.6920 H   0  0  0  0  0  0  0  0  0  0  0  0
    3.7330   -7.9298    0.5855 H   0  0  0  0  0  0  0  0  0  0  0  0
    4.4866  -10.1833    1.4901 H   0  0  0  0  0  0  0  0  0  0  0  0
    3.6548   -9.9101    2.9667 H   0  0  0  0  0  0  0  0  0  0  0  0
    5.8460   -2.4775    2.6007 H   0  0  0  0  0  0  0  0  0  0  0  0
    5.0411   -2.1825    1.1013 H   0  0  0  0  0  0  0  0  0  0  0  0
    4.0378   -1.8103    3.8010 H   0  0  0  0  0  0  0  0  0  0  0  0
  1  2  1  0
  1 36  1  0
  1 37  1  0
  1 38  1  0
  2  3  1  0
  2 39  1  0
  2 40  1  0
  3 35  1  0
  3  4  1  0
  3 41  1  6
  4  5  1  0
  4 42  1  0
  4 43  1  0
  5 35  1  0
  5  6  1  0
  5 44  1  1
  6 25  1  0
  6  7  1  0
  6 45  1  1
  7  8  2  0
  7 46  1  0
  8  9  1  0
  8 47  1  0
  9 26  1  0
  9 10  1  0
  9 48  1  1
 10 19  1  0
 10 26  1  0
 10 11  1  6
 11 17  2  0
 11 12  1  0
 12 33  1  0
 12 13  2  0
 13 14  1  0
 13 49  1  0
 14 15  2  0
 14 50  1  0
 15 16  1  0
 15 17  1  0
 16 51  1  0
 17 18  1  0
 18 19  1  0
 19 20  1  0
 19 52  1  1
 20 21  1  6
 20 23  1  0
 20 34  1  0
 21 22  1  0
 22 53  1  0
 22 54  1  0
 22 55  1  0
 23 24  2  0
 23 56  1  0
 24 25  1  0
 24 57  1  0
 25 26  1  0
 25 58  1  6
 26 27  1  6
 27 28  1  0
 27 32  1  0
 28 29  1  0
 28 59  1  0
 28 60  1  0
 29 31  1  0
 29 30  1  0
 29 61  1  0
 30 31  1  0
 30 62  1  0
 30 63  1  0
 31 64  1  0
 31 65  1  0
 32 33  1  0
 32 66  1  0
 32 67  1  0
 33 68  1  0
 33 69  1  0
 34 35  1  0
 34 70  1  0
 34 71  1  0
 35 72  1  1
M  END
>  <i_m_ct_stereo_status>  (61) 
1

>  <s_m_source_file>  (61) 
/var/tmp/pbs.5076255.sched01/tmpmzpp47sj/0ood7iq68.sdf

>  <i_m_source_file_index>  (61) 
29

>  <i_lp_mmshare_version>  (61) 
48012

>  <i_f3d_flags>  (61) 
0

>  <s_epik_input>  (61) 
W0NAXTEyM1tDQEBdNDVbQ0BASF0xW0NIXT1bQ0hdW0NASF02W0NASF03W0NASF0oW0NAQEhdKFtDSDJdNylbQ0gyXVtDSDNdKVtDSDJdW0NAXShPW0NIM10pKFtDSF09W0NIXVtDQEBIXTQ2KVtDQEBIXTNPYzhjMmMoW2NIXVtjSF1jOFtPSF0pW0NIMl1bQ0gyXU41W0NIMl1bQ0hdOVtDSDJdW0NIMl05

>  <s_epik_cmdline>  (61) 
J2VwaWtfcHl0aG9uJywgJy1waHQnLCAnMi4wJywgJy1waCcsICc3LjAnLCAnLXRuJywgJzgnLCAnLW1hJywgJzIwMCcsICctaW1hZScsICc8aW5maWxlLm1hZT4nLCAnLW9tYWUnLCAnPG91dGZpbGUubWFlPic=

>  <r_lp_tautomer_probability>  (61) 
1

>  <r_epik_Ionization_Penalty>  (61) 
0.0636396

>  <r_epik_Ionization_Penalty_Charging>  (61) 
0

>  <r_epik_Ionization_Penalty_Neutral>  (61) 
0.0636396

>  <r_epik_State_Penalty>  (61) 
0.0302112

>  <r_epik_Charging_Adjusted_Penalty>  (61) 
0.0302112

>  <i_epik_Tot_Q>  (61) 
0

>  <i_epik_Tot_abs_Q>  (61) 
0

>  <s_lp_Force_Field>  (61) 
OPLS3e

>  <r_lp_Energy>  (61) 
100.782

>  <b_lp_Chiralities_Consistent>  (61) 
1

>  <s_lp_Variant>  (61) 
17:0-1

>  <s_i_glide_gridfile>  (61) 
pfpi4k_grid

>  <i_i_glide_lignum>  (61) 
29

>  <i_i_glide_rotatable_bonds>  (61) 
5

>  <r_i_docking_score>  (61) 
-1.68185

>  <r_i_glide_ligand_efficiency>  (61) 
-0.0480529

>  <r_i_glide_ligand_efficiency_sa>  (61) 
-0.157184

>  <r_i_glide_ligand_efficiency_ln>  (61) 
-0.369204

>  <r_i_glide_gscore>  (61) 
-1.68185

>  <r_i_glide_lipo>  (61) 
-0.248968

>  <r_i_glide_hbond>  (61) 
0

>  <r_i_glide_metal>  (61) 
-0

>  <r_i_glide_rewards>  (61) 
-0.193429

>  <r_i_glide_evdw>  (61) 
-26.4139

>  <r_i_glide_ecoul>  (61) 
-0.670072

>  <r_i_glide_erotb>  (61) 
0.181752

>  <r_i_glide_esite>  (61) 
0

>  <r_i_glide_emodel>  (61) 
-28.9613

>  <r_i_glide_energy>  (61) 
-27.084

>  <r_i_glide_einternal>  (61) 
1.1259

>  <r_i_glide_intrahb_reward>  (61) 
-0

>  <i_i_glide_confnum>  (61) 
1

>  <i_i_glide_posenum>  (61) 
37

>  <r_i_glide_eff_state_penalty>  (61) 
0

>  <ligand_id>  (61) 
17

>  <original_smiles>  (61) 
CCC1CC2C3C=CC4C56c7c8ccc(O)c7OC5C(OC)(C=CC3C46N(CC3CC3)CC8)CC12

>  <smiles>  (61) 
[H]Oc1c([H])c([H])c2c3c1OC1([H])C4(OC([H])([H])[H])C([H])=C([H])C5([H])C([H])(C([H])=C([H])C6([H])C31C56N(C([H])([H])C1([H])C([H])([H])C1([H])[H])C([H])([H])C2([H])[H])C1([H])C([H])([H])C([H])(C([H])([H])C([H])([H])[H])C1([H])C4([H])[H]

$$$$
17:0:2
     RDKit          3D

 72 80  0  0  1  0  0  0  0  0999 V2000
    2.2500    1.7060    2.6556 C   0  0  0  0  0  0  0  0  0  0  0  0
    3.1645    0.6460    3.2816 C   0  0  0  0  0  0  0  0  0  0  0  0
    3.3141   -0.6098    2.4399 C   0  0  2  0  0  0  0  0  0  0  0  0
    2.0863   -1.4778    2.0818 C   0  0  0  0  0  0  0  0  0  0  0  0
    2.4500   -2.3720    3.2820 C   0  0  1  0  0  0  0  0  0  0  0  0
    1.8518   -3.7789    3.5664 C   0  0  2  0  0  0  0  0  0  0  0  0
    2.0957   -4.1925    5.0118 C   0  0  0  0  0  0  0  0  0  0  0  0
    2.6520   -5.3676    5.3867 C   0  0  0  0  0  0  0  0  0  0  0  0
    3.0713   -6.3937    4.4179 C   0  0  2  0  0  0  0  0  0  0  0  0
    4.1069   -6.2016    3.3034 C   0  0  2  0  0  0  0  0  0  0  0  0
    5.1793   -7.2451    3.1069 C   0  0  0  0  0  0  0  0  0  0  0  0
    5.1222   -8.6027    2.6902 C   0  0  0  0  0  0  0  0  0  0  0  0
    6.3510   -9.2938    2.6451 C   0  0  0  0  0  0  0  0  0  0  0  0
    7.5576   -8.6535    3.0143 C   0  0  0  0  0  0  0  0  0  0  0  0
    7.5651   -7.2973    3.3886 C   0  0  0  0  0  0  0  0  0  0  0  0
    8.7436   -6.6797    3.6882 O   0  0  0  0  0  0  0  0  0  0  0  0
    6.3538   -6.5550    3.4255 C   0  0  0  0  0  0  0  0  0  0  0  0
    6.2133   -5.2457    3.6857 O   0  0  0  0  0  0  0  0  0  0  0  0
    4.8997   -4.8805    3.2804 C   0  0  1  0  0  0  0  0  0  0  0  0
    4.9319   -4.0883    1.9107 C   0  0  1  0  0  0  0  0  0  0  0  0
    6.1361   -4.5476    1.2757 O   0  0  0  0  0  0  0  0  0  0  0  0
    6.6894   -3.8171    0.1805 C   0  0  0  0  0  0  0  0  0  0  0  0
    3.7716   -4.2476    0.9381 C   0  0  0  0  0  0  0  0  0  0  0  0
    2.5126   -4.6020    1.1821 C   0  0  0  0  0  0  0  0  0  0  0  0
    1.9440   -4.9699    2.5176 C   0  0  1  0  0  0  0  0  0  0  0  0
    2.6266   -6.2480    3.0017 C   0  0  2  0  0  0  0  0  0  0  0  0
    1.9826   -7.3967    2.3436 N   0  0  0  0  0  0  0  0  0  0  0  0
    0.9815   -8.0603    3.1772 C   0  0  0  0  0  0  0  0  0  0  0  0
   -0.1629   -8.6550    2.3835 C   0  0  0  0  0  0  0  0  0  0  0  0
   -1.4408   -9.0348    3.1099 C   0  0  0  0  0  0  0  0  0  0  0  0
   -0.5518  -10.1080    2.5509 C   0  0  0  0  0  0  0  0  0  0  0  0
    2.8307   -8.2605    1.5212 C   0  0  0  0  0  0  0  0  0  0  0  0
    3.7768   -9.1749    2.2992 C   0  0  0  0  0  0  0  0  0  0  0  0
    5.0468   -2.5763    2.2271 C   0  0  0  0  0  0  0  0  0  0  0  0
    3.9346   -1.9006    3.0477 C   0  0  1  0  0  0  0  0  0  0  0  0
    2.1824    2.5879    3.2887 H   0  0  0  0  0  0  0  0  0  0  0  0
    1.2374    1.3311    2.5161 H   0  0  0  0  0  0  0  0  0  0  0  0
    2.6155    2.0245    1.6823 H   0  0  0  0  0  0  0  0  0  0  0  0
    4.1444    1.0926    3.4556 H   0  0  0  0  0  0  0  0  0  0  0  0
    2.7838    0.4057    4.2798 H   0  0  0  0  0  0  0  0  0  0  0  0
    3.8139   -0.3581    1.4875 H   0  0  0  0  0  0  0  0  0  0  0  0
    1.1328   -0.9518    2.1925 H   0  0  0  0  0  0  0  0  0  0  0  0
    2.1798   -1.9625    1.1149 H   0  0  0  0  0  0  0  0  0  0  0  0
    2.1253   -1.7726    4.1348 H   0  0  0  0  0  0  0  0  0  0  0  0
    0.7771   -3.5859    3.5898 H   0  0  0  0  0  0  0  0  0  0  0  0
    1.7882   -3.4829    5.7682 H   0  0  0  0  0  0  0  0  0  0  0  0
    2.7781   -5.5883    6.4336 H   0  0  0  0  0  0  0  0  0  0  0  0
    3.0505   -7.3941    4.8721 H   0  0  0  0  0  0  0  0  0  0  0  0
    6.3746  -10.3223    2.3276 H   0  0  0  0  0  0  0  0  0  0  0  0
    8.4807   -9.1997    2.9963 H   0  0  0  0  0  0  0  0  0  0  0  0
    9.4920   -7.1761    3.4266 H   0  0  0  0  0  0  0  0  0  0  0  0
    4.5278   -4.2308    4.0698 H   0  0  0  0  0  0  0  0  0  0  0  0
    7.5558   -4.3600   -0.2022 H   0  0  0  0  0  0  0  0  0  0  0  0
    7.0521   -2.8404    0.5021 H   0  0  0  0  0  0  0  0  0  0  0  0
    5.9988   -3.6851   -0.6510 H   0  0  0  0  0  0  0  0  0  0  0  0
    3.9826   -4.0024   -0.0902 H   0  0  0  0  0  0  0  0  0  0  0  0
    1.8141   -4.6379    0.3587 H   0  0  0  0  0  0  0  0  0  0  0  0
    0.9073   -5.2390    2.3357 H   0  0  0  0  0  0  0  0  0  0  0  0
    1.4258   -8.8299    3.8150 H   0  0  0  0  0  0  0  0  0  0  0  0
    0.5398   -7.3289    3.8550 H   0  0  0  0  0  0  0  0  0  0  0  0
   -0.3198   -8.2107    1.3971 H   0  0  0  0  0  0  0  0  0  0  0  0
   -1.4590   -8.9213    4.1944 H   0  0  0  0  0  0  0  0  0  0  0  0
   -2.3888   -8.8686    2.6077 H   0  0  0  0  0  0  0  0  0  0  0  0
   -0.9226  -10.6437    1.6809 H   0  0  0  0  0  0  0  0  0  0  0  0
    0.0238  -10.7079    3.2537 H   0  0  0  0  0  0  0  0  0  0  0  0
    2.1579   -8.8977    0.9418 H   0  0  0  0  0  0  0  0  0  0  0  0
    3.3837   -7.6705    0.7935 H   0  0  0  0  0  0  0  0  0  0  0  0
    4.0248   -9.9932    1.6149 H   0  0  0  0  0  0  0  0  0  0  0  0
    3.3165   -9.6771    3.1448 H   0  0  0  0  0  0  0  0  0  0  0  0
    6.0022   -2.4098    2.7194 H   0  0  0  0  0  0  0  0  0  0  0  0
    5.1338   -2.0406    1.2785 H   0  0  0  0  0  0  0  0  0  0  0  0
    4.3342   -1.6352    4.0427 H   0  0  0  0  0  0  0  0  0  0  0  0
  1  2  1  0
  1 36  1  0
  1 37  1  0
  1 38  1  0
  2  3  1  0
  2 39  1  0
  2 40  1  0
  3 35  1  0
  3  4  1  0
  3 41  1  6
  4  5  1  0
  4 42  1  0
  4 43  1  0
  5 35  1  0
  5  6  1  0
  5 44  1  1
  6 25  1  0
  6  7  1  0
  6 45  1  1
  7  8  2  0
  7 46  1  0
  8  9  1  0
  8 47  1  0
  9 26  1  0
  9 10  1  0
  9 48  1  1
 10 19  1  0
 10 26  1  0
 10 11  1  6
 11 17  2  0
 11 12  1  0
 12 33  1  0
 12 13  2  0
 13 14  1  0
 13 49  1  0
 14 15  2  0
 14 50  1  0
 15 16  1  0
 15 17  1  0
 16 51  1  0
 17 18  1  0
 18 19  1  0
 19 20  1  0
 19 52  1  1
 20 21  1  6
 20 23  1  0
 20 34  1  0
 21 22  1  0
 22 53  1  0
 22 54  1  0
 22 55  1  0
 23 24  2  0
 23 56  1  0
 24 25  1  0
 24 57  1  0
 25 26  1  0
 25 58  1  6
 26 27  1  6
 27 28  1  0
 27 32  1  0
 28 29  1  0
 28 59  1  0
 28 60  1  0
 29 31  1  0
 29 30  1  0
 29 61  1  0
 30 31  1  0
 30 62  1  0
 30 63  1  0
 31 64  1  0
 31 65  1  0
 32 33  1  0
 32 66  1  0
 32 67  1  0
 33 68  1  0
 33 69  1  0
 34 35  1  0
 34 70  1  0
 34 71  1  0
 35 72  1  1
M  END
>  <i_m_ct_stereo_status>  (62) 
1

>  <s_m_source_file>  (62) 
/var/tmp/pbs.5076255.sched01/tmpmzpp47sj/0ood7iq68.sdf

>  <i_m_source_file_index>  (62) 
29

>  <i_lp_mmshare_version>  (62) 
48012

>  <i_f3d_flags>  (62) 
0

>  <s_epik_input>  (62) 
W0NAXTEyM1tDQEBdNDVbQ0BASF0xW0NIXT1bQ0hdW0NASF02W0NASF03W0NASF0oW0NAQEhdKFtDSDJdNylbQ0gyXVtDSDNdKVtDSDJdW0NAXShPW0NIM10pKFtDSF09W0NIXVtDQEBIXTQ2KVtDQEBIXTNPYzhjMmMoW2NIXVtjSF1jOFtPSF0pW0NIMl1bQ0gyXU41W0NIMl1bQ0hdOVtDSDJdW0NIMl05

>  <s_epik_cmdline>  (62) 
J2VwaWtfcHl0aG9uJywgJy1waHQnLCAnMi4wJywgJy1waCcsICc3LjAnLCAnLXRuJywgJzgnLCAnLW1hJywgJzIwMCcsICctaW1hZScsICc8aW5maWxlLm1hZT4nLCAnLW9tYWUnLCAnPG91dGZpbGUubWFlPic=

>  <r_lp_tautomer_probability>  (62) 
1

>  <r_epik_Ionization_Penalty>  (62) 
0.0636396

>  <r_epik_Ionization_Penalty_Charging>  (62) 
0

>  <r_epik_Ionization_Penalty_Neutral>  (62) 
0.0636396

>  <r_epik_State_Penalty>  (62) 
0.0302112

>  <r_epik_Charging_Adjusted_Penalty>  (62) 
0.0302112

>  <i_epik_Tot_Q>  (62) 
0

>  <i_epik_Tot_abs_Q>  (62) 
0

>  <s_lp_Force_Field>  (62) 
OPLS3e

>  <r_lp_Energy>  (62) 
100.782

>  <b_lp_Chiralities_Consistent>  (62) 
1

>  <s_lp_Variant>  (62) 
17:0-1

>  <s_i_glide_gridfile>  (62) 
pfpi4k_grid

>  <i_i_glide_lignum>  (62) 
29

>  <i_i_glide_rotatable_bonds>  (62) 
5

>  <r_i_docking_score>  (62) 
-1.67979

>  <r_i_glide_ligand_efficiency>  (62) 
-0.047994

>  <r_i_glide_ligand_efficiency_sa>  (62) 
-0.156992

>  <r_i_glide_ligand_efficiency_ln>  (62) 
-0.368752

>  <r_i_glide_gscore>  (62) 
-1.67979

>  <r_i_glide_lipo>  (62) 
-0.299381

>  <r_i_glide_hbond>  (62) 
0

>  <r_i_glide_metal>  (62) 
-0

>  <r_i_glide_rewards>  (62) 
-0.193429

>  <r_i_glide_evdw>  (62) 
-24.8852

>  <r_i_glide_ecoul>  (62) 
-0.829836

>  <r_i_glide_erotb>  (62) 
0.181752

>  <r_i_glide_esite>  (62) 
0

>  <r_i_glide_emodel>  (62) 
-27.753

>  <r_i_glide_energy>  (62) 
-25.715

>  <r_i_glide_einternal>  (62) 
1.03389

>  <r_i_glide_intrahb_reward>  (62) 
-0

>  <i_i_glide_confnum>  (62) 
1

>  <i_i_glide_posenum>  (62) 
1

>  <r_i_glide_eff_state_penalty>  (62) 
0

>  <ligand_id>  (62) 
17

>  <original_smiles>  (62) 
CCC1CC2C3C=CC4C56c7c8ccc(O)c7OC5C(OC)(C=CC3C46N(CC3CC3)CC8)CC12

>  <smiles>  (62) 
[H]Oc1c([H])c([H])c2c3c1OC1([H])C4(OC([H])([H])[H])C([H])=C([H])C5([H])C([H])(C([H])=C([H])C6([H])C31C56N(C([H])([H])C1([H])C([H])([H])C1([H])[H])C([H])([H])C2([H])[H])C1([H])C([H])([H])C([H])(C([H])([H])C([H])([H])[H])C1([H])C4([H])[H]

$$$$
17:1:0
     RDKit          3D

 73 81  0  0  1  0  0  0  0  0999 V2000
   -0.9738   -4.1938    8.2446 C   0  0  0  0  0  0  0  0  0  0  0  0
    0.1213   -5.0381    7.5849 C   0  0  0  0  0  0  0  0  0  0  0  0
    1.1558   -4.2015    6.8254 C   0  0  2  0  0  0  0  0  0  0  0  0
    0.7458   -3.3750    5.5903 C   0  0  0  0  0  0  0  0  0  0  0  0
    1.2197   -4.5538    4.7355 C   0  0  1  0  0  0  0  0  0  0  0  0
    1.4611   -4.4957    3.1984 C   0  0  2  0  0  0  0  0  0  0  0  0
    1.4901   -5.8948    2.5930 C   0  0  0  0  0  0  0  0  0  0  0  0
    2.4654   -6.3520    1.7900 C   0  0  0  0  0  0  0  0  0  0  0  0
    3.6312   -5.5329    1.3774 C   0  0  2  0  0  0  0  0  0  0  0  0
    4.6449   -4.8963    2.3451 C   0  0  2  0  0  0  0  0  0  0  0  0
    6.1103   -5.0817    2.0463 C   0  0  0  0  0  0  0  0  0  0  0  0
    6.9287   -4.6709    0.9700 C   0  0  0  0  0  0  0  0  0  0  0  0
    8.2791   -5.0734    0.9960 C   0  0  0  0  0  0  0  0  0  0  0  0
    8.7696   -5.8564    2.0578 C   0  0  0  0  0  0  0  0  0  0  0  0
    7.9258   -6.2351    3.1138 C   0  0  0  0  0  0  0  0  0  0  0  0
    8.4124   -6.9680    4.1531 O   0  0  0  0  0  0  0  0  0  0  0  0
    6.5836   -5.8233    3.1325 C   0  0  0  0  0  0  0  0  0  0  0  0
    5.6861   -6.0476    4.1288 O   0  0  0  0  0  0  0  0  0  0  0  0
    4.5481   -5.2298    3.8492 C   0  0  1  0  0  0  0  0  0  0  0  0
    4.4663   -4.0255    4.8799 C   0  0  1  0  0  0  0  0  0  0  0  0
    5.8152   -3.7701    5.3267 O   0  0  0  0  0  0  0  0  0  0  0  0
    6.0286   -2.9999    6.5225 C   0  0  0  0  0  0  0  0  0  0  0  0
    3.8805   -2.6905    4.3973 C   0  0  0  0  0  0  0  0  0  0  0  0
    3.0101   -2.4444    3.4132 C   0  0  0  0  0  0  0  0  0  0  0  0
    2.4347   -3.4732    2.4999 C   0  0  1  0  0  0  0  0  0  0  0  0
    3.5655   -4.0586    1.6569 C   0  0  2  0  0  0  0  0  0  0  0  0
    3.9346   -3.1632    0.5129 N   0  0  2  0  0  0  0  0  0  0  0  0
    3.2584   -3.5072   -0.7759 C   0  0  0  0  0  0  0  0  0  0  0  0
    3.2663   -2.3757   -1.8019 C   0  0  0  0  0  0  0  0  0  0  0  0
    2.7650   -2.6311   -3.2129 C   0  0  0  0  0  0  0  0  0  0  0  0
    4.2319   -2.4055   -2.9757 C   0  0  0  0  0  0  0  0  0  0  0  0
    5.3446   -2.7172    0.3923 C   0  0  0  0  0  0  0  0  0  0  0  0
    6.3140   -3.7936   -0.1018 C   0  0  0  0  0  0  0  0  0  0  0  0
    3.6349   -4.4859    6.1021 C   0  0  0  0  0  0  0  0  0  0  0  0
    2.1742   -4.9250    5.9046 C   0  0  1  0  0  0  0  0  0  0  0  0
   -1.6875   -4.8296    8.7657 H   0  0  0  0  0  0  0  0  0  0  0  0
   -1.5275   -3.6232    7.5023 H   0  0  0  0  0  0  0  0  0  0  0  0
   -0.5583   -3.4956    8.9704 H   0  0  0  0  0  0  0  0  0  0  0  0
    0.6237   -5.6204    8.3582 H   0  0  0  0  0  0  0  0  0  0  0  0
   -0.3482   -5.7711    6.9286 H   0  0  0  0  0  0  0  0  0  0  0  0
    1.6507   -3.5279    7.5285 H   0  0  0  0  0  0  0  0  0  0  0  0
   -0.3256   -3.1710    5.5321 H   0  0  0  0  0  0  0  0  0  0  0  0
    1.3463   -2.4699    5.4819 H   0  0  0  0  0  0  0  0  0  0  0  0
    0.3999   -5.2713    4.8363 H   0  0  0  0  0  0  0  0  0  0  0  0
    0.4997   -4.1255    2.8777 H   0  0  0  0  0  0  0  0  0  0  0  0
    0.6666   -6.5510    2.8513 H   0  0  0  0  0  0  0  0  0  0  0  0
    2.4229   -7.3608    1.4025 H   0  0  0  0  0  0  0  0  0  0  0  0
    4.0360   -5.8715    0.4286 H   0  0  0  0  0  0  0  0  0  0  0  0
    8.9486   -4.7761    0.2045 H   0  0  0  0  0  0  0  0  0  0  0  0
    9.8021   -6.1676    2.0860 H   0  0  0  0  0  0  0  0  0  0  0  0
    7.7441   -7.1675    4.7887 H   0  0  0  0  0  0  0  0  0  0  0  0
    3.7006   -5.8964    4.0001 H   0  0  0  0  0  0  0  0  0  0  0  0
    7.0788   -2.7229    6.6087 H   0  0  0  0  0  0  0  0  0  0  0  0
    5.7756   -3.5591    7.4261 H   0  0  0  0  0  0  0  0  0  0  0  0
    5.4583   -2.0726    6.5485 H   0  0  0  0  0  0  0  0  0  0  0  0
    4.1843   -1.8180    4.9470 H   0  0  0  0  0  0  0  0  0  0  0  0
    2.6906   -1.4257    3.2462 H   0  0  0  0  0  0  0  0  0  0  0  0
    1.8138   -2.8993    1.8060 H   0  0  0  0  0  0  0  0  0  0  0  0
    3.7015   -4.3937   -1.2285 H   0  0  0  0  0  0  0  0  0  0  0  0
    2.2119   -3.7379   -0.5738 H   0  0  0  0  0  0  0  0  0  0  0  0
    3.0147   -1.3915   -1.3990 H   0  0  0  0  0  0  0  0  0  0  0  0
    2.4402   -3.6381   -3.4675 H   0  0  0  0  0  0  0  0  0  0  0  0
    2.2236   -1.8314   -3.7148 H   0  0  0  0  0  0  0  0  0  0  0  0
    4.6518   -1.4508   -3.2933 H   0  0  0  0  0  0  0  0  0  0  0  0
    4.9002   -3.2630   -3.0554 H   0  0  0  0  0  0  0  0  0  0  0  0
    5.3622   -1.9163   -0.3486 H   0  0  0  0  0  0  0  0  0  0  0  0
    5.7010   -2.2462    1.3127 H   0  0  0  0  0  0  0  0  0  0  0  0
    7.1513   -3.2593   -0.5540 H   0  0  0  0  0  0  0  0  0  0  0  0
    5.8997   -4.4050   -0.9074 H   0  0  0  0  0  0  0  0  0  0  0  0
    4.1642   -5.3026    6.5919 H   0  0  0  0  0  0  0  0  0  0  0  0
    3.6288   -3.6826    6.8359 H   0  0  0  0  0  0  0  0  0  0  0  0
    2.0872   -6.0018    6.0614 H   0  0  0  0  0  0  0  0  0  0  0  0
    3.4767   -2.2982    0.7697 H   0  0  0  0  0  0  0  0  0  0  0  0
  1  2  1  0
  1 36  1  0
  1 37  1  0
  1 38  1  0
  2  3  1  0
  2 39  1  0
  2 40  1  0
  3 35  1  0
  3  4  1  0
  3 41  1  1
  4  5  1  0
  4 42  1  0
  4 43  1  0
  5 35  1  0
  5  6  1  0
  5 44  1  6
  6 25  1  0
  6  7  1  0
  6 45  1  6
  7  8  2  0
  7 46  1  0
  8  9  1  0
  8 47  1  0
  9 26  1  0
  9 10  1  0
  9 48  1  6
 10 19  1  0
 26 10  1  1
 10 11  1  6
 11 17  2  0
 11 12  1  0
 12 33  1  0
 12 13  2  0
 13 14  1  0
 13 49  1  0
 14 15  2  0
 14 50  1  0
 15 16  1  0
 15 17  1  0
 16 51  1  0
 17 18  1  0
 18 19  1  0
 19 20  1  0
 19 52  1  6
 20 21  1  1
 20 23  1  0
 20 34  1  0
 21 22  1  0
 22 53  1  0
 22 54  1  0
 22 55  1  0
 23 24  2  0
 23 56  1  0
 24 25  1  0
 24 57  1  0
 25 26  1  0
 25 58  1  6
 26 27  1  0
 27 28  1  0
 27 32  1  0
 27 73  1  1
 28 29  1  0
 28 59  1  0
 28 60  1  0
 29 31  1  0
 29 30  1  0
 29 61  1  0
 30 31  1  0
 30 62  1  0
 30 63  1  0
 31 64  1  0
 31 65  1  0
 32 33  1  0
 32 66  1  0
 32 67  1  0
 33 68  1  0
 33 69  1  0
 34 35  1  0
 34 70  1  0
 34 71  1  0
 35 72  1  1
M  CHG  1  27   1
M  END
>  <i_m_ct_stereo_status>  (63) 
1

>  <s_m_source_file>  (63) 
/var/tmp/pbs.5076255.sched01/tmpmzpp47sj/0ood7iq68.sdf

>  <i_m_source_file_index>  (63) 
30

>  <i_lp_mmshare_version>  (63) 
48012

>  <i_f3d_flags>  (63) 
1

>  <s_epik_input>  (63) 
W0NAXTEyM1tDQEBdNDVbQ0BASF0xW0NIXT1bQ0hdW0NASF02W0NASF03W0NASF0oW0NAQEhdKFtDSDJdNylbQ0gyXVtDSDNdKVtDSDJdW0NAXShPW0NIM10pKFtDSF09W0NIXVtDQEBIXTQ2KVtDQEBIXTNPYzhjMmMoW2NIXVtjSF1jOFtPSF0pW0NIMl1bQ0gyXU41W0NIMl1bQ0hdOVtDSDJdW0NIMl05

>  <s_epik_cmdline>  (63) 
J2VwaWtfcHl0aG9uJywgJy1waHQnLCAnMi4wJywgJy1waCcsICc3LjAnLCAnLXRuJywgJzgnLCAnLW1hJywgJzIwMCcsICctaW1hZScsICc8aW5maWxlLm1hZT4nLCAnLW9tYWUnLCAnPG91dGZpbGUubWFlPic=

>  <r_lp_tautomer_probability>  (63) 
1

>  <r_epik_Ionization_Penalty>  (63) 
1.40464

>  <r_epik_Ionization_Penalty_Charging>  (63) 
1.37207

>  <r_epik_Ionization_Penalty_Neutral>  (63) 
0.0325711

>  <r_epik_State_Penalty>  (63) 
1.84998

>  <r_epik_Charging_Adjusted_Penalty>  (63) 
3.22205

>  <i_epik_Tot_Q>  (63) 
1

>  <i_epik_Tot_abs_Q>  (63) 
1

>  <s_lp_Force_Field>  (63) 
OPLS3e

>  <r_lp_Energy>  (63) 
94.6225

>  <b_lp_Chiralities_Consistent>  (63) 
1

>  <s_lp_Variant>  (63) 
17:0-2

>  <s_i_glide_gridfile>  (63) 
pfpi4k_grid

>  <i_i_glide_lignum>  (63) 
30

>  <i_i_glide_rotatable_bonds>  (63) 
5

>  <r_i_docking_score>  (63) 
-2.47655

>  <r_i_glide_ligand_efficiency>  (63) 
-0.0707585

>  <r_i_glide_ligand_efficiency_sa>  (63) 
-0.231456

>  <r_i_glide_ligand_efficiency_ln>  (63) 
-0.543657

>  <r_i_glide_gscore>  (63) 
-2.47655

>  <r_i_glide_lipo>  (63) 
-0.727623

>  <r_i_glide_hbond>  (63) 
0

>  <r_i_glide_metal>  (63) 
-0

>  <r_i_glide_rewards>  (63) 
-0.186557

>  <r_i_glide_evdw>  (63) 
-24.274

>  <r_i_glide_ecoul>  (63) 
-3.52893

>  <r_i_glide_erotb>  (63) 
0.181045

>  <r_i_glide_esite>  (63) 
-0.000372648

>  <r_i_glide_emodel>  (63) 
-29.6694

>  <r_i_glide_energy>  (63) 
-27.8029

>  <r_i_glide_einternal>  (63) 
3.26129

>  <r_i_glide_intrahb_reward>  (63) 
-0

>  <i_i_glide_confnum>  (63) 
1

>  <i_i_glide_posenum>  (63) 
1

>  <r_i_glide_eff_state_penalty>  (63) 
0

>  <ligand_id>  (63) 
17

>  <original_smiles>  (63) 
CCC1CC2C3C=CC4C56c7c8ccc(O)c7OC5C(OC)(C=CC3C46N(CC3CC3)CC8)CC12

>  <smiles>  (63) 
[H]Oc1c([H])c([H])c2c3c1OC1([H])C4(OC([H])([H])[H])C([H])=C([H])C5([H])C([H])(C([H])=C([H])C6([H])C31C56[N+]([H])(C([H])([H])C1([H])C([H])([H])C1([H])[H])C([H])([H])C2([H])[H])C1([H])C([H])([H])C([H])(C([H])([H])C([H])([H])[H])C1([H])C4([H])[H]

$$$$
17:1:1
     RDKit          3D

 73 81  0  0  1  0  0  0  0  0999 V2000
   -4.1372    3.5764    2.8437 C   0  0  0  0  0  0  0  0  0  0  0  0
   -3.0490    3.3145    3.8959 C   0  0  0  0  0  0  0  0  0  0  0  0
   -1.6815    3.1422    3.2466 C   0  0  2  0  0  0  0  0  0  0  0  0
   -1.4100    1.9405    2.3405 C   0  0  0  0  0  0  0  0  0  0  0  0
   -0.8110    1.2455    3.5394 C   0  0  1  0  0  0  0  0  0  0  0  0
    0.0733   -0.0322    3.4567 C   0  0  2  0  0  0  0  0  0  0  0  0
    0.1492   -0.7269    4.7992 C   0  0  0  0  0  0  0  0  0  0  0  0
    1.3058   -1.1121    5.3660 C   0  0  0  0  0  0  0  0  0  0  0  0
    2.6108   -0.9081    4.7024 C   0  0  2  0  0  0  0  0  0  0  0  0
    3.1944    0.4477    4.2765 C   0  0  2  0  0  0  0  0  0  0  0  0
    4.6068    0.7441    4.7045 C   0  0  0  0  0  0  0  0  0  0  0  0
    5.8380    0.1406    4.3779 C   0  0  0  0  0  0  0  0  0  0  0  0
    7.0010    0.6197    5.0085 C   0  0  0  0  0  0  0  0  0  0  0  0
    6.9002    1.6682    5.9512 C   0  0  0  0  0  0  0  0  0  0  0  0
    5.6699    2.2645    6.2180 C   0  0  0  0  0  0  0  0  0  0  0  0
    5.5861    3.3493    7.0350 O   0  0  0  0  0  0  0  0  0  0  0  0
    4.5025    1.8108    5.5779 C   0  0  0  0  0  0  0  0  0  0  0  0
    3.2452    2.3510    5.6918 O   0  0  0  0  0  0  0  0  0  0  0  0
    2.4498    1.7298    4.6778 C   0  0  1  0  0  0  0  0  0  0  0  0
    2.0823    2.7589    3.5396 C   0  0  1  0  0  0  0  0  0  0  0  0
    3.1512    3.7295    3.5144 O   0  0  0  0  0  0  0  0  0  0  0  0
    2.9559    4.9918    2.8584 C   0  0  0  0  0  0  0  0  0  0  0  0
    1.9116    2.2057    2.1117 C   0  0  0  0  0  0  0  0  0  0  0  0
    1.5957    0.9897    1.6786 C   0  0  0  0  0  0  0  0  0  0  0  0
    1.3228   -0.1836    2.5429 C   0  0  1  0  0  0  0  0  0  0  0  0
    2.6150   -0.5408    3.2580 C   0  0  2  0  0  0  0  0  0  0  0  0
    3.5057   -1.3105    2.3661 N   0  0  2  0  0  0  0  0  0  0  0  0
    3.4163   -2.8138    2.5483 C   0  0  0  0  0  0  0  0  0  0  0  0
    3.9891   -3.6027    1.3680 C   0  0  0  0  0  0  0  0  0  0  0  0
    3.1650   -3.8468    0.1131 C   0  0  0  0  0  0  0  0  0  0  0  0
    3.4498   -4.9866    1.0552 C   0  0  0  0  0  0  0  0  0  0  0  0
    4.8571   -0.7677    2.1466 C   0  0  0  0  0  0  0  0  0  0  0  0
    5.7881   -0.9489    3.3127 C   0  0  0  0  0  0  0  0  0  0  0  0
    0.7756    3.4857    3.9182 C   0  0  0  0  0  0  0  0  0  0  0  0
   -0.5046    2.6465    4.1116 C   0  0  1  0  0  0  0  0  0  0  0  0
   -5.0964    3.6787    3.2981 H   0  0  0  0  0  0  0  0  0  0  0  0
   -4.2565    2.7690    2.0980 H   0  0  0  0  0  0  0  0  0  0  0  0
   -4.0198    4.5319    2.3273 H   0  0  0  0  0  0  0  0  0  0  0  0
   -2.9870    4.0981    4.6438 H   0  0  0  0  0  0  0  0  0  0  0  0
   -3.3209    2.4567    4.4797 H   0  0  0  0  0  0  0  0  0  0  0  0
   -1.4589    4.0331    2.6757 H   0  0  0  0  0  0  0  0  0  0  0  0
   -2.3274    1.5181    1.9425 H   0  0  0  0  0  0  0  0  0  0  0  0
   -0.6530    2.1430    1.5790 H   0  0  0  0  0  0  0  0  0  0  0  0
   -1.7002    0.9387    4.1027 H   0  0  0  0  0  0  0  0  0  0  0  0
   -0.5713   -0.6744    2.9084 H   0  0  0  0  0  0  0  0  0  0  0  0
   -0.7942   -0.9030    5.2943 H   0  0  0  0  0  0  0  0  0  0  0  0
    1.3412   -1.6182    6.3186 H   0  0  0  0  0  0  0  0  0  0  0  0
    3.3178   -1.6602    5.0279 H   0  0  0  0  0  0  0  0  0  0  0  0
    7.9817    0.2416    4.7605 H   0  0  0  0  0  0  0  0  0  0  0  0
    7.8050    2.0803    6.4025 H   0  0  0  0  0  0  0  0  0  0  0  0
    4.6940    3.6589    7.1018 H   0  0  0  0  0  0  0  0  0  0  0  0
    1.5379    1.4263    5.1961 H   0  0  0  0  0  0  0  0  0  0  0  0
    3.9006    5.5271    2.7564 H   0  0  0  0  0  0  0  0  0  0  0  0
    2.2896    5.6507    3.4194 H   0  0  0  0  0  0  0  0  0  0  0  0
    2.5461    4.9041    1.8534 H   0  0  0  0  0  0  0  0  0  0  0  0
    1.9994    2.9388    1.3357 H   0  0  0  0  0  0  0  0  0  0  0  0
    1.4730    0.8124    0.6202 H   0  0  0  0  0  0  0  0  0  0  0  0
    1.1070   -0.9856    1.8308 H   0  0  0  0  0  0  0  0  0  0  0  0
    3.9129   -3.1777    3.4409 H   0  0  0  0  0  0  0  0  0  0  0  0
    2.3614   -3.0656    2.6396 H   0  0  0  0  0  0  0  0  0  0  0  0
    5.0701   -3.5515    1.2608 H   0  0  0  0  0  0  0  0  0  0  0  0
    2.1631   -3.4216    0.0894 H   0  0  0  0  0  0  0  0  0  0  0  0
    3.7082   -3.8320   -0.8343 H   0  0  0  0  0  0  0  0  0  0  0  0
    4.1624   -5.7273    0.6962 H   0  0  0  0  0  0  0  0  0  0  0  0
    2.6341   -5.3766    1.6514 H   0  0  0  0  0  0  0  0  0  0  0  0
    5.2981   -1.3323    1.3275 H   0  0  0  0  0  0  0  0  0  0  0  0
    4.8545    0.2653    1.7828 H   0  0  0  0  0  0  0  0  0  0  0  0
    6.7314   -0.8810    2.8112 H   0  0  0  0  0  0  0  0  0  0  0  0
    5.7580   -1.9423    3.7661 H   0  0  0  0  0  0  0  0  0  0  0  0
    0.9351    4.0531    4.8352 H   0  0  0  0  0  0  0  0  0  0  0  0
    0.5418    4.2202    3.1582 H   0  0  0  0  0  0  0  0  0  0  0  0
   -0.8172    2.6373    5.1497 H   0  0  0  0  0  0  0  0  0  0  0  0
    3.1047   -1.1764    1.4749 H   0  0  0  0  0  0  0  0  0  0  0  0
  1  2  1  0
  1 36  1  0
  1 37  1  0
  1 38  1  0
  2  3  1  0
  2 39  1  0
  2 40  1  0
  3 35  1  0
  3  4  1  0
  3 41  1  6
  4  5  1  0
  4 42  1  0
  4 43  1  0
  5 35  1  0
  5  6  1  0
  5 44  1  1
  6 25  1  0
  6  7  1  0
  6 45  1  6
  7  8  2  0
  7 46  1  0
  8  9  1  0
  8 47  1  0
  9 26  1  0
  9 10  1  0
  9 48  1  6
 10 19  1  0
 26 10  1  1
 10 11  1  6
 11 17  2  0
 11 12  1  0
 12 33  1  0
 12 13  2  0
 13 14  1  0
 13 49  1  0
 14 15  2  0
 14 50  1  0
 15 16  1  0
 15 17  1  0
 16 51  1  0
 17 18  1  0
 18 19  1  0
 19 20  1  0
 19 52  1  1
 20 21  1  6
 20 23  1  0
 20 34  1  0
 21 22  1  0
 22 53  1  0
 22 54  1  0
 22 55  1  0
 23 24  2  0
 23 56  1  0
 24 25  1  0
 24 57  1  0
 25 26  1  0
 25 58  1  6
 26 27  1  0
 27 28  1  0
 27 32  1  0
 27 73  1  6
 28 29  1  0
 28 59  1  0
 28 60  1  0
 29 31  1  0
 29 30  1  0
 29 61  1  0
 30 31  1  0
 30 62  1  0
 30 63  1  0
 31 64  1  0
 31 65  1  0
 32 33  1  0
 32 66  1  0
 32 67  1  0
 33 68  1  0
 33 69  1  0
 34 35  1  0
 34 70  1  0
 34 71  1  0
 35 72  1  1
M  CHG  1  27   1
M  END
>  <i_m_ct_stereo_status>  (64) 
1

>  <s_m_source_file>  (64) 
/var/tmp/pbs.5076255.sched01/tmpmzpp47sj/0ood7iq68.sdf

>  <i_m_source_file_index>  (64) 
30

>  <i_lp_mmshare_version>  (64) 
48012

>  <i_f3d_flags>  (64) 
1

>  <s_epik_input>  (64) 
W0NAXTEyM1tDQEBdNDVbQ0BASF0xW0NIXT1bQ0hdW0NASF02W0NASF03W0NASF0oW0NAQEhdKFtDSDJdNylbQ0gyXVtDSDNdKVtDSDJdW0NAXShPW0NIM10pKFtDSF09W0NIXVtDQEBIXTQ2KVtDQEBIXTNPYzhjMmMoW2NIXVtjSF1jOFtPSF0pW0NIMl1bQ0gyXU41W0NIMl1bQ0hdOVtDSDJdW0NIMl05

>  <s_epik_cmdline>  (64) 
J2VwaWtfcHl0aG9uJywgJy1waHQnLCAnMi4wJywgJy1waCcsICc3LjAnLCAnLXRuJywgJzgnLCAnLW1hJywgJzIwMCcsICctaW1hZScsICc8aW5maWxlLm1hZT4nLCAnLW9tYWUnLCAnPG91dGZpbGUubWFlPic=

>  <r_lp_tautomer_probability>  (64) 
1

>  <r_epik_Ionization_Penalty>  (64) 
1.40464

>  <r_epik_Ionization_Penalty_Charging>  (64) 
1.37207

>  <r_epik_Ionization_Penalty_Neutral>  (64) 
0.0325711

>  <r_epik_State_Penalty>  (64) 
1.84998

>  <r_epik_Charging_Adjusted_Penalty>  (64) 
3.22205

>  <i_epik_Tot_Q>  (64) 
1

>  <i_epik_Tot_abs_Q>  (64) 
1

>  <s_lp_Force_Field>  (64) 
OPLS3e

>  <r_lp_Energy>  (64) 
94.6225

>  <b_lp_Chiralities_Consistent>  (64) 
1

>  <s_lp_Variant>  (64) 
17:0-2

>  <s_i_glide_gridfile>  (64) 
pfpi4k_grid

>  <i_i_glide_lignum>  (64) 
30

>  <i_i_glide_rotatable_bonds>  (64) 
5

>  <r_i_docking_score>  (64) 
-2.27505

>  <r_i_glide_ligand_efficiency>  (64) 
-0.0650014

>  <r_i_glide_ligand_efficiency_sa>  (64) 
-0.212624

>  <r_i_glide_ligand_efficiency_ln>  (64) 
-0.499424

>  <r_i_glide_gscore>  (64) 
-2.27505

>  <r_i_glide_lipo>  (64) 
-0.904295

>  <r_i_glide_hbond>  (64) 
0

>  <r_i_glide_metal>  (64) 
-0

>  <r_i_glide_rewards>  (64) 
-0.186557

>  <r_i_glide_evdw>  (64) 
-18.6593

>  <r_i_glide_ecoul>  (64) 
-2.86752

>  <r_i_glide_erotb>  (64) 
0.181045

>  <r_i_glide_esite>  (64) 
-0.00214823

>  <r_i_glide_emodel>  (64) 
-21.8044

>  <r_i_glide_energy>  (64) 
-21.5269

>  <r_i_glide_einternal>  (64) 
3.64878

>  <r_i_glide_intrahb_reward>  (64) 
-0

>  <i_i_glide_confnum>  (64) 
1

>  <i_i_glide_posenum>  (64) 
2

>  <r_i_glide_eff_state_penalty>  (64) 
0

>  <ligand_id>  (64) 
17

>  <original_smiles>  (64) 
CCC1CC2C3C=CC4C56c7c8ccc(O)c7OC5C(OC)(C=CC3C46N(CC3CC3)CC8)CC12

>  <smiles>  (64) 
[H]Oc1c([H])c([H])c2c3c1OC1([H])C4(OC([H])([H])[H])C([H])=C([H])C5([H])C([H])(C([H])=C([H])C6([H])C31C56[N+]([H])(C([H])([H])C1([H])C([H])([H])C1([H])[H])C([H])([H])C2([H])[H])C1([H])C([H])([H])C([H])(C([H])([H])C([H])([H])[H])C1([H])C4([H])[H]

$$$$
17:1:2
     RDKit          3D

 73 81  0  0  1  0  0  0  0  0999 V2000
    1.2200   -9.3271    7.9914 C   0  0  0  0  0  0  0  0  0  0  0  0
    0.3983   -8.3671    7.1211 C   0  0  0  0  0  0  0  0  0  0  0  0
    1.2030   -7.1584    6.6364 C   0  0  2  0  0  0  0  0  0  0  0  0
    0.6205   -6.2123    5.5696 C   0  0  0  0  0  0  0  0  0  0  0  0
    1.4034   -7.0133    4.5244 C   0  0  1  0  0  0  0  0  0  0  0  0
    1.6543   -6.5709    3.0461 C   0  0  2  0  0  0  0  0  0  0  0  0
    2.0862   -7.7592    2.1985 C   0  0  0  0  0  0  0  0  0  0  0  0
    3.1825   -7.7834    1.4242 C   0  0  0  0  0  0  0  0  0  0  0  0
    4.1031   -6.6340    1.2745 C   0  0  2  0  0  0  0  0  0  0  0  0
    4.8846   -5.9888    2.4294 C   0  0  2  0  0  0  0  0  0  0  0  0
    6.3533   -5.7409    2.2219 C   0  0  0  0  0  0  0  0  0  0  0  0
    7.0723   -4.9311    1.3109 C   0  0  0  0  0  0  0  0  0  0  0  0
    8.4757   -4.9859    1.3691 C   0  0  0  0  0  0  0  0  0  0  0  0
    9.1147   -5.8297    2.2983 C   0  0  0  0  0  0  0  0  0  0  0  0
    8.3680   -6.6072    3.1938 C   0  0  0  0  0  0  0  0  0  0  0  0
    8.9961   -7.4043    4.1023 O   0  0  0  0  0  0  0  0  0  0  0  0
    6.9664   -6.5532    3.1805 C   0  0  0  0  0  0  0  0  0  0  0  0
    6.1291   -7.2029    4.0284 O   0  0  0  0  0  0  0  0  0  0  0  0
    4.8309   -6.6526    3.8198 C   0  0  1  0  0  0  0  0  0  0  0  0
    4.4097   -5.7554    5.0582 C   0  0  1  0  0  0  0  0  0  0  0  0
    5.6338   -5.2758    5.6588 O   0  0  0  0  0  0  0  0  0  0  0  0
    5.6030   -4.7549    6.9981 C   0  0  0  0  0  0  0  0  0  0  0  0
    3.5124   -4.5358    4.8030 C   0  0  0  0  0  0  0  0  0  0  0  0
    2.6363   -4.3074    3.8184 C   0  0  0  0  0  0  0  0  0  0  0  0
    2.3726   -5.2196    2.6686 C   0  0  1  0  0  0  0  0  0  0  0  0
    3.6469   -5.3146    1.8311 C   0  0  2  0  0  0  0  0  0  0  0  0
    3.8174   -4.1356    0.9248 N   0  0  2  0  0  0  0  0  0  0  0  0
    3.2993   -4.3510   -0.4601 C   0  0  0  0  0  0  0  0  0  0  0  0
    2.9586   -3.0555   -1.1919 C   0  0  0  0  0  0  0  0  0  0  0  0
    2.3648   -3.0991   -2.5918 C   0  0  0  0  0  0  0  0  0  0  0  0
    3.7721   -2.6138   -2.3977 C   0  0  0  0  0  0  0  0  0  0  0  0
    5.0634   -3.3410    1.0129 C   0  0  0  0  0  0  0  0  0  0  0  0
    6.2908   -4.0123    0.3955 C   0  0  0  0  0  0  0  0  0  0  0  0
    3.6884   -6.6578    6.0859 C   0  0  0  0  0  0  0  0  0  0  0  0
    2.3956   -7.3803    5.6696 C   0  0  1  0  0  0  0  0  0  0  0  0
    0.6217  -10.1924    8.2821 H   0  0  0  0  0  0  0  0  0  0  0  0
    1.5755   -8.8435    8.9020 H   0  0  0  0  0  0  0  0  0  0  0  0
    2.0923   -9.7090    7.4595 H   0  0  0  0  0  0  0  0  0  0  0  0
   -0.0175   -8.9348    6.2878 H   0  0  0  0  0  0  0  0  0  0  0  0
   -0.4487   -8.0300    7.7131 H   0  0  0  0  0  0  0  0  0  0  0  0
    1.4844   -6.5535    7.5010 H   0  0  0  0  0  0  0  0  0  0  0  0
   -0.4652   -6.2811    5.4805 H   0  0  0  0  0  0  0  0  0  0  0  0
    0.9697   -5.1847    5.6948 H   0  0  0  0  0  0  0  0  0  0  0  0
    0.8062   -7.9244    4.4189 H   0  0  0  0  0  0  0  0  0  0  0  0
    0.6472   -6.4064    2.6682 H   0  0  0  0  0  0  0  0  0  0  0  0
    1.4493   -8.6356    2.2397 H   0  0  0  0  0  0  0  0  0  0  0  0
    3.4159   -8.6701    0.8511 H   0  0  0  0  0  0  0  0  0  0  0  0
    4.6005   -6.6467    0.3087 H   0  0  0  0  0  0  0  0  0  0  0  0
    9.0724   -4.3639    0.7212 H   0  0  0  0  0  0  0  0  0  0  0  0
   10.1914   -5.8605    2.3463 H   0  0  0  0  0  0  0  0  0  0  0  0
    8.3849   -7.9067    4.6160 H   0  0  0  0  0  0  0  0  0  0  0  0
    4.1789   -7.5241    3.7598 H   0  0  0  0  0  0  0  0  0  0  0  0
    6.5444   -4.2586    7.2272 H   0  0  0  0  0  0  0  0  0  0  0  0
    5.4679   -5.5368    7.7484 H   0  0  0  0  0  0  0  0  0  0  0  0
    4.8169   -4.0186    7.1580 H   0  0  0  0  0  0  0  0  0  0  0  0
    3.5667   -3.7554    5.5408 H   0  0  0  0  0  0  0  0  0  0  0  0
    2.0781   -3.3838    3.8345 H   0  0  0  0  0  0  0  0  0  0  0  0
    1.6486   -4.6793    2.0555 H   0  0  0  0  0  0  0  0  0  0  0  0
    4.0027   -4.9274   -1.0648 H   0  0  0  0  0  0  0  0  0  0  0  0
    2.3726   -4.9261   -0.4031 H   0  0  0  0  0  0  0  0  0  0  0  0
    2.5735   -2.2611   -0.5484 H   0  0  0  0  0  0  0  0  0  0  0  0
    2.2226   -4.0614   -3.0769 H   0  0  0  0  0  0  0  0  0  0  0  0
    1.6274   -2.3464   -2.8570 H   0  0  0  0  0  0  0  0  0  0  0  0
    3.9437   -1.5437   -2.5158 H   0  0  0  0  0  0  0  0  0  0  0  0
    4.5877   -3.2593   -2.7219 H   0  0  0  0  0  0  0  0  0  0  0  0
    4.8929   -2.4215    0.4478 H   0  0  0  0  0  0  0  0  0  0  0  0
    5.2595   -3.0008    2.0346 H   0  0  0  0  0  0  0  0  0  0  0  0
    6.9787   -3.2017    0.1428 H   0  0  0  0  0  0  0  0  0  0  0  0
    6.0845   -4.5122   -0.5529 H   0  0  0  0  0  0  0  0  0  0  0  0
    4.3921   -7.4087    6.4450 H   0  0  0  0  0  0  0  0  0  0  0  0
    3.4527   -6.0625    6.9646 H   0  0  0  0  0  0  0  0  0  0  0  0
    2.5919   -8.4519    5.5833 H   0  0  0  0  0  0  0  0  0  0  0  0
    3.1507   -3.4836    1.3120 H   0  0  0  0  0  0  0  0  0  0  0  0
  1  2  1  0
  1 36  1  0
  1 37  1  0
  1 38  1  0
  2  3  1  0
  2 39  1  0
  2 40  1  0
  3 35  1  0
  3  4  1  0
  3 41  1  1
  4  5  1  0
  4 42  1  0
  4 43  1  0
  5 35  1  0
  5  6  1  0
  5 44  1  6
  6 25  1  0
  6  7  1  0
  6 45  1  6
  7  8  2  0
  7 46  1  0
  8  9  1  0
  8 47  1  0
  9 26  1  0
  9 10  1  0
  9 48  1  6
 10 19  1  0
 26 10  1  1
 10 11  1  6
 11 17  2  0
 11 12  1  0
 12 33  1  0
 12 13  2  0
 13 14  1  0
 13 49  1  0
 14 15  2  0
 14 50  1  0
 15 16  1  0
 15 17  1  0
 16 51  1  0
 17 18  1  0
 18 19  1  0
 19 20  1  0
 19 52  1  6
 20 21  1  1
 20 23  1  0
 20 34  1  0
 21 22  1  0
 22 53  1  0
 22 54  1  0
 22 55  1  0
 23 24  2  0
 23 56  1  0
 24 25  1  0
 24 57  1  0
 25 26  1  0
 25 58  1  6
 26 27  1  0
 27 28  1  0
 27 32  1  0
 27 73  1  1
 28 29  1  0
 28 59  1  0
 28 60  1  0
 29 31  1  0
 29 30  1  0
 29 61  1  0
 30 31  1  0
 30 62  1  0
 30 63  1  0
 31 64  1  0
 31 65  1  0
 32 33  1  0
 32 66  1  0
 32 67  1  0
 33 68  1  0
 33 69  1  0
 34 35  1  0
 34 70  1  0
 34 71  1  0
 35 72  1  6
M  CHG  1  27   1
M  END
>  <i_m_ct_stereo_status>  (65) 
1

>  <s_m_source_file>  (65) 
/var/tmp/pbs.5076255.sched01/tmpmzpp47sj/0ood7iq68.sdf

>  <i_m_source_file_index>  (65) 
30

>  <i_lp_mmshare_version>  (65) 
48012

>  <i_f3d_flags>  (65) 
1

>  <s_epik_input>  (65) 
W0NAXTEyM1tDQEBdNDVbQ0BASF0xW0NIXT1bQ0hdW0NASF02W0NASF03W0NASF0oW0NAQEhdKFtDSDJdNylbQ0gyXVtDSDNdKVtDSDJdW0NAXShPW0NIM10pKFtDSF09W0NIXVtDQEBIXTQ2KVtDQEBIXTNPYzhjMmMoW2NIXVtjSF1jOFtPSF0pW0NIMl1bQ0gyXU41W0NIMl1bQ0hdOVtDSDJdW0NIMl05

>  <s_epik_cmdline>  (65) 
J2VwaWtfcHl0aG9uJywgJy1waHQnLCAnMi4wJywgJy1waCcsICc3LjAnLCAnLXRuJywgJzgnLCAnLW1hJywgJzIwMCcsICctaW1hZScsICc8aW5maWxlLm1hZT4nLCAnLW9tYWUnLCAnPG91dGZpbGUubWFlPic=

>  <r_lp_tautomer_probability>  (65) 
1

>  <r_epik_Ionization_Penalty>  (65) 
1.40464

>  <r_epik_Ionization_Penalty_Charging>  (65) 
1.37207

>  <r_epik_Ionization_Penalty_Neutral>  (65) 
0.0325711

>  <r_epik_State_Penalty>  (65) 
1.84998

>  <r_epik_Charging_Adjusted_Penalty>  (65) 
3.22205

>  <i_epik_Tot_Q>  (65) 
1

>  <i_epik_Tot_abs_Q>  (65) 
1

>  <s_lp_Force_Field>  (65) 
OPLS3e

>  <r_lp_Energy>  (65) 
94.6225

>  <b_lp_Chiralities_Consistent>  (65) 
1

>  <s_lp_Variant>  (65) 
17:0-2

>  <s_i_glide_gridfile>  (65) 
pfpi4k_grid

>  <i_i_glide_lignum>  (65) 
30

>  <i_i_glide_rotatable_bonds>  (65) 
5

>  <r_i_docking_score>  (65) 
-2.0156

>  <r_i_glide_ligand_efficiency>  (65) 
-0.0575886

>  <r_i_glide_ligand_efficiency_sa>  (65) 
-0.188376

>  <r_i_glide_ligand_efficiency_ln>  (65) 
-0.442469

>  <r_i_glide_gscore>  (65) 
-2.0156

>  <r_i_glide_lipo>  (65) 
-0.492494

>  <r_i_glide_hbond>  (65) 
0

>  <r_i_glide_metal>  (65) 
-0

>  <r_i_glide_rewards>  (65) 
-0.186557

>  <r_i_glide_evdw>  (65) 
-20.8719

>  <r_i_glide_ecoul>  (65) 
-3.16

>  <r_i_glide_erotb>  (65) 
0.181045

>  <r_i_glide_esite>  (65) 
0

>  <r_i_glide_emodel>  (65) 
-25.0751

>  <r_i_glide_energy>  (65) 
-24.0319

>  <r_i_glide_einternal>  (65) 
3.38693

>  <r_i_glide_intrahb_reward>  (65) 
-0

>  <i_i_glide_confnum>  (65) 
2

>  <i_i_glide_posenum>  (65) 
10

>  <r_i_glide_eff_state_penalty>  (65) 
0

>  <ligand_id>  (65) 
17

>  <original_smiles>  (65) 
CCC1CC2C3C=CC4C56c7c8ccc(O)c7OC5C(OC)(C=CC3C46N(CC3CC3)CC8)CC12

>  <smiles>  (65) 
[H]Oc1c([H])c([H])c2c3c1OC1([H])C4(OC([H])([H])[H])C([H])=C([H])C5([H])C([H])(C([H])=C([H])C6([H])C31C56[N+]([H])(C([H])([H])C1([H])C([H])([H])C1([H])[H])C([H])([H])C2([H])[H])C1([H])C([H])([H])C([H])(C([H])([H])C([H])([H])[H])C1([H])C4([H])[H]

$$$$
18:1:0
     RDKit          3D

 28 31  0  0  1  0  0  0  0  0999 V2000
    9.4027   -3.6423    0.5531 O   0  0  0  0  0  0  0  0  0  0  0  0
    8.0845   -3.8102    0.2788 C   0  0  0  0  0  0  0  0  0  0  0  0
    7.5679   -3.0386   -0.7715 C   0  0  0  0  0  0  0  0  0  0  0  0
    6.1936   -3.1046   -1.0711 C   0  0  0  0  0  0  0  0  0  0  0  0
    5.3606   -3.9594   -0.3096 C   0  0  0  0  0  0  0  0  0  0  0  0
    5.8808   -4.7706    0.7269 C   0  0  0  0  0  0  0  0  0  0  0  0
    5.0901   -5.6419    1.5072 C   0  0  0  0  0  0  0  0  0  0  0  0
    5.6818   -6.3937    2.5463 C   0  0  0  0  0  0  0  0  0  0  0  0
    7.0662   -6.2664    2.7612 C   0  0  0  0  0  0  0  0  0  0  0  0
    7.8283   -5.4599    2.0100 N   0  0  0  0  0  0  0  0  0  0  0  0
    7.2785   -4.7049    1.0265 C   0  0  0  0  0  0  0  0  0  0  0  0
    3.8791   -3.9572   -0.7102 C   0  0  0  0  0  0  0  0  0  0  0  0
    3.5636   -3.0046   -1.7837 N   0  0  0  0  0  0  0  0  0  0  0  0
    4.5742   -2.9928   -2.7187 C   0  0  0  0  0  0  0  0  0  0  0  0
    5.5994   -2.3261   -2.1660 C   0  0  0  0  0  0  0  0  0  0  0  0
    4.9667   -1.0985   -1.5523 C   0  0  0  0  0  0  0  0  0  0  0  0
    3.5376   -1.6227   -1.2925 C   0  0  0  0  0  0  0  0  0  0  0  0
    8.2432   -2.4247   -1.3431 H   0  0  0  0  0  0  0  0  0  0  0  0
    4.0282   -5.7361    1.3371 H   0  0  0  0  0  0  0  0  0  0  0  0
    5.1080   -7.0597    3.1734 H   0  0  0  0  0  0  0  0  0  0  0  0
    7.5763   -6.8168    3.5515 H   0  0  0  0  0  0  0  0  0  0  0  0
    3.7068   -4.9565   -1.0814 H   0  0  0  0  0  0  0  0  0  0  0  0
    3.2483   -3.8095    0.1655 H   0  0  0  0  0  0  0  0  0  0  0  0
    4.1609   -2.4833   -3.5634 H   0  0  0  0  0  0  0  0  0  0  0  0
    5.4899   -0.7062   -0.6723 H   0  0  0  0  0  0  0  0  0  0  0  0
    4.9227   -0.3076   -2.2977 H   0  0  0  0  0  0  0  0  0  0  0  0
    2.8173   -1.0622   -1.8826 H   0  0  0  0  0  0  0  0  0  0  0  0
    3.2523   -1.5513   -0.2410 H   0  0  0  0  0  0  0  0  0  0  0  0
  1  2  1  0
  2 11  2  0
  2  3  1  0
  3  4  2  0
  3 18  1  0
  4 15  1  0
  4  5  1  0
  5  6  2  0
  5 12  1  0
  6 11  1  0
  6  7  1  0
  7  8  2  0
  7 19  1  0
  8  9  1  0
  8 20  1  0
  9 10  2  0
  9 21  1  0
 10 11  1  0
 12 13  1  0
 12 22  1  0
 12 23  1  0
 13 17  1  0
 13 14  1  0
 14 15  2  0
 14 24  1  0
 15 16  1  0
 16 17  1  0
 16 25  1  0
 16 26  1  0
 17 27  1  0
 17 28  1  0
M  CHG  1   1  -1
M  END
>  <i_m_ct_stereo_status>  (66) 
1

>  <s_m_source_file>  (66) 
/var/tmp/pbs.5076255.sched01/tmpmzpp47sj/0ood7iq68.sdf

>  <i_m_source_file_index>  (66) 
32

>  <i_lp_mmshare_version>  (66) 
48012

>  <i_f3d_flags>  (66) 
0

>  <s_epik_input>  (66) 
W2NIXTFbY0hdW2NIXW5jKGMoW09IXSlbY0hdMiljMWMoYzIzKVtDSDJdTjRbQ0hdPUMzW0NIMl1bQ0gyXTQ=

>  <s_epik_cmdline>  (66) 
J2VwaWtfcHl0aG9uJywgJy1waHQnLCAnMi4wJywgJy1waCcsICc3LjAnLCAnLXRuJywgJzgnLCAnLW1hJywgJzIwMCcsICctaW1hZScsICc8aW5maWxlLm1hZT4nLCAnLW9tYWUnLCAnPG91dGZpbGUubWFlPic=

>  <r_lp_tautomer_probability>  (66) 
1

>  <r_epik_Ionization_Penalty>  (66) 
2.69235

>  <r_epik_Ionization_Penalty_Charging>  (66) 
2.67422

>  <r_epik_Ionization_Penalty_Neutral>  (66) 
0.0181392

>  <r_epik_State_Penalty>  (66) 
2.27349

>  <r_epik_Charging_Adjusted_Penalty>  (66) 
4.9477

>  <i_epik_Tot_Q>  (66) 
-1

>  <i_epik_Tot_abs_Q>  (66) 
1

>  <s_lp_Force_Field>  (66) 
OPLS3e

>  <r_lp_Energy>  (66) 
97.6022

>  <b_lp_Chiralities_Consistent>  (66) 
1

>  <s_lp_Variant>  (66) 
18:0-2

>  <s_i_glide_gridfile>  (66) 
pfpi4k_grid

>  <i_i_glide_lignum>  (66) 
32

>  <i_i_glide_rotatable_bonds>  (66) 
0

>  <r_i_docking_score>  (66) 
-3.82027

>  <r_i_glide_ligand_efficiency>  (66) 
-0.224722

>  <r_i_glide_ligand_efficiency_sa>  (66) 
-0.577823

>  <r_i_glide_ligand_efficiency_ln>  (66) 
-0.996623

>  <r_i_glide_gscore>  (66) 
-3.82027

>  <r_i_glide_lipo>  (66) 
-0.748316

>  <r_i_glide_hbond>  (66) 
-0.121143

>  <r_i_glide_metal>  (66) 
-0

>  <r_i_glide_rewards>  (66) 
-1.88693

>  <r_i_glide_evdw>  (66) 
-19.7989

>  <r_i_glide_ecoul>  (66) 
-0.410669

>  <r_i_glide_erotb>  (66) 
0

>  <r_i_glide_esite>  (66) 
-0.0123318

>  <r_i_glide_emodel>  (66) 
-29.2915

>  <r_i_glide_energy>  (66) 
-20.2096

>  <r_i_glide_einternal>  (66) 
0

>  <r_i_glide_intrahb_reward>  (66) 
-0

>  <i_i_glide_confnum>  (66) 
1

>  <i_i_glide_posenum>  (66) 
3

>  <r_i_glide_eff_state_penalty>  (66) 
0

>  <ligand_id>  (66) 
18

>  <original_smiles>  (66) 
Oc1cc2c(c3cccnc13)CN1C=C2CC1

>  <smiles>  (66) 
[H]C1=C2c3c([H])c([O-])c4nc([H])c([H])c([H])c4c3C([H])([H])N1C([H])([H])C2([H])[H]

$$$$
18:1:1
     RDKit          3D

 28 31  0  0  1  0  0  0  0  0999 V2000
   -2.1958   -1.6615    5.6879 O   0  0  0  0  0  0  0  0  0  0  0  0
   -1.3459   -0.6854    5.2468 C   0  0  0  0  0  0  0  0  0  0  0  0
   -0.4823   -1.0528    4.2076 C   0  0  0  0  0  0  0  0  0  0  0  0
    0.3966   -0.1132    3.6639 C   0  0  0  0  0  0  0  0  0  0  0  0
    0.4398    1.2044    4.1767 C   0  0  0  0  0  0  0  0  0  0  0  0
   -0.4215    1.5748    5.2385 C   0  0  0  0  0  0  0  0  0  0  0  0
   -0.4031    2.8717    5.7964 C   0  0  0  0  0  0  0  0  0  0  0  0
   -1.2663    3.1886    6.8680 C   0  0  0  0  0  0  0  0  0  0  0  0
   -2.1285    2.1865    7.3458 C   0  0  0  0  0  0  0  0  0  0  0  0
   -2.1593    0.9398    6.8259 N   0  0  0  0  0  0  0  0  0  0  0  0
   -1.3340    0.6282    5.7893 C   0  0  0  0  0  0  0  0  0  0  0  0
    1.4522    2.1586    3.5050 C   0  0  0  0  0  0  0  0  0  0  0  0
    2.2849    1.4903    2.4915 N   0  0  0  0  0  0  0  0  0  0  0  0
    1.5174    0.6192    1.7522 C   0  0  0  0  0  0  0  0  0  0  0  0
    1.2914   -0.4439    2.5336 C   0  0  0  0  0  0  0  0  0  0  0  0
    2.6539   -0.7803    3.0937 C   0  0  0  0  0  0  0  0  0  0  0  0
    3.3149    0.6149    3.0621 C   0  0  0  0  0  0  0  0  0  0  0  0
   -0.5321   -2.0459    3.7949 H   0  0  0  0  0  0  0  0  0  0  0  0
    0.2754    3.6345    5.4350 H   0  0  0  0  0  0  0  0  0  0  0  0
   -1.2688    4.1615    7.3301 H   0  0  0  0  0  0  0  0  0  0  0  0
   -2.8106    2.3827    8.1694 H   0  0  0  0  0  0  0  0  0  0  0  0
    0.8877    2.9447    3.0038 H   0  0  0  0  0  0  0  0  0  0  0  0
    2.0805    2.6273    4.2598 H   0  0  0  0  0  0  0  0  0  0  0  0
    2.0913    0.3954    0.8659 H   0  0  0  0  0  0  0  0  0  0  0  0
    2.6255   -1.2652    4.0689 H   0  0  0  0  0  0  0  0  0  0  0  0
    3.1759   -1.4407    2.3985 H   0  0  0  0  0  0  0  0  0  0  0  0
    4.1793    0.6031    2.3964 H   0  0  0  0  0  0  0  0  0  0  0  0
    3.6466    0.9410    4.0483 H   0  0  0  0  0  0  0  0  0  0  0  0
  1  2  1  0
  2 11  2  0
  2  3  1  0
  3  4  2  0
  3 18  1  0
  4 15  1  0
  4  5  1  0
  5  6  2  0
  5 12  1  0
  6 11  1  0
  6  7  1  0
  7  8  2  0
  7 19  1  0
  8  9  1  0
  8 20  1  0
  9 10  2  0
  9 21  1  0
 10 11  1  0
 12 13  1  0
 12 22  1  0
 12 23  1  0
 13 17  1  0
 13 14  1  0
 14 15  2  0
 14 24  1  0
 15 16  1  0
 16 17  1  0
 16 25  1  0
 16 26  1  0
 17 27  1  0
 17 28  1  0
M  CHG  1   1  -1
M  END
>  <i_m_ct_stereo_status>  (67) 
1

>  <s_m_source_file>  (67) 
/var/tmp/pbs.5076255.sched01/tmpmzpp47sj/0ood7iq68.sdf

>  <i_m_source_file_index>  (67) 
32

>  <i_lp_mmshare_version>  (67) 
48012

>  <i_f3d_flags>  (67) 
0

>  <s_epik_input>  (67) 
W2NIXTFbY0hdW2NIXW5jKGMoW09IXSlbY0hdMiljMWMoYzIzKVtDSDJdTjRbQ0hdPUMzW0NIMl1bQ0gyXTQ=

>  <s_epik_cmdline>  (67) 
J2VwaWtfcHl0aG9uJywgJy1waHQnLCAnMi4wJywgJy1waCcsICc3LjAnLCAnLXRuJywgJzgnLCAnLW1hJywgJzIwMCcsICctaW1hZScsICc8aW5maWxlLm1hZT4nLCAnLW9tYWUnLCAnPG91dGZpbGUubWFlPic=

>  <r_lp_tautomer_probability>  (67) 
1

>  <r_epik_Ionization_Penalty>  (67) 
2.69235

>  <r_epik_Ionization_Penalty_Charging>  (67) 
2.67422

>  <r_epik_Ionization_Penalty_Neutral>  (67) 
0.0181392

>  <r_epik_State_Penalty>  (67) 
2.27349

>  <r_epik_Charging_Adjusted_Penalty>  (67) 
4.9477

>  <i_epik_Tot_Q>  (67) 
-1

>  <i_epik_Tot_abs_Q>  (67) 
1

>  <s_lp_Force_Field>  (67) 
OPLS3e

>  <r_lp_Energy>  (67) 
97.6022

>  <b_lp_Chiralities_Consistent>  (67) 
1

>  <s_lp_Variant>  (67) 
18:0-2

>  <s_i_glide_gridfile>  (67) 
pfpi4k_grid

>  <i_i_glide_lignum>  (67) 
32

>  <i_i_glide_rotatable_bonds>  (67) 
0

>  <r_i_docking_score>  (67) 
-3.73693

>  <r_i_glide_ligand_efficiency>  (67) 
-0.219819

>  <r_i_glide_ligand_efficiency_sa>  (67) 
-0.565218

>  <r_i_glide_ligand_efficiency_ln>  (67) 
-0.974882

>  <r_i_glide_gscore>  (67) 
-3.73693

>  <r_i_glide_lipo>  (67) 
-0.0341691

>  <r_i_glide_hbond>  (67) 
-0.166207

>  <r_i_glide_metal>  (67) 
-0

>  <r_i_glide_rewards>  (67) 
-1.95095

>  <r_i_glide_evdw>  (67) 
-15.5314

>  <r_i_glide_ecoul>  (67) 
-5.39355

>  <r_i_glide_erotb>  (67) 
0

>  <r_i_glide_esite>  (67) 
0

>  <r_i_glide_emodel>  (67) 
-29.8219

>  <r_i_glide_energy>  (67) 
-20.925

>  <r_i_glide_einternal>  (67) 
0

>  <r_i_glide_intrahb_reward>  (67) 
-0

>  <i_i_glide_confnum>  (67) 
1

>  <i_i_glide_posenum>  (67) 
1

>  <r_i_glide_eff_state_penalty>  (67) 
0

>  <ligand_id>  (67) 
18

>  <original_smiles>  (67) 
Oc1cc2c(c3cccnc13)CN1C=C2CC1

>  <smiles>  (67) 
[H]C1=C2c3c([H])c([O-])c4nc([H])c([H])c([H])c4c3C([H])([H])N1C([H])([H])C2([H])[H]

$$$$
18:1:2
     RDKit          3D

 28 31  0  0  1  0  0  0  0  0999 V2000
    8.5087   -3.6262   -0.0852 O   0  0  0  0  0  0  0  0  0  0  0  0
    7.1521   -3.5242   -0.3349 C   0  0  0  0  0  0  0  0  0  0  0  0
    6.7493   -3.0019   -1.5863 C   0  0  0  0  0  0  0  0  0  0  0  0
    5.3729   -2.9164   -1.9046 C   0  0  0  0  0  0  0  0  0  0  0  0
    4.4021   -3.3499   -0.9749 C   0  0  0  0  0  0  0  0  0  0  0  0
    4.7833   -3.8789    0.2807 C   0  0  0  0  0  0  0  0  0  0  0  0
    3.8475   -4.3151    1.2261 C   0  0  0  0  0  0  0  0  0  0  0  0
    4.2904   -4.8214    2.4611 C   0  0  0  0  0  0  0  0  0  0  0  0
    5.6745   -4.8934    2.6817 C   0  0  0  0  0  0  0  0  0  0  0  0
    6.5799   -4.5102    1.7761 N   0  0  0  0  0  0  0  0  0  0  0  0
    6.1834   -3.9784    0.5934 C   0  0  0  0  0  0  0  0  0  0  0  0
    2.9263   -3.2017   -1.4274 C   0  0  0  0  0  0  0  0  0  0  0  0
    2.7754   -2.5742   -2.7490 N   0  0  0  0  0  0  0  0  0  0  0  0
    3.7667   -3.0300   -3.5933 C   0  0  0  0  0  0  0  0  0  0  0  0
    4.9017   -2.4257   -3.2169 C   0  0  0  0  0  0  0  0  0  0  0  0
    4.5101   -0.9829   -3.0176 C   0  0  0  0  0  0  0  0  0  0  0  0
    3.0122   -1.1286   -2.6903 C   0  0  0  0  0  0  0  0  0  0  0  0
    7.5022   -2.7110   -2.3166 H   0  0  0  0  0  0  0  0  0  0  0  0
    2.7866   -4.2613    1.0392 H   0  0  0  0  0  0  0  0  0  0  0  0
    3.6126   -5.1489    3.2295 H   0  0  0  0  0  0  0  0  0  0  0  0
    6.0786   -5.2602    3.6229 H   0  0  0  0  0  0  0  0  0  0  0  0
    2.5018   -4.1938   -1.5154 H   0  0  0  0  0  0  0  0  0  0  0  0
    2.3486   -2.6575   -0.6808 H   0  0  0  0  0  0  0  0  0  0  0  0
    3.4329   -2.7395   -4.5658 H   0  0  0  0  0  0  0  0  0  0  0  0
    5.0912   -0.4329   -2.2833 H   0  0  0  0  0  0  0  0  0  0  0  0
    4.5693   -0.4640   -3.9651 H   0  0  0  0  0  0  0  0  0  0  0  0
    2.4290   -0.6086   -3.4420 H   0  0  0  0  0  0  0  0  0  0  0  0
    2.7654   -0.7034   -1.7169 H   0  0  0  0  0  0  0  0  0  0  0  0
  1  2  1  0
  2 11  2  0
  2  3  1  0
  3  4  2  0
  3 18  1  0
  4 15  1  0
  4  5  1  0
  5  6  2  0
  5 12  1  0
  6 11  1  0
  6  7  1  0
  7  8  2  0
  7 19  1  0
  8  9  1  0
  8 20  1  0
  9 10  2  0
  9 21  1  0
 10 11  1  0
 12 13  1  0
 12 22  1  0
 12 23  1  0
 13 17  1  0
 13 14  1  0
 14 15  2  0
 14 24  1  0
 15 16  1  0
 16 17  1  0
 16 25  1  0
 16 26  1  0
 17 27  1  0
 17 28  1  0
M  CHG  1   1  -1
M  END
>  <i_m_ct_stereo_status>  (68) 
1

>  <s_m_source_file>  (68) 
/var/tmp/pbs.5076255.sched01/tmpmzpp47sj/0ood7iq68.sdf

>  <i_m_source_file_index>  (68) 
32

>  <i_lp_mmshare_version>  (68) 
48012

>  <i_f3d_flags>  (68) 
0

>  <s_epik_input>  (68) 
W2NIXTFbY0hdW2NIXW5jKGMoW09IXSlbY0hdMiljMWMoYzIzKVtDSDJdTjRbQ0hdPUMzW0NIMl1bQ0gyXTQ=

>  <s_epik_cmdline>  (68) 
J2VwaWtfcHl0aG9uJywgJy1waHQnLCAnMi4wJywgJy1waCcsICc3LjAnLCAnLXRuJywgJzgnLCAnLW1hJywgJzIwMCcsICctaW1hZScsICc8aW5maWxlLm1hZT4nLCAnLW9tYWUnLCAnPG91dGZpbGUubWFlPic=

>  <r_lp_tautomer_probability>  (68) 
1

>  <r_epik_Ionization_Penalty>  (68) 
2.69235

>  <r_epik_Ionization_Penalty_Charging>  (68) 
2.67422

>  <r_epik_Ionization_Penalty_Neutral>  (68) 
0.0181392

>  <r_epik_State_Penalty>  (68) 
2.27349

>  <r_epik_Charging_Adjusted_Penalty>  (68) 
4.9477

>  <i_epik_Tot_Q>  (68) 
-1

>  <i_epik_Tot_abs_Q>  (68) 
1

>  <s_lp_Force_Field>  (68) 
OPLS3e

>  <r_lp_Energy>  (68) 
97.6022

>  <b_lp_Chiralities_Consistent>  (68) 
1

>  <s_lp_Variant>  (68) 
18:0-2

>  <s_i_glide_gridfile>  (68) 
pfpi4k_grid

>  <i_i_glide_lignum>  (68) 
32

>  <i_i_glide_rotatable_bonds>  (68) 
0

>  <r_i_docking_score>  (68) 
-3.72759

>  <r_i_glide_ligand_efficiency>  (68) 
-0.21927

>  <r_i_glide_ligand_efficiency_sa>  (68) 
-0.563805

>  <r_i_glide_ligand_efficiency_ln>  (68) 
-0.972446

>  <r_i_glide_gscore>  (68) 
-3.72759

>  <r_i_glide_lipo>  (68) 
-0.769295

>  <r_i_glide_hbond>  (68) 
0

>  <r_i_glide_metal>  (68) 
-0

>  <r_i_glide_rewards>  (68) 
-1.88693

>  <r_i_glide_evdw>  (68) 
-20.2581

>  <r_i_glide_ecoul>  (68) 
-0.228078

>  <r_i_glide_erotb>  (68) 
0

>  <r_i_glide_esite>  (68) 
-0.0242512

>  <r_i_glide_emodel>  (68) 
-29.3774

>  <r_i_glide_energy>  (68) 
-20.4861

>  <r_i_glide_einternal>  (68) 
0

>  <r_i_glide_intrahb_reward>  (68) 
-0

>  <i_i_glide_confnum>  (68) 
1

>  <i_i_glide_posenum>  (68) 
11

>  <r_i_glide_eff_state_penalty>  (68) 
0

>  <ligand_id>  (68) 
18

>  <original_smiles>  (68) 
Oc1cc2c(c3cccnc13)CN1C=C2CC1

>  <smiles>  (68) 
[H]C1=C2c3c([H])c([O-])c4nc([H])c([H])c([H])c4c3C([H])([H])N1C([H])([H])C2([H])[H]

$$$$
20:0:0
     RDKit          3D

 32 33  0  0  1  0  0  0  0  0999 V2000
   -6.2777   -8.9721   -5.7566 C   0  0  0  0  0  0  0  0  0  0  0  0
   -6.6296   -7.4729   -5.6439 C   0  0  0  0  0  0  0  0  0  0  0  0
   -7.3971   -7.0393   -6.7991 N   0  0  0  0  0  0  0  0  0  0  0  0
   -7.5104   -7.7525   -7.9723 N   0  0  0  0  0  0  0  0  0  0  0  0
   -8.2758   -6.9921   -8.7719 C   0  0  0  0  0  0  0  0  0  0  0  0
   -8.6342   -7.5240  -10.1282 C   0  0  0  0  0  0  0  0  0  0  0  0
   -9.7414   -8.5968  -10.0513 C   0  0  0  0  0  0  0  0  0  0  0  0
  -10.9592   -8.1002   -9.3740 N   0  0  0  0  0  0  0  0  0  0  0  0
  -11.6308   -6.9843  -10.0768 C   0  0  0  0  0  0  0  0  0  0  0  0
   -8.6427   -5.7896   -8.0971 C   0  0  0  0  0  0  0  0  0  0  0  0
   -9.3935   -4.7018   -8.3179 O   0  0  0  0  0  0  0  0  0  0  0  0
   -9.2322   -3.9766   -7.1103 N   0  0  0  0  0  0  0  0  0  0  0  0
   -8.4433   -4.6763   -6.2614 C   0  0  0  0  0  0  0  0  0  0  0  0
   -8.1401   -4.1031   -4.9162 C   0  0  0  0  0  0  0  0  0  0  0  0
   -8.0751   -5.8806   -6.9193 C   0  0  0  0  0  0  0  0  0  0  0  0
   -5.6601   -9.3422   -4.9348 H   0  0  0  0  0  0  0  0  0  0  0  0
   -5.7221   -9.1760   -6.6735 H   0  0  0  0  0  0  0  0  0  0  0  0
   -7.1870   -9.5760   -5.7995 H   0  0  0  0  0  0  0  0  0  0  0  0
   -7.1931   -7.2810   -4.7288 H   0  0  0  0  0  0  0  0  0  0  0  0
   -5.7166   -6.8825   -5.5889 H   0  0  0  0  0  0  0  0  0  0  0  0
   -8.9007   -6.7046  -10.8071 H   0  0  0  0  0  0  0  0  0  0  0  0
   -7.7412   -7.9821  -10.5576 H   0  0  0  0  0  0  0  0  0  0  0  0
   -9.9823   -8.9368  -11.0564 H   0  0  0  0  0  0  0  0  0  0  0  0
   -9.3793   -9.4749   -9.5188 H   0  0  0  0  0  0  0  0  0  0  0  0
  -11.6166   -8.8642   -9.2853 H   0  0  0  0  0  0  0  0  0  0  0  0
  -12.5120   -6.6645   -9.5212 H   0  0  0  0  0  0  0  0  0  0  0  0
  -11.9299   -7.2869  -11.0832 H   0  0  0  0  0  0  0  0  0  0  0  0
  -10.9799   -6.1135  -10.1681 H   0  0  0  0  0  0  0  0  0  0  0  0
   -7.0706   -3.9442   -4.7625 H   0  0  0  0  0  0  0  0  0  0  0  0
   -8.5274   -4.7158   -4.1023 H   0  0  0  0  0  0  0  0  0  0  0  0
   -8.6263   -3.1359   -4.8293 H   0  0  0  0  0  0  0  0  0  0  0  0
  -10.6964   -7.7940   -8.4449 H   0  0  0  0  0  0  0  0  0  0  0  0
  1  2  1  0
  1 16  1  0
  1 17  1  0
  1 18  1  0
  2  3  1  0
  2 19  1  0
  2 20  1  0
  3 15  1  0
  3  4  1  0
  4  5  2  0
  5  6  1  0
  5 10  1  0
  6  7  1  0
  6 21  1  0
  6 22  1  0
  7  8  1  0
  7 23  1  0
  7 24  1  0
  8  9  1  0
  8 25  1  0
  8 32  1  0
  9 26  1  0
  9 27  1  0
  9 28  1  0
 10 15  2  0
 10 11  1  0
 11 12  1  0
 12 13  2  0
 13 14  1  0
 13 15  1  0
 14 29  1  0
 14 30  1  0
 14 31  1  0
M  CHG  1   8   1
M  END
>  <i_m_ct_stereo_status>  (69) 
1

>  <s_m_source_file>  (69) 
/var/tmp/pbs.5076255.sched01/tmpmzpp47sj/0ood7iq68.sdf

>  <i_m_source_file_index>  (69) 
34

>  <i_lp_mmshare_version>  (69) 
48012

>  <i_f3d_flags>  (69) 
0

>  <s_epik_input>  (69) 
bzFuYyhbQ0gzXSljKGMxMiluKFtDSDJdW0NIM10pbmMyW0NIMl1bQ0gyXVtOSF1bQ0gzXQ==

>  <s_epik_cmdline>  (69) 
J2VwaWtfcHl0aG9uJywgJy1waHQnLCAnMi4wJywgJy1waCcsICc3LjAnLCAnLXRuJywgJzgnLCAnLW1hJywgJzIwMCcsICctaW1hZScsICc8aW5maWxlLm1hZT4nLCAnLW9tYWUnLCAnPG91dGZpbGUubWFlPic=

>  <r_epik_Ionization_Penalty>  (69) 
0.000669835

>  <r_epik_Ionization_Penalty_Charging>  (69) 
0.000669833

>  <r_epik_Ionization_Penalty_Neutral>  (69) 
1.93291e-09

>  <r_epik_State_Penalty>  (69) 
0.000425017

>  <r_epik_Charging_Adjusted_Penalty>  (69) 
0.00109485

>  <i_epik_Tot_Q>  (69) 
1

>  <i_epik_Tot_abs_Q>  (69) 
1

>  <s_lp_Force_Field>  (69) 
OPLS3e

>  <r_lp_Energy>  (69) 
8.22714

>  <b_lp_Chiralities_Consistent>  (69) 
1

>  <s_lp_Variant>  (69) 
20:0-1

>  <s_i_glide_gridfile>  (69) 
pfpi4k_grid

>  <i_i_glide_lignum>  (69) 
34

>  <i_i_glide_rotatable_bonds>  (69) 
4

>  <r_i_docking_score>  (69) 
-4.9695

>  <r_i_glide_ligand_efficiency>  (69) 
-0.3313

>  <r_i_glide_ligand_efficiency_sa>  (69) 
-0.817056

>  <r_i_glide_ligand_efficiency_ln>  (69) 
-1.34019

>  <r_i_glide_gscore>  (69) 
-4.9695

>  <r_i_glide_lipo>  (69) 
-1.84839

>  <r_i_glide_hbond>  (69) 
0

>  <r_i_glide_metal>  (69) 
-0

>  <r_i_glide_rewards>  (69) 
-2.38743

>  <r_i_glide_evdw>  (69) 
-20.4333

>  <r_i_glide_ecoul>  (69) 
-3.02187

>  <r_i_glide_erotb>  (69) 
0.757108

>  <r_i_glide_esite>  (69) 
-0.0158476

>  <r_i_glide_emodel>  (69) 
-32.1063

>  <r_i_glide_energy>  (69) 
-23.4552

>  <r_i_glide_einternal>  (69) 
5.53122

>  <r_i_glide_intrahb_reward>  (69) 
-0

>  <i_i_glide_confnum>  (69) 
5

>  <i_i_glide_posenum>  (69) 
7

>  <r_i_glide_eff_state_penalty>  (69) 
0

>  <ligand_id>  (69) 
20

>  <original_smiles>  (69) 
CCn1nc(CCNC)c2onc(C)c21

>  <smiles>  (69) 
[H]C([H])([H])c1noc2c(C([H])([H])C([H])([H])[N+]([H])([H])C([H])([H])[H])nn(C([H])([H])C([H])([H])[H])c12

$$$$
20:0:1
     RDKit          3D

 32 33  0  0  1  0  0  0  0  0999 V2000
    6.7993   -6.6289    1.3895 C   0  0  0  0  0  0  0  0  0  0  0  0
    5.4653   -7.4056    1.3113 C   0  0  0  0  0  0  0  0  0  0  0  0
    4.3675   -6.4996    1.0245 N   0  0  0  0  0  0  0  0  0  0  0  0
    4.4993   -5.2822    0.3951 N   0  0  0  0  0  0  0  0  0  0  0  0
    3.2472   -4.7874    0.3051 C   0  0  0  0  0  0  0  0  0  0  0  0
    3.0598   -3.4091   -0.2624 C   0  0  0  0  0  0  0  0  0  0  0  0
    2.8352   -3.4044   -1.7875 C   0  0  0  0  0  0  0  0  0  0  0  0
    2.6219   -2.0460   -2.3158 N   0  0  0  0  0  0  0  0  0  0  0  0
    3.8264   -1.2011   -2.3530 C   0  0  0  0  0  0  0  0  0  0  0  0
    2.3294   -5.7349    0.8306 C   0  0  0  0  0  0  0  0  0  0  0  0
    1.0177   -5.8552    0.9782 O   0  0  0  0  0  0  0  0  0  0  0  0
    0.8973   -7.1331    1.5927 N   0  0  0  0  0  0  0  0  0  0  0  0
    2.1255   -7.6768    1.7546 C   0  0  0  0  0  0  0  0  0  0  0  0
    2.2369   -9.0537    2.3504 C   0  0  0  0  0  0  0  0  0  0  0  0
    3.0592   -6.7353    1.2548 C   0  0  0  0  0  0  0  0  0  0  0  0
    7.6581   -7.2634    1.6131 H   0  0  0  0  0  0  0  0  0  0  0  0
    6.7397   -5.8521    2.1531 H   0  0  0  0  0  0  0  0  0  0  0  0
    7.0141   -6.1166    0.4500 H   0  0  0  0  0  0  0  0  0  0  0  0
    5.5084   -8.1577    0.5245 H   0  0  0  0  0  0  0  0  0  0  0  0
    5.2790   -7.9336    2.2447 H   0  0  0  0  0  0  0  0  0  0  0  0
    2.2572   -2.8807    0.2536 H   0  0  0  0  0  0  0  0  0  0  0  0
    3.9768   -2.8718   -0.0378 H   0  0  0  0  0  0  0  0  0  0  0  0
    3.6780   -3.8572   -2.3188 H   0  0  0  0  0  0  0  0  0  0  0  0
    1.9504   -3.9996   -2.0104 H   0  0  0  0  0  0  0  0  0  0  0  0
    2.2515   -2.1210   -3.2624 H   0  0  0  0  0  0  0  0  0  0  0  0
    3.6005   -0.2111   -2.7597 H   0  0  0  0  0  0  0  0  0  0  0  0
    4.6140   -1.6508   -2.9707 H   0  0  0  0  0  0  0  0  0  0  0  0
    4.2467   -1.0359   -1.3546 H   0  0  0  0  0  0  0  0  0  0  0  0
    2.8379   -9.0404    3.2596 H   0  0  0  0  0  0  0  0  0  0  0  0
    2.6569   -9.7687    1.6397 H   0  0  0  0  0  0  0  0  0  0  0  0
    1.2477   -9.4247    2.6253 H   0  0  0  0  0  0  0  0  0  0  0  0
    1.9102   -1.5843   -1.7261 H   0  0  0  0  0  0  0  0  0  0  0  0
  1  2  1  0
  1 16  1  0
  1 17  1  0
  1 18  1  0
  2  3  1  0
  2 19  1  0
  2 20  1  0
  3 15  1  0
  3  4  1  0
  4  5  2  0
  5  6  1  0
  5 10  1  0
  6  7  1  0
  6 21  1  0
  6 22  1  0
  7  8  1  0
  7 23  1  0
  7 24  1  0
  8  9  1  0
  8 25  1  0
  8 32  1  0
  9 26  1  0
  9 27  1  0
  9 28  1  0
 10 15  2  0
 10 11  1  0
 11 12  1  0
 12 13  2  0
 13 14  1  0
 13 15  1  0
 14 29  1  0
 14 30  1  0
 14 31  1  0
M  CHG  1   8   1
M  END
>  <i_m_ct_stereo_status>  (70) 
1

>  <s_m_source_file>  (70) 
/var/tmp/pbs.5076255.sched01/tmpmzpp47sj/0ood7iq68.sdf

>  <i_m_source_file_index>  (70) 
34

>  <i_lp_mmshare_version>  (70) 
48012

>  <i_f3d_flags>  (70) 
0

>  <s_epik_input>  (70) 
bzFuYyhbQ0gzXSljKGMxMiluKFtDSDJdW0NIM10pbmMyW0NIMl1bQ0gyXVtOSF1bQ0gzXQ==

>  <s_epik_cmdline>  (70) 
J2VwaWtfcHl0aG9uJywgJy1waHQnLCAnMi4wJywgJy1waCcsICc3LjAnLCAnLXRuJywgJzgnLCAnLW1hJywgJzIwMCcsICctaW1hZScsICc8aW5maWxlLm1hZT4nLCAnLW9tYWUnLCAnPG91dGZpbGUubWFlPic=

>  <r_epik_Ionization_Penalty>  (70) 
0.000669835

>  <r_epik_Ionization_Penalty_Charging>  (70) 
0.000669833

>  <r_epik_Ionization_Penalty_Neutral>  (70) 
1.93291e-09

>  <r_epik_State_Penalty>  (70) 
0.000425017

>  <r_epik_Charging_Adjusted_Penalty>  (70) 
0.00109485

>  <i_epik_Tot_Q>  (70) 
1

>  <i_epik_Tot_abs_Q>  (70) 
1

>  <s_lp_Force_Field>  (70) 
OPLS3e

>  <r_lp_Energy>  (70) 
8.22714

>  <b_lp_Chiralities_Consistent>  (70) 
1

>  <s_lp_Variant>  (70) 
20:0-1

>  <s_i_glide_gridfile>  (70) 
pfpi4k_grid

>  <i_i_glide_lignum>  (70) 
34

>  <i_i_glide_rotatable_bonds>  (70) 
4

>  <r_i_docking_score>  (70) 
-4.30213

>  <r_i_glide_ligand_efficiency>  (70) 
-0.286808

>  <r_i_glide_ligand_efficiency_sa>  (70) 
-0.70733

>  <r_i_glide_ligand_efficiency_ln>  (70) 
-1.16021

>  <r_i_glide_gscore>  (70) 
-4.30213

>  <r_i_glide_lipo>  (70) 
-0.377367

>  <r_i_glide_hbond>  (70) 
-0.2

>  <r_i_glide_metal>  (70) 
-0

>  <r_i_glide_rewards>  (70) 
-2.12012

>  <r_i_glide_evdw>  (70) 
-15.895

>  <r_i_glide_ecoul>  (70) 
-8.89036

>  <r_i_glide_erotb>  (70) 
0.757108

>  <r_i_glide_esite>  (70) 
-0.233438

>  <r_i_glide_emodel>  (70) 
-33.208

>  <r_i_glide_energy>  (70) 
-24.7854

>  <r_i_glide_einternal>  (70) 
2.40445

>  <r_i_glide_intrahb_reward>  (70) 
-0

>  <i_i_glide_confnum>  (70) 
3

>  <i_i_glide_posenum>  (70) 
2

>  <r_i_glide_eff_state_penalty>  (70) 
0

>  <ligand_id>  (70) 
20

>  <original_smiles>  (70) 
CCn1nc(CCNC)c2onc(C)c21

>  <smiles>  (70) 
[H]C([H])([H])c1noc2c(C([H])([H])C([H])([H])[N+]([H])([H])C([H])([H])[H])nn(C([H])([H])C([H])([H])[H])c12

$$$$
20:0:2
     RDKit          3D

 32 33  0  0  1  0  0  0  0  0999 V2000
    6.5321   -6.5940    2.9484 C   0  0  0  0  0  0  0  0  0  0  0  0
    6.0069   -7.2169    1.6487 C   0  0  0  0  0  0  0  0  0  0  0  0
    5.0589   -6.3439    0.9849 N   0  0  0  0  0  0  0  0  0  0  0  0
    5.4136   -5.3028    0.1560 N   0  0  0  0  0  0  0  0  0  0  0  0
    4.2429   -4.7511   -0.2191 C   0  0  0  0  0  0  0  0  0  0  0  0
    4.2687   -3.6109   -1.1893 C   0  0  0  0  0  0  0  0  0  0  0  0
    2.9662   -2.7962   -1.2217 C   0  0  0  0  0  0  0  0  0  0  0  0
    3.0247   -1.6976   -2.2108 N   0  0  0  0  0  0  0  0  0  0  0  0
    2.9289   -2.1491   -3.6210 C   0  0  0  0  0  0  0  0  0  0  0  0
    3.1557   -5.4501    0.3879 C   0  0  0  0  0  0  0  0  0  0  0  0
    1.8210   -5.4279    0.3796 O   0  0  0  0  0  0  0  0  0  0  0  0
    1.4946   -6.4896    1.2674 N   0  0  0  0  0  0  0  0  0  0  0  0
    2.6325   -7.0864    1.6959 C   0  0  0  0  0  0  0  0  0  0  0  0
    2.5514   -8.2497    2.6402 C   0  0  0  0  0  0  0  0  0  0  0  0
    3.7225   -6.3946    1.0957 C   0  0  0  0  0  0  0  0  0  0  0  0
    7.2935   -7.2267    3.4083 H   0  0  0  0  0  0  0  0  0  0  0  0
    5.7266   -6.4510    3.6693 H   0  0  0  0  0  0  0  0  0  0  0  0
    6.9913   -5.6218    2.7612 H   0  0  0  0  0  0  0  0  0  0  0  0
    6.8564   -7.3476    0.9775 H   0  0  0  0  0  0  0  0  0  0  0  0
    5.5801   -8.2084    1.8085 H   0  0  0  0  0  0  0  0  0  0  0  0
    5.0964   -2.9569   -0.9203 H   0  0  0  0  0  0  0  0  0  0  0  0
    4.5023   -4.0287   -2.1690 H   0  0  0  0  0  0  0  0  0  0  0  0
    2.1097   -3.4348   -1.4413 H   0  0  0  0  0  0  0  0  0  0  0  0
    2.7937   -2.3551   -0.2380 H   0  0  0  0  0  0  0  0  0  0  0  0
    2.2168   -1.1182   -1.9964 H   0  0  0  0  0  0  0  0  0  0  0  0
    2.9409   -1.2913   -4.2979 H   0  0  0  0  0  0  0  0  0  0  0  0
    2.0076   -2.7135   -3.7922 H   0  0  0  0  0  0  0  0  0  0  0  0
    3.7707   -2.7894   -3.8935 H   0  0  0  0  0  0  0  0  0  0  0  0
    3.0596   -8.0446    3.5830 H   0  0  0  0  0  0  0  0  0  0  0  0
    2.9699   -9.1598    2.2089 H   0  0  0  0  0  0  0  0  0  0  0  0
    1.5128   -8.4701    2.8868 H   0  0  0  0  0  0  0  0  0  0  0  0
    3.8648   -1.1524   -2.0708 H   0  0  0  0  0  0  0  0  0  0  0  0
  1  2  1  0
  1 16  1  0
  1 17  1  0
  1 18  1  0
  2  3  1  0
  2 19  1  0
  2 20  1  0
  3 15  1  0
  3  4  1  0
  4  5  2  0
  5  6  1  0
  5 10  1  0
  6  7  1  0
  6 21  1  0
  6 22  1  0
  7  8  1  0
  7 23  1  0
  7 24  1  0
  8  9  1  0
  8 25  1  0
  8 32  1  0
  9 26  1  0
  9 27  1  0
  9 28  1  0
 10 15  2  0
 10 11  1  0
 11 12  1  0
 12 13  2  0
 13 14  1  0
 13 15  1  0
 14 29  1  0
 14 30  1  0
 14 31  1  0
M  CHG  1   8   1
M  END
>  <i_m_ct_stereo_status>  (71) 
1

>  <s_m_source_file>  (71) 
/var/tmp/pbs.5076255.sched01/tmpmzpp47sj/0ood7iq68.sdf

>  <i_m_source_file_index>  (71) 
34

>  <i_lp_mmshare_version>  (71) 
48012

>  <i_f3d_flags>  (71) 
0

>  <s_epik_input>  (71) 
bzFuYyhbQ0gzXSljKGMxMiluKFtDSDJdW0NIM10pbmMyW0NIMl1bQ0gyXVtOSF1bQ0gzXQ==

>  <s_epik_cmdline>  (71) 
J2VwaWtfcHl0aG9uJywgJy1waHQnLCAnMi4wJywgJy1waCcsICc3LjAnLCAnLXRuJywgJzgnLCAnLW1hJywgJzIwMCcsICctaW1hZScsICc8aW5maWxlLm1hZT4nLCAnLW9tYWUnLCAnPG91dGZpbGUubWFlPic=

>  <r_epik_Ionization_Penalty>  (71) 
0.000669835

>  <r_epik_Ionization_Penalty_Charging>  (71) 
0.000669833

>  <r_epik_Ionization_Penalty_Neutral>  (71) 
1.93291e-09

>  <r_epik_State_Penalty>  (71) 
0.000425017

>  <r_epik_Charging_Adjusted_Penalty>  (71) 
0.00109485

>  <i_epik_Tot_Q>  (71) 
1

>  <i_epik_Tot_abs_Q>  (71) 
1

>  <s_lp_Force_Field>  (71) 
OPLS3e

>  <r_lp_Energy>  (71) 
8.22714

>  <b_lp_Chiralities_Consistent>  (71) 
1

>  <s_lp_Variant>  (71) 
20:0-1

>  <s_i_glide_gridfile>  (71) 
pfpi4k_grid

>  <i_i_glide_lignum>  (71) 
34

>  <i_i_glide_rotatable_bonds>  (71) 
4

>  <r_i_docking_score>  (71) 
-4.01536

>  <r_i_glide_ligand_efficiency>  (71) 
-0.267691

>  <r_i_glide_ligand_efficiency_sa>  (71) 
-0.660182

>  <r_i_glide_ligand_efficiency_ln>  (71) 
-1.08288

>  <r_i_glide_gscore>  (71) 
-4.01536

>  <r_i_glide_lipo>  (71) 
-0.409502

>  <r_i_glide_hbond>  (71) 
-0.172554

>  <r_i_glide_metal>  (71) 
-0

>  <r_i_glide_rewards>  (71) 
-2.13723

>  <r_i_glide_evdw>  (71) 
-16.2813

>  <r_i_glide_ecoul>  (71) 
-6.67982

>  <r_i_glide_erotb>  (71) 
0.757108

>  <r_i_glide_esite>  (71) 
-0.237144

>  <r_i_glide_emodel>  (71) 
-30.8311

>  <r_i_glide_energy>  (71) 
-22.9612

>  <r_i_glide_einternal>  (71) 
3.11242

>  <r_i_glide_intrahb_reward>  (71) 
-0

>  <i_i_glide_confnum>  (71) 
3

>  <i_i_glide_posenum>  (71) 
20

>  <r_i_glide_eff_state_penalty>  (71) 
0

>  <ligand_id>  (71) 
20

>  <original_smiles>  (71) 
CCn1nc(CCNC)c2onc(C)c21

>  <smiles>  (71) 
[H]C([H])([H])c1noc2c(C([H])([H])C([H])([H])[N+]([H])([H])C([H])([H])[H])nn(C([H])([H])C([H])([H])[H])c12

$$$$
21:0:0
     RDKit          3D

 62 68  0  0  1  0  0  0  0  0999 V2000
    1.5792    1.7756   10.0773 C   0  0  0  0  0  0  0  0  0  0  0  0
    0.8884    1.6901    8.9315 C   0  0  0  0  0  0  0  0  0  0  0  0
    1.3741    2.1994    7.5834 C   0  0  0  0  0  0  0  0  0  0  0  0
    1.5089    1.1182    6.4477 C   0  0  2  0  0  0  0  0  0  0  0  0
    2.6867    0.1793    6.8523 C   0  0  0  0  0  0  0  0  0  0  0  0
    3.9328    0.9528    6.4424 C   0  0  0  0  0  0  0  0  0  0  0  0
    5.0687    0.7134    6.8236 O   0  0  0  0  0  0  0  0  0  0  0  0
    3.5634    2.0811    5.5050 C   0  0  0  0  0  0  0  0  0  0  0  0
    2.0913    1.7724    5.1396 C   0  0  1  0  0  0  0  0  0  0  0  0
    2.2204    0.7889    4.1243 O   0  0  0  0  0  0  0  0  0  0  0  0
    1.3896    3.0048    4.5884 C   0  0  0  0  0  0  0  0  0  0  0  0
    2.0467    4.2036    4.1888 C   0  0  0  0  0  0  0  0  0  0  0  0
    1.3309    5.2558    3.5966 C   0  0  0  0  0  0  0  0  0  0  0  0
   -0.0575    5.1422    3.4256 C   0  0  0  0  0  0  0  0  0  0  0  0
   -0.7801    6.1384    2.8620 O   0  0  0  0  0  0  0  0  0  0  0  0
   -0.7408    3.9840    3.8000 C   0  0  0  0  0  0  0  0  0  0  0  0
   -0.0073    2.9342    4.3333 C   0  0  0  0  0  0  0  0  0  0  0  0
   -1.0358    1.7914    4.5350 C   0  0  1  0  0  0  0  0  0  0  0  0
   -0.8558    0.7281    3.4329 C   0  0  0  0  0  0  0  0  0  0  0  0
   -0.4761   -0.6852    3.9406 C   0  0  0  0  0  0  0  0  0  0  0  0
    0.3188   -0.8026    5.2184 N   0  0  2  0  0  0  0  0  0  0  0  0
    0.1447   -2.1629    5.8079 C   0  0  0  0  0  0  0  0  0  0  0  0
    0.5532   -3.3087    4.8829 C   0  0  0  0  0  0  0  0  0  0  0  0
    0.4682   -4.7359    5.3858 C   0  0  0  0  0  0  0  0  0  0  0  0
    1.8117   -4.1135    5.1430 C   0  0  0  0  0  0  0  0  0  0  0  0
    0.1751    0.3113    6.2451 C   0  0  2  0  0  0  0  0  0  0  0  0
   -1.1260    1.1179    5.9301 C   0  0  2  0  0  0  0  0  0  0  0  0
   -2.1574    0.1299    6.0405 O   0  0  0  0  0  0  0  0  0  0  0  0
   -1.7189    2.2320    6.7513 C   0  0  0  0  0  0  0  0  0  0  0  0
   -2.4713    3.0071    5.9572 C   0  0  0  0  0  0  0  0  0  0  0  0
   -2.3435    2.6485    4.4860 C   0  0  1  0  0  0  0  0  0  0  0  0
   -2.0863    3.8032    3.7155 O   0  0  0  0  0  0  0  0  0  0  0  0
    2.5609    2.2216   10.1253 H   0  0  0  0  0  0  0  0  0  0  0  0
    1.1572    1.4045   10.9989 H   0  0  0  0  0  0  0  0  0  0  0  0
   -0.0880    1.2378    8.9642 H   0  0  0  0  0  0  0  0  0  0  0  0
    0.7276    3.0157    7.2767 H   0  0  0  0  0  0  0  0  0  0  0  0
    2.3316    2.6921    7.7693 H   0  0  0  0  0  0  0  0  0  0  0  0
    2.7107   -0.0883    7.9123 H   0  0  0  0  0  0  0  0  0  0  0  0
    2.7112   -0.7412    6.2657 H   0  0  0  0  0  0  0  0  0  0  0  0
    3.6600    3.0056    6.0768 H   0  0  0  0  0  0  0  0  0  0  0  0
    4.2457    2.1607    4.6527 H   0  0  0  0  0  0  0  0  0  0  0  0
    1.4455    0.8374    3.5844 H   0  0  0  0  0  0  0  0  0  0  0  0
    3.1154    4.3082    4.2778 H   0  0  0  0  0  0  0  0  0  0  0  0
    1.8444    6.1331    3.2377 H   0  0  0  0  0  0  0  0  0  0  0  0
   -0.2406    6.8532    2.5069 H   0  0  0  0  0  0  0  0  0  0  0  0
   -1.7835    0.6359    2.8498 H   0  0  0  0  0  0  0  0  0  0  0  0
   -0.1107    1.0573    2.7064 H   0  0  0  0  0  0  0  0  0  0  0  0
   -1.4026   -1.2360    4.0756 H   0  0  0  0  0  0  0  0  0  0  0  0
    0.0631   -1.1769    3.1386 H   0  0  0  0  0  0  0  0  0  0  0  0
    0.7065   -2.2573    6.7347 H   0  0  0  0  0  0  0  0  0  0  0  0
   -0.9059   -2.3075    6.0733 H   0  0  0  0  0  0  0  0  0  0  0  0
    0.2336   -3.2404    3.8422 H   0  0  0  0  0  0  0  0  0  0  0  0
    0.1612   -4.9025    6.4150 H   0  0  0  0  0  0  0  0  0  0  0  0
    0.1575   -5.5069    4.6793 H   0  0  0  0  0  0  0  0  0  0  0  0
    2.3702   -4.4480    4.2660 H   0  0  0  0  0  0  0  0  0  0  0  0
    2.4141   -3.8298    6.0048 H   0  0  0  0  0  0  0  0  0  0  0  0
    0.0011   -0.1806    7.1980 H   0  0  0  0  0  0  0  0  0  0  0  0
   -2.7162    0.2003    5.2797 H   0  0  0  0  0  0  0  0  0  0  0  0
   -1.6452    2.3260    7.8237 H   0  0  0  0  0  0  0  0  0  0  0  0
   -3.0402    3.8445    6.2962 H   0  0  0  0  0  0  0  0  0  0  0  0
   -3.2159    2.1337    4.0912 H   0  0  0  0  0  0  0  0  0  0  0  0
    1.2882   -0.7478    4.9289 H   0  0  0  0  0  0  0  0  0  0  0  0
  1  2  2  0
  1 33  1  0
  1 34  1  0
  2  3  1  0
  2 35  1  0
  4  3  1  1
  3 36  1  0
  3 37  1  0
  4  9  1  0
  4 26  1  0
  4  5  1  0
  5  6  1  0
  5 38  1  0
  5 39  1  0
  6  7  2  0
  6  8  1  0
  8  9  1  0
  8 40  1  0
  8 41  1  0
  9 10  1  6
  9 11  1  0
 10 42  1  0
 11 17  2  0
 11 12  1  0
 12 13  2  0
 12 43  1  0
 13 14  1  0
 13 44  1  0
 14 15  1  0
 14 16  2  0
 15 45  1  0
 16 32  1  0
 16 17  1  0
 17 18  1  0
 18 27  1  0
 18 31  1  0
 18 19  1  6
 19 20  1  0
 19 46  1  0
 19 47  1  0
 20 21  1  0
 20 48  1  0
 20 49  1  0
 21 22  1  0
 21 26  1  0
 21 62  1  6
 22 23  1  0
 22 50  1  0
 22 51  1  0
 23 25  1  0
 23 24  1  0
 23 52  1  0
 24 25  1  0
 24 53  1  0
 24 54  1  0
 25 55  1  0
 25 56  1  0
 26 27  1  0
 26 57  1  1
 27 28  1  6
 27 29  1  0
 28 58  1  0
 29 30  2  0
 29 59  1  0
 30 31  1  0
 30 60  1  0
 31 32  1  0
 31 61  1  6
M  CHG  1  21   1
M  END
>  <i_m_ct_stereo_status>  (72) 
1

>  <s_m_source_file>  (72) 
/var/tmp/pbs.5076255.sched01/tmpmzpp47sj/0ood7iq68.sdf

>  <i_m_source_file_index>  (72) 
35

>  <i_lp_mmshare_version>  (72) 
48012

>  <i_f3d_flags>  (72) 
0

>  <s_epik_input>  (72) 
W0NAXTEyM2M0YzVbQ0BdNihbT0hdKVtDQF0oW0NIMl1bQ0hdPVtDSDJdKShbQ0gyXUMoPU8pW0NIMl02KVtDSF0oTihbQ0gyXVtDSDJdMSlbQ0gyXVtDSF03W0NIMl1bQ0gyXTcpW0NAQF0yKFtPSF0pW0NIXT1bQ0hdW0NASF0zT2M0YyhbT0hdKVtjSF1bY0hdNQ==

>  <s_epik_cmdline>  (72) 
J2VwaWtfcHl0aG9uJywgJy1waHQnLCAnMi4wJywgJy1waCcsICc3LjAnLCAnLXRuJywgJzgnLCAnLW1hJywgJzIwMCcsICctaW1hZScsICc8aW5maWxlLm1hZT4nLCAnLW9tYWUnLCAnPG91dGZpbGUubWFlPic=

>  <r_lp_tautomer_probability>  (72) 
1

>  <r_epik_Ionization_Penalty>  (72) 
0.0660003

>  <r_epik_Ionization_Penalty_Charging>  (72) 
0.0602588

>  <r_epik_Ionization_Penalty_Neutral>  (72) 
0.00574146

>  <r_epik_State_Penalty>  (72) 
0.0573569

>  <r_epik_Charging_Adjusted_Penalty>  (72) 
0.117616

>  <i_epik_Tot_Q>  (72) 
1

>  <i_epik_Tot_abs_Q>  (72) 
1

>  <s_lp_Force_Field>  (72) 
OPLS3e

>  <r_lp_Energy>  (72) 
73.9382

>  <b_lp_Chiralities_Consistent>  (72) 
1

>  <s_lp_Variant>  (72) 
21:0-1

>  <s_i_glide_gridfile>  (72) 
pfpi4k_grid

>  <i_i_glide_lignum>  (72) 
35

>  <i_i_glide_rotatable_bonds>  (72) 
7

>  <r_i_docking_score>  (72) 
-3.12228

>  <r_i_glide_ligand_efficiency>  (72) 
-0.0975713

>  <r_i_glide_ligand_efficiency_sa>  (72) 
-0.30977

>  <r_i_glide_ligand_efficiency_ln>  (72) 
-0.699164

>  <r_i_glide_gscore>  (72) 
-3.12228

>  <r_i_glide_lipo>  (72) 
-0.0760153

>  <r_i_glide_hbond>  (72) 
-0.16

>  <r_i_glide_metal>  (72) 
-0

>  <r_i_glide_rewards>  (72) 
-0.432817

>  <r_i_glide_evdw>  (72) 
-15.3732

>  <r_i_glide_ecoul>  (72) 
-13.1189

>  <r_i_glide_erotb>  (72) 
0.29291

>  <r_i_glide_esite>  (72) 
-0.00986137

>  <r_i_glide_emodel>  (72) 
-32.6131

>  <r_i_glide_energy>  (72) 
-28.4921

>  <r_i_glide_einternal>  (72) 
2.06815

>  <r_i_glide_intrahb_reward>  (72) 
-0

>  <i_i_glide_confnum>  (72) 
3

>  <i_i_glide_posenum>  (72) 
4

>  <r_i_glide_eff_state_penalty>  (72) 
0

>  <ligand_id>  (72) 
21

>  <original_smiles>  (72) 
C=CCC12CC(=O)CC1(O)c1ccc(O)c3c1C14CCN(CC5CC5)C2C1(O)C=CC4O3

>  <smiles>  (72) 
[H]Oc1c([H])c([H])c2c3c1OC1([H])C([H])=C([H])C4(O[H])C31C([H])([H])C([H])([H])[N+]([H])(C([H])([H])C1([H])C([H])([H])C1([H])[H])C4([H])C1(C([H])([H])C([H])=C([H])[H])C([H])([H])C(=O)C([H])([H])C21O[H]

$$$$
21:0:1
     RDKit          3D

 62 68  0  0  1  0  0  0  0  0999 V2000
    7.2910   -6.4939    5.8714 C   0  0  0  0  0  0  0  0  0  0  0  0
    6.0384   -6.2907    5.4341 C   0  0  0  0  0  0  0  0  0  0  0  0
    5.6801   -5.7543    4.0555 C   0  0  0  0  0  0  0  0  0  0  0  0
    4.7292   -6.6614    3.1854 C   0  0  2  0  0  0  0  0  0  0  0  0
    5.5143   -7.9705    2.8631 C   0  0  0  0  0  0  0  0  0  0  0  0
    6.4049   -7.5777    1.6962 C   0  0  0  0  0  0  0  0  0  0  0  0
    7.3694   -8.2232    1.2949 O   0  0  0  0  0  0  0  0  0  0  0  0
    5.9451   -6.2606    1.0997 C   0  0  0  0  0  0  0  0  0  0  0  0
    4.5515   -6.0462    1.7476 C   0  0  1  0  0  0  0  0  0  0  0  0
    3.7254   -6.8388    0.9183 O   0  0  0  0  0  0  0  0  0  0  0  0
    4.1063   -4.5883    1.6443 C   0  0  0  0  0  0  0  0  0  0  0  0
    4.7114   -3.6158    0.8135 C   0  0  0  0  0  0  0  0  0  0  0  0
    4.1603   -2.3244    0.6874 C   0  0  0  0  0  0  0  0  0  0  0  0
    3.0077   -1.9669    1.4053 C   0  0  0  0  0  0  0  0  0  0  0  0
    2.4781   -0.7136    1.2763 O   0  0  0  0  0  0  0  0  0  0  0  0
    2.3978   -2.8997    2.2639 C   0  0  0  0  0  0  0  0  0  0  0  0
    2.9284   -4.1929    2.3299 C   0  0  0  0  0  0  0  0  0  0  0  0
    1.9541   -4.9872    3.2345 C   0  0  1  0  0  0  0  0  0  0  0  0
    1.0652   -5.8997    2.3645 C   0  0  0  0  0  0  0  0  0  0  0  0
    1.1766   -7.4121    2.6495 C   0  0  0  0  0  0  0  0  0  0  0  0
    2.5001   -7.9352    3.1480 N   0  0  2  0  0  0  0  0  0  0  0  0
    2.2832   -9.2327    3.8615 C   0  0  0  0  0  0  0  0  0  0  0  0
    1.7084  -10.3237    2.9660 C   0  0  0  0  0  0  0  0  0  0  0  0
    0.2090  -10.4726    2.7585 C   0  0  0  0  0  0  0  0  0  0  0  0
    0.9436  -11.4769    3.5923 C   0  0  0  0  0  0  0  0  0  0  0  0
    3.3808   -6.9792    3.9395 C   0  0  2  0  0  0  0  0  0  0  0  0
    2.5284   -5.7771    4.4343 C   0  0  2  0  0  0  0  0  0  0  0  0
    1.5043   -6.3847    5.2206 O   0  0  0  0  0  0  0  0  0  0  0  0
    2.9750   -4.6558    5.3390 C   0  0  0  0  0  0  0  0  0  0  0  0
    2.2065   -3.5841    5.1192 C   0  0  0  0  0  0  0  0  0  0  0  0
    1.2661   -3.7773    3.9458 C   0  0  1  0  0  0  0  0  0  0  0  0
    1.3241   -2.6716    3.0615 O   0  0  0  0  0  0  0  0  0  0  0  0
    8.1547   -6.2913    5.2549 H   0  0  0  0  0  0  0  0  0  0  0  0
    7.4698   -6.8674    6.8678 H   0  0  0  0  0  0  0  0  0  0  0  0
    5.2239   -6.5069    6.1060 H   0  0  0  0  0  0  0  0  0  0  0  0
    5.2721   -4.7553    4.1740 H   0  0  0  0  0  0  0  0  0  0  0  0
    6.6254   -5.5805    3.5445 H   0  0  0  0  0  0  0  0  0  0  0  0
    6.0864   -8.3684    3.7009 H   0  0  0  0  0  0  0  0  0  0  0  0
    4.8671   -8.7639    2.4868 H   0  0  0  0  0  0  0  0  0  0  0  0
    6.6595   -5.4979    1.4049 H   0  0  0  0  0  0  0  0  0  0  0  0
    5.9341   -6.2630    0.0125 H   0  0  0  0  0  0  0  0  0  0  0  0
    3.7797   -6.4872    0.0387 H   0  0  0  0  0  0  0  0  0  0  0  0
    5.5813   -3.8562    0.2198 H   0  0  0  0  0  0  0  0  0  0  0  0
    4.6135   -1.6108    0.0172 H   0  0  0  0  0  0  0  0  0  0  0  0
    1.8372   -0.6669    0.5636 H   0  0  0  0  0  0  0  0  0  0  0  0
    0.0236   -5.6445    2.5385 H   0  0  0  0  0  0  0  0  0  0  0  0
    1.2577   -5.7255    1.3036 H   0  0  0  0  0  0  0  0  0  0  0  0
    0.3999   -7.6270    3.3861 H   0  0  0  0  0  0  0  0  0  0  0  0
    0.8779   -7.9610    1.7531 H   0  0  0  0  0  0  0  0  0  0  0  0
    3.2100   -9.6231    4.2797 H   0  0  0  0  0  0  0  0  0  0  0  0
    1.6080   -9.0842    4.7067 H   0  0  0  0  0  0  0  0  0  0  0  0
    2.3546  -10.6036    2.1313 H   0  0  0  0  0  0  0  0  0  0  0  0
   -0.4594   -9.7898    3.2825 H   0  0  0  0  0  0  0  0  0  0  0  0
   -0.1347  -10.8002    1.7773 H   0  0  0  0  0  0  0  0  0  0  0  0
    1.0246  -12.4641    3.1475 H   0  0  0  0  0  0  0  0  0  0  0  0
    0.7575  -11.4611    4.6662 H   0  0  0  0  0  0  0  0  0  0  0  0
    3.6906   -7.5186    4.8360 H   0  0  0  0  0  0  0  0  0  0  0  0
    1.9189   -6.9090    5.8920 H   0  0  0  0  0  0  0  0  0  0  0  0
    3.7233   -4.7419    6.1134 H   0  0  0  0  0  0  0  0  0  0  0  0
    2.2609   -2.6533    5.6534 H   0  0  0  0  0  0  0  0  0  0  0  0
    0.2522   -3.9788    4.3035 H   0  0  0  0  0  0  0  0  0  0  0  0
    3.0233   -8.1214    2.3031 H   0  0  0  0  0  0  0  0  0  0  0  0
  1  2  2  0
  1 33  1  0
  1 34  1  0
  2  3  1  0
  2 35  1  0
  4  3  1  1
  3 36  1  0
  3 37  1  0
  4  9  1  0
  4 26  1  0
  4  5  1  0
  5  6  1  0
  5 38  1  0
  5 39  1  0
  6  7  2  0
  6  8  1  0
  8  9  1  0
  8 40  1  0
  8 41  1  0
  9 10  1  6
  9 11  1  0
 10 42  1  0
 11 17  2  0
 11 12  1  0
 12 13  2  0
 12 43  1  0
 13 14  1  0
 13 44  1  0
 14 15  1  0
 14 16  2  0
 15 45  1  0
 16 32  1  0
 16 17  1  0
 17 18  1  0
 18 27  1  0
 18 31  1  0
 18 19  1  6
 19 20  1  0
 19 46  1  0
 19 47  1  0
 20 21  1  0
 20 48  1  0
 20 49  1  0
 21 22  1  0
 21 26  1  0
 21 62  1  6
 22 23  1  0
 22 50  1  0
 22 51  1  0
 23 25  1  0
 23 24  1  0
 23 52  1  0
 24 25  1  0
 24 53  1  0
 24 54  1  0
 25 55  1  0
 25 56  1  0
 26 27  1  0
 26 57  1  1
 27 28  1  1
 27 29  1  0
 28 58  1  0
 29 30  2  0
 29 59  1  0
 30 31  1  0
 30 60  1  0
 31 32  1  0
 31 61  1  1
M  CHG  1  21   1
M  END
>  <i_m_ct_stereo_status>  (73) 
1

>  <s_m_source_file>  (73) 
/var/tmp/pbs.5076255.sched01/tmpmzpp47sj/0ood7iq68.sdf

>  <i_m_source_file_index>  (73) 
35

>  <i_lp_mmshare_version>  (73) 
48012

>  <i_f3d_flags>  (73) 
0

>  <s_epik_input>  (73) 
W0NAXTEyM2M0YzVbQ0BdNihbT0hdKVtDQF0oW0NIMl1bQ0hdPVtDSDJdKShbQ0gyXUMoPU8pW0NIMl02KVtDSF0oTihbQ0gyXVtDSDJdMSlbQ0gyXVtDSF03W0NIMl1bQ0gyXTcpW0NAQF0yKFtPSF0pW0NIXT1bQ0hdW0NASF0zT2M0YyhbT0hdKVtjSF1bY0hdNQ==

>  <s_epik_cmdline>  (73) 
J2VwaWtfcHl0aG9uJywgJy1waHQnLCAnMi4wJywgJy1waCcsICc3LjAnLCAnLXRuJywgJzgnLCAnLW1hJywgJzIwMCcsICctaW1hZScsICc8aW5maWxlLm1hZT4nLCAnLW9tYWUnLCAnPG91dGZpbGUubWFlPic=

>  <r_lp_tautomer_probability>  (73) 
1

>  <r_epik_Ionization_Penalty>  (73) 
0.0660003

>  <r_epik_Ionization_Penalty_Charging>  (73) 
0.0602588

>  <r_epik_Ionization_Penalty_Neutral>  (73) 
0.00574146

>  <r_epik_State_Penalty>  (73) 
0.0573569

>  <r_epik_Charging_Adjusted_Penalty>  (73) 
0.117616

>  <i_epik_Tot_Q>  (73) 
1

>  <i_epik_Tot_abs_Q>  (73) 
1

>  <s_lp_Force_Field>  (73) 
OPLS3e

>  <r_lp_Energy>  (73) 
73.9382

>  <b_lp_Chiralities_Consistent>  (73) 
1

>  <s_lp_Variant>  (73) 
21:0-1

>  <s_i_glide_gridfile>  (73) 
pfpi4k_grid

>  <i_i_glide_lignum>  (73) 
35

>  <i_i_glide_rotatable_bonds>  (73) 
7

>  <r_i_docking_score>  (73) 
-3.02277

>  <r_i_glide_ligand_efficiency>  (73) 
-0.0944615

>  <r_i_glide_ligand_efficiency_sa>  (73) 
-0.299897

>  <r_i_glide_ligand_efficiency_ln>  (73) 
-0.67688

>  <r_i_glide_gscore>  (73) 
-3.02277

>  <r_i_glide_lipo>  (73) 
-0.545777

>  <r_i_glide_hbond>  (73) 
0

>  <r_i_glide_metal>  (73) 
-0

>  <r_i_glide_rewards>  (73) 
-1.05263

>  <r_i_glide_evdw>  (73) 
-20.519

>  <r_i_glide_ecoul>  (73) 
-5.41482

>  <r_i_glide_erotb>  (73) 
0.418443

>  <r_i_glide_esite>  (73) 
-0.00463143

>  <r_i_glide_emodel>  (73) 
-33.8179

>  <r_i_glide_energy>  (73) 
-25.9338

>  <r_i_glide_einternal>  (73) 
4.96191

>  <r_i_glide_intrahb_reward>  (73) 
-0.5

>  <i_i_glide_confnum>  (73) 
3

>  <i_i_glide_posenum>  (73) 
7

>  <r_i_glide_eff_state_penalty>  (73) 
0

>  <ligand_id>  (73) 
21

>  <original_smiles>  (73) 
C=CCC12CC(=O)CC1(O)c1ccc(O)c3c1C14CCN(CC5CC5)C2C1(O)C=CC4O3

>  <smiles>  (73) 
[H]Oc1c([H])c([H])c2c3c1OC1([H])C([H])=C([H])C4(O[H])C31C([H])([H])C([H])([H])[N+]([H])(C([H])([H])C1([H])C([H])([H])C1([H])[H])C4([H])C1(C([H])([H])C([H])=C([H])[H])C([H])([H])C(=O)C([H])([H])C21O[H]

$$$$
21:0:2
     RDKit          3D

 62 68  0  0  1  0  0  0  0  0999 V2000
    7.8836   -8.9499    4.6127 C   0  0  0  0  0  0  0  0  0  0  0  0
    6.6243   -8.9186    4.1493 C   0  0  0  0  0  0  0  0  0  0  0  0
    5.4425   -8.2882    4.8753 C   0  0  0  0  0  0  0  0  0  0  0  0
    4.7052   -7.1226    4.1149 C   0  0  2  0  0  0  0  0  0  0  0  0
    5.7034   -5.9261    4.0565 C   0  0  0  0  0  0  0  0  0  0  0  0
    5.5874   -5.2874    5.4335 C   0  0  0  0  0  0  0  0  0  0  0  0
    6.3817   -4.4822    5.9081 O   0  0  0  0  0  0  0  0  0  0  0  0
    4.3414   -5.7796    6.1377 C   0  0  0  0  0  0  0  0  0  0  0  0
    3.5597   -6.5134    5.0093 C   0  0  1  0  0  0  0  0  0  0  0  0
    2.8840   -5.4570    4.3280 O   0  0  0  0  0  0  0  0  0  0  0  0
    2.5433   -7.4847    5.5966 C   0  0  0  0  0  0  0  0  0  0  0  0
    2.1287   -7.5050    6.9551 C   0  0  0  0  0  0  0  0  0  0  0  0
    1.0808   -8.3350    7.3795 C   0  0  0  0  0  0  0  0  0  0  0  0
    0.4352   -9.1766    6.4629 C   0  0  0  0  0  0  0  0  0  0  0  0
   -0.5840   -9.9704    6.8764 O   0  0  0  0  0  0  0  0  0  0  0  0
    0.8337   -9.2132    5.1155 C   0  0  0  0  0  0  0  0  0  0  0  0
    1.8399   -8.3513    4.7075 C   0  0  0  0  0  0  0  0  0  0  0  0
    1.9437   -8.5472    3.1732 C   0  0  1  0  0  0  0  0  0  0  0  0
    1.2412   -7.3790    2.4492 C   0  0  0  0  0  0  0  0  0  0  0  0
    2.1493   -6.5330    1.5276 C   0  0  0  0  0  0  0  0  0  0  0  0
    3.6178   -6.4352    1.8780 N   0  0  2  0  0  0  0  0  0  0  0  0
    4.4148   -6.0492    0.6718 C   0  0  0  0  0  0  0  0  0  0  0  0
    4.0539   -4.6786    0.1020 C   0  0  0  0  0  0  0  0  0  0  0  0
    4.8076   -4.1584   -1.1050 C   0  0  0  0  0  0  0  0  0  0  0  0
    5.0072   -3.5031    0.2296 C   0  0  0  0  0  0  0  0  0  0  0  0
    4.2464   -7.5758    2.6736 C   0  0  2  0  0  0  0  0  0  0  0  0
    3.3322   -8.8279    2.5573 C   0  0  2  0  0  0  0  0  0  0  0  0
    3.2906   -9.0751    1.1553 O   0  0  0  0  0  0  0  0  0  0  0  0
    3.6146  -10.2085    3.0840 C   0  0  0  0  0  0  0  0  0  0  0  0
    2.4563  -10.8478    3.2804 C   0  0  0  0  0  0  0  0  0  0  0  0
    1.2554   -9.9440    3.0731 C   0  0  1  0  0  0  0  0  0  0  0  0
    0.3378  -10.0367    4.1512 O   0  0  0  0  0  0  0  0  0  0  0  0
    8.1561   -8.5150    5.5622 H   0  0  0  0  0  0  0  0  0  0  0  0
    8.6657   -9.4265    4.0414 H   0  0  0  0  0  0  0  0  0  0  0  0
    6.4240   -9.3803    3.1966 H   0  0  0  0  0  0  0  0  0  0  0  0
    4.7535   -9.0844    5.1473 H   0  0  0  0  0  0  0  0  0  0  0  0
    5.8278   -7.9521    5.8415 H   0  0  0  0  0  0  0  0  0  0  0  0
    6.7349   -6.2064    3.8304 H   0  0  0  0  0  0  0  0  0  0  0  0
    5.3992   -5.1587    3.3451 H   0  0  0  0  0  0  0  0  0  0  0  0
    4.6779   -6.4594    6.9197 H   0  0  0  0  0  0  0  0  0  0  0  0
    3.7953   -4.9755    6.6319 H   0  0  0  0  0  0  0  0  0  0  0  0
    3.4671   -4.7166    4.2383 H   0  0  0  0  0  0  0  0  0  0  0  0
    2.5636   -6.8319    7.6854 H   0  0  0  0  0  0  0  0  0  0  0  0
    0.7449   -8.3163    8.4060 H   0  0  0  0  0  0  0  0  0  0  0  0
   -1.0613  -10.3782    6.1573 H   0  0  0  0  0  0  0  0  0  0  0  0
    0.4224   -7.7660    1.8351 H   0  0  0  0  0  0  0  0  0  0  0  0
    0.7672   -6.7184    3.1776 H   0  0  0  0  0  0  0  0  0  0  0  0
    2.0516   -6.9422    0.5277 H   0  0  0  0  0  0  0  0  0  0  0  0
    1.7249   -5.5342    1.4691 H   0  0  0  0  0  0  0  0  0  0  0  0
    5.4800   -6.0516    0.8937 H   0  0  0  0  0  0  0  0  0  0  0  0
    4.2658   -6.7981   -0.1084 H   0  0  0  0  0  0  0  0  0  0  0  0
    2.9920   -4.4393    0.0438 H   0  0  0  0  0  0  0  0  0  0  0  0
    5.6187   -4.7588   -1.4976 H   0  0  0  0  0  0  0  0  0  0  0  0
    4.2466   -3.5990   -1.8544 H   0  0  0  0  0  0  0  0  0  0  0  0
    4.5666   -2.5141    0.3632 H   0  0  0  0  0  0  0  0  0  0  0  0
    5.9492   -3.6753    0.7494 H   0  0  0  0  0  0  0  0  0  0  0  0
    5.1694   -7.8278    2.1553 H   0  0  0  0  0  0  0  0  0  0  0  0
    3.4450  -10.0027    1.0144 H   0  0  0  0  0  0  0  0  0  0  0  0
    4.5948  -10.6560    3.1750 H   0  0  0  0  0  0  0  0  0  0  0  0
    2.3529  -11.8706    3.5977 H   0  0  0  0  0  0  0  0  0  0  0  0
    0.7890  -10.1502    2.1058 H   0  0  0  0  0  0  0  0  0  0  0  0
    3.6567   -5.6509    2.5172 H   0  0  0  0  0  0  0  0  0  0  0  0
  1  2  2  0
  1 33  1  0
  1 34  1  0
  2  3  1  0
  2 35  1  0
  4  3  1  1
  3 36  1  0
  3 37  1  0
  4  9  1  0
  4 26  1  0
  4  5  1  0
  5  6  1  0
  5 38  1  0
  5 39  1  0
  6  7  2  0
  6  8  1  0
  8  9  1  0
  8 40  1  0
  8 41  1  0
  9 10  1  6
  9 11  1  0
 10 42  1  0
 11 17  2  0
 11 12  1  0
 12 13  2  0
 12 43  1  0
 13 14  1  0
 13 44  1  0
 14 15  1  0
 14 16  2  0
 15 45  1  0
 16 32  1  0
 16 17  1  0
 17 18  1  0
 18 27  1  0
 18 31  1  0
 18 19  1  6
 19 20  1  0
 19 46  1  0
 19 47  1  0
 20 21  1  0
 20 48  1  0
 20 49  1  0
 21 22  1  0
 21 26  1  0
 21 62  1  1
 22 23  1  0
 22 50  1  0
 22 51  1  0
 23 25  1  0
 23 24  1  0
 23 52  1  0
 24 25  1  0
 24 53  1  0
 24 54  1  0
 25 55  1  0
 25 56  1  0
 26 27  1  0
 26 57  1  6
 27 28  1  6
 27 29  1  0
 28 58  1  0
 29 30  2  0
 29 59  1  0
 30 31  1  0
 30 60  1  0
 31 32  1  0
 31 61  1  6
M  CHG  1  21   1
M  END
>  <i_m_ct_stereo_status>  (74) 
1

>  <s_m_source_file>  (74) 
/var/tmp/pbs.5076255.sched01/tmpmzpp47sj/0ood7iq68.sdf

>  <i_m_source_file_index>  (74) 
35

>  <i_lp_mmshare_version>  (74) 
48012

>  <i_f3d_flags>  (74) 
0

>  <s_epik_input>  (74) 
W0NAXTEyM2M0YzVbQ0BdNihbT0hdKVtDQF0oW0NIMl1bQ0hdPVtDSDJdKShbQ0gyXUMoPU8pW0NIMl02KVtDSF0oTihbQ0gyXVtDSDJdMSlbQ0gyXVtDSF03W0NIMl1bQ0gyXTcpW0NAQF0yKFtPSF0pW0NIXT1bQ0hdW0NASF0zT2M0YyhbT0hdKVtjSF1bY0hdNQ==

>  <s_epik_cmdline>  (74) 
J2VwaWtfcHl0aG9uJywgJy1waHQnLCAnMi4wJywgJy1waCcsICc3LjAnLCAnLXRuJywgJzgnLCAnLW1hJywgJzIwMCcsICctaW1hZScsICc8aW5maWxlLm1hZT4nLCAnLW9tYWUnLCAnPG91dGZpbGUubWFlPic=

>  <r_lp_tautomer_probability>  (74) 
1

>  <r_epik_Ionization_Penalty>  (74) 
0.0660003

>  <r_epik_Ionization_Penalty_Charging>  (74) 
0.0602588

>  <r_epik_Ionization_Penalty_Neutral>  (74) 
0.00574146

>  <r_epik_State_Penalty>  (74) 
0.0573569

>  <r_epik_Charging_Adjusted_Penalty>  (74) 
0.117616

>  <i_epik_Tot_Q>  (74) 
1

>  <i_epik_Tot_abs_Q>  (74) 
1

>  <s_lp_Force_Field>  (74) 
OPLS3e

>  <r_lp_Energy>  (74) 
73.9382

>  <b_lp_Chiralities_Consistent>  (74) 
1

>  <s_lp_Variant>  (74) 
21:0-1

>  <s_i_glide_gridfile>  (74) 
pfpi4k_grid

>  <i_i_glide_lignum>  (74) 
35

>  <i_i_glide_rotatable_bonds>  (74) 
7

>  <r_i_docking_score>  (74) 
-2.34738

>  <r_i_glide_ligand_efficiency>  (74) 
-0.0733556

>  <r_i_glide_ligand_efficiency_sa>  (74) 
-0.232889

>  <r_i_glide_ligand_efficiency_ln>  (74) 
-0.525642

>  <r_i_glide_gscore>  (74) 
-2.34738

>  <r_i_glide_lipo>  (74) 
-0.258932

>  <r_i_glide_hbond>  (74) 
-0.0534367

>  <r_i_glide_metal>  (74) 
-0

>  <r_i_glide_rewards>  (74) 
-0.4332

>  <r_i_glide_evdw>  (74) 
-18.8232

>  <r_i_glide_ecoul>  (74) 
-6.35708

>  <r_i_glide_erotb>  (74) 
0.29291

>  <r_i_glide_esite>  (74) 
0

>  <r_i_glide_emodel>  (74) 
-28.2539

>  <r_i_glide_energy>  (74) 
-25.1802

>  <r_i_glide_einternal>  (74) 
1.82857

>  <r_i_glide_intrahb_reward>  (74) 
-0

>  <i_i_glide_confnum>  (74) 
3

>  <i_i_glide_posenum>  (74) 
9

>  <r_i_glide_eff_state_penalty>  (74) 
0

>  <ligand_id>  (74) 
21

>  <original_smiles>  (74) 
C=CCC12CC(=O)CC1(O)c1ccc(O)c3c1C14CCN(CC5CC5)C2C1(O)C=CC4O3

>  <smiles>  (74) 
[H]Oc1c([H])c([H])c2c3c1OC1([H])C([H])=C([H])C4(O[H])C31C([H])([H])C([H])([H])[N+]([H])(C([H])([H])C1([H])C([H])([H])C1([H])[H])C4([H])C1(C([H])([H])C([H])=C([H])[H])C([H])([H])C(=O)C([H])([H])C21O[H]

$$$$
22:0:0
     RDKit          3D

 34 37  0  0  1  0  0  0  0  0999 V2000
    7.1887   -2.1994   -0.3979 O   0  0  0  0  0  0  0  0  0  0  0  0
    6.2269   -2.6766    0.2050 C   0  0  0  0  0  0  0  0  0  0  0  0
    6.0213   -2.4750    1.6942 C   0  0  2  0  0  0  0  0  0  0  0  0
    4.7080   -3.2215    1.9892 C   0  0  2  0  0  0  0  0  0  0  0  0
    4.3107   -3.7491    0.6118 C   0  0  0  0  0  0  0  0  0  0  0  0
    3.2695   -4.3809    0.4257 O   0  0  0  0  0  0  0  0  0  0  0  0
    5.2391   -3.4295   -0.3072 N   0  0  0  0  0  0  0  0  0  0  0  0
    5.1365   -3.7802   -1.7237 C   0  0  0  0  0  0  0  0  0  0  0  0
    4.3992   -2.7261   -2.5163 C   0  0  0  0  0  0  0  0  0  0  0  0
    4.8775   -1.4015   -2.5869 C   0  0  0  0  0  0  0  0  0  0  0  0
    4.1892   -0.4281   -3.3316 C   0  0  0  0  0  0  0  0  0  0  0  0
    3.0175   -0.7741   -4.0167 C   0  0  0  0  0  0  0  0  0  0  0  0
    2.3621    0.1530   -4.7556 F   0  0  0  0  0  0  0  0  0  0  0  0
    2.5230   -2.0893   -3.9170 C   0  0  0  0  0  0  0  0  0  0  0  0
    3.2090   -3.0582   -3.1821 C   0  0  0  0  0  0  0  0  0  0  0  0
    3.8125   -2.1139    2.6173 C   0  0  2  0  0  0  0  0  0  0  0  0
    3.5122   -1.0271    1.5993 C   0  0  0  0  0  0  0  0  0  0  0  0
    4.6553   -0.3819    1.3527 C   0  0  0  0  0  0  0  0  0  0  0  0
    5.7354   -1.0314    2.2008 C   0  0  1  0  0  0  0  0  0  0  0  0
    4.8937   -1.3885    3.4328 C   0  0  0  0  0  0  0  0  0  0  0  0
    6.8589   -2.9572    2.1677 H   0  0  0  0  0  0  0  0  0  0  0  0
    4.8717   -4.0521    2.6776 H   0  0  0  0  0  0  0  0  0  0  0  0
    4.6417   -4.7456   -1.8242 H   0  0  0  0  0  0  0  0  0  0  0  0
    6.1271   -3.9020   -2.1583 H   0  0  0  0  0  0  0  0  0  0  0  0
    5.7868   -1.1155   -2.0963 H   0  0  0  0  0  0  0  0  0  0  0  0
    4.5596    0.5857   -3.3830 H   0  0  0  0  0  0  0  0  0  0  0  0
    1.5886   -2.3607   -4.3808 H   0  0  0  0  0  0  0  0  0  0  0  0
    2.7886   -4.0466   -3.1279 H   0  0  0  0  0  0  0  0  0  0  0  0
    2.9569   -2.4606    3.1972 H   0  0  0  0  0  0  0  0  0  0  0  0
    2.5449   -0.8568    1.1444 H   0  0  0  0  0  0  0  0  0  0  0  0
    4.8158    0.4289    0.6557 H   0  0  0  0  0  0  0  0  0  0  0  0
    6.6060   -0.4148    2.4149 H   0  0  0  0  0  0  0  0  0  0  0  0
    4.5137   -0.5097    3.9590 H   0  0  0  0  0  0  0  0  0  0  0  0
    5.4126   -2.0249    4.1538 H   0  0  0  0  0  0  0  0  0  0  0  0
  1  2  2  0
  2  3  1  0
  2  7  1  0
  3 19  1  0
  3 21  1  1
  3  4  1  0
  4 16  1  0
  4 22  1  1
  4  5  1  0
  5  6  2  0
  5  7  1  0
  7  8  1  0
  8  9  1  0
  8 23  1  0
  8 24  1  0
  9 15  1  0
  9 10  2  0
 10 11  1  0
 10 25  1  0
 11 12  2  0
 11 26  1  0
 12 13  1  0
 12 14  1  0
 14 15  2  0
 14 27  1  0
 15 28  1  0
 16 20  1  0
 16 17  1  0
 16 29  1  1
 17 18  2  0
 17 30  1  0
 18 19  1  0
 18 31  1  0
 19 20  1  0
 19 32  1  1
 20 33  1  0
 20 34  1  0
M  END
>  <i_m_ct_stereo_status>  (75) 
1

>  <s_m_source_file>  (75) 
/var/tmp/pbs.5076255.sched01/tmpmzpp47sj/0ood7iq68.sdf

>  <i_m_source_file_index>  (75) 
37

>  <i_lp_mmshare_version>  (75) 
48012

>  <i_f3d_flags>  (75) 
0

>  <s_epik_input>  (75) 
W0NIMl0xW0NAQEhdMltDSF09W0NIXVtDQEhdMWMoYzIzKWMoW09IXSluKGMzW09IXSlbQ0gyXWM0W2NIXVtjSF1jKEYpW2NIXVtjSF00

>  <s_epik_cmdline>  (75) 
J2VwaWtfcHl0aG9uJywgJy1waHQnLCAnMi4wJywgJy1waCcsICc3LjAnLCAnLXRuJywgJzgnLCAnLW1hJywgJzIwMCcsICctaW1hZScsICc8aW5maWxlLm1hZT4nLCAnLW9tYWUnLCAnPG91dGZpbGUubWFlPic=

>  <r_lp_tautomer_probability>  (75) 
1

>  <r_epik_Ionization_Penalty>  (75) 
3.63346e-11

>  <r_epik_Ionization_Penalty_Charging>  (75) 
0

>  <r_epik_Ionization_Penalty_Neutral>  (75) 
3.63346e-11

>  <r_epik_State_Penalty>  (75) 
-0

>  <r_epik_Charging_Adjusted_Penalty>  (75) 
0

>  <i_epik_Tot_Q>  (75) 
0

>  <i_epik_Tot_abs_Q>  (75) 
0

>  <s_lp_Force_Field>  (75) 
OPLS3e

>  <r_lp_Energy>  (75) 
27.0318

>  <b_lp_Chiralities_Consistent>  (75) 
1

>  <s_lp_Variant>  (75) 
22:0-1

>  <s_i_glide_gridfile>  (75) 
pfpi4k_grid

>  <i_i_glide_lignum>  (75) 
37

>  <i_i_glide_rotatable_bonds>  (75) 
2

>  <r_i_docking_score>  (75) 
-3.99882

>  <r_i_glide_ligand_efficiency>  (75) 
-0.199941

>  <r_i_glide_ligand_efficiency_sa>  (75) 
-0.542724

>  <r_i_glide_ligand_efficiency_ln>  (75) 
-1.00077

>  <r_i_glide_gscore>  (75) 
-3.99882

>  <r_i_glide_lipo>  (75) 
-1.11949

>  <r_i_glide_hbond>  (75) 
-0.125493

>  <r_i_glide_metal>  (75) 
-0

>  <r_i_glide_rewards>  (75) 
-1.73621

>  <r_i_glide_evdw>  (75) 
-20.8042

>  <r_i_glide_ecoul>  (75) 
-2.96737

>  <r_i_glide_erotb>  (75) 
0.486474

>  <r_i_glide_esite>  (75) 
-0.0187914

>  <r_i_glide_emodel>  (75) 
-30.4081

>  <r_i_glide_energy>  (75) 
-23.7715

>  <r_i_glide_einternal>  (75) 
0.100035

>  <r_i_glide_intrahb_reward>  (75) 
-0

>  <i_i_glide_confnum>  (75) 
1

>  <i_i_glide_posenum>  (75) 
13

>  <r_i_glide_eff_state_penalty>  (75) 
0

>  <ligand_id>  (75) 
22

>  <original_smiles>  (75) 
Oc1c2c(c(O)n1Cc1ccc(F)cc1)C1C=CC2C1

>  <smiles>  (75) 
[H]C1=C([H])C2([H])C([H])([H])C1([H])C1([H])C(=O)N(C([H])([H])c3c([H])c([H])c(F)c([H])c3[H])C(=O)C21[H]

$$$$
22:0:1
     RDKit          3D

 34 37  0  0  1  0  0  0  0  0999 V2000
    6.7987   -1.4739    0.8009 O   0  0  0  0  0  0  0  0  0  0  0  0
    5.7703   -2.0240    1.1985 C   0  0  0  0  0  0  0  0  0  0  0  0
    5.1676   -1.7567    2.5761 C   0  0  2  0  0  0  0  0  0  0  0  0
    3.8930   -2.6284    2.5709 C   0  0  2  0  0  0  0  0  0  0  0  0
    3.9235   -3.2755    1.1868 C   0  0  0  0  0  0  0  0  0  0  0  0
    3.0379   -4.0349    0.7935 O   0  0  0  0  0  0  0  0  0  0  0  0
    5.0273   -2.9070    0.5117 N   0  0  0  0  0  0  0  0  0  0  0  0
    5.3349   -3.3570   -0.8496 C   0  0  0  0  0  0  0  0  0  0  0  0
    4.6829   -2.5040   -1.9239 C   0  0  0  0  0  0  0  0  0  0  0  0
    3.9315   -3.1247   -2.9395 C   0  0  0  0  0  0  0  0  0  0  0  0
    3.3106   -2.3537   -3.9386 C   0  0  0  0  0  0  0  0  0  0  0  0
    3.4569   -0.9528   -3.9403 C   0  0  0  0  0  0  0  0  0  0  0  0
    2.9024   -0.2056   -4.9224 F   0  0  0  0  0  0  0  0  0  0  0  0
    4.2052   -0.3268   -2.9311 C   0  0  0  0  0  0  0  0  0  0  0  0
    4.8112   -1.0972   -1.9216 C   0  0  0  0  0  0  0  0  0  0  0  0
    2.7623   -1.5948    2.8461 C   0  0  2  0  0  0  0  0  0  0  0  0
    2.6438   -0.6109    1.6967 C   0  0  0  0  0  0  0  0  0  0  0  0
    3.7463    0.1399    1.6940 C   0  0  0  0  0  0  0  0  0  0  0  0
    4.6170   -0.3269    2.8469 C   0  0  1  0  0  0  0  0  0  0  0  0
    3.5128   -0.7026    3.8455 C   0  0  0  0  0  0  0  0  0  0  0  0
    5.8517   -2.0806    3.3566 H   0  0  0  0  0  0  0  0  0  0  0  0
    3.9377   -3.3977    3.3434 H   0  0  0  0  0  0  0  0  0  0  0  0
    5.0340   -4.4003   -0.9630 H   0  0  0  0  0  0  0  0  0  0  0  0
    6.4123   -3.3495   -1.0185 H   0  0  0  0  0  0  0  0  0  0  0  0
    3.8241   -4.1962   -2.9573 H   0  0  0  0  0  0  0  0  0  0  0  0
    2.7393   -2.8387   -4.7149 H   0  0  0  0  0  0  0  0  0  0  0  0
    4.3053    0.7478   -2.9278 H   0  0  0  0  0  0  0  0  0  0  0  0
    5.3699   -0.5891   -1.1539 H   0  0  0  0  0  0  0  0  0  0  0  0
    1.8180   -2.0003    3.2092 H   0  0  0  0  0  0  0  0  0  0  0  0
    1.8166   -0.5666    1.0038 H   0  0  0  0  0  0  0  0  0  0  0  0
    4.0060    0.9249    0.9979 H   0  0  0  0  0  0  0  0  0  0  0  0
    5.3351    0.4041    3.2181 H   0  0  0  0  0  0  0  0  0  0  0  0
    2.9250    0.1572    4.1747 H   0  0  0  0  0  0  0  0  0  0  0  0
    3.8760   -1.2331    4.7291 H   0  0  0  0  0  0  0  0  0  0  0  0
  1  2  2  0
  2  3  1  0
  2  7  1  0
  3 19  1  0
  3 21  1  1
  3  4  1  0
  4 16  1  0
  4 22  1  1
  4  5  1  0
  5  6  2  0
  5  7  1  0
  7  8  1  0
  8  9  1  0
  8 23  1  0
  8 24  1  0
  9 15  1  0
  9 10  2  0
 10 11  1  0
 10 25  1  0
 11 12  2  0
 11 26  1  0
 12 13  1  0
 12 14  1  0
 14 15  2  0
 14 27  1  0
 15 28  1  0
 16 20  1  0
 16 17  1  0
 16 29  1  1
 17 18  2  0
 17 30  1  0
 18 19  1  0
 18 31  1  0
 19 20  1  0
 19 32  1  1
 20 33  1  0
 20 34  1  0
M  END
>  <i_m_ct_stereo_status>  (76) 
1

>  <s_m_source_file>  (76) 
/var/tmp/pbs.5076255.sched01/tmpmzpp47sj/0ood7iq68.sdf

>  <i_m_source_file_index>  (76) 
37

>  <i_lp_mmshare_version>  (76) 
48012

>  <i_f3d_flags>  (76) 
0

>  <s_epik_input>  (76) 
W0NIMl0xW0NAQEhdMltDSF09W0NIXVtDQEhdMWMoYzIzKWMoW09IXSluKGMzW09IXSlbQ0gyXWM0W2NIXVtjSF1jKEYpW2NIXVtjSF00

>  <s_epik_cmdline>  (76) 
J2VwaWtfcHl0aG9uJywgJy1waHQnLCAnMi4wJywgJy1waCcsICc3LjAnLCAnLXRuJywgJzgnLCAnLW1hJywgJzIwMCcsICctaW1hZScsICc8aW5maWxlLm1hZT4nLCAnLW9tYWUnLCAnPG91dGZpbGUubWFlPic=

>  <r_lp_tautomer_probability>  (76) 
1

>  <r_epik_Ionization_Penalty>  (76) 
3.63346e-11

>  <r_epik_Ionization_Penalty_Charging>  (76) 
0

>  <r_epik_Ionization_Penalty_Neutral>  (76) 
3.63346e-11

>  <r_epik_State_Penalty>  (76) 
-0

>  <r_epik_Charging_Adjusted_Penalty>  (76) 
0

>  <i_epik_Tot_Q>  (76) 
0

>  <i_epik_Tot_abs_Q>  (76) 
0

>  <s_lp_Force_Field>  (76) 
OPLS3e

>  <r_lp_Energy>  (76) 
27.0318

>  <b_lp_Chiralities_Consistent>  (76) 
1

>  <s_lp_Variant>  (76) 
22:0-1

>  <s_i_glide_gridfile>  (76) 
pfpi4k_grid

>  <i_i_glide_lignum>  (76) 
37

>  <i_i_glide_rotatable_bonds>  (76) 
2

>  <r_i_docking_score>  (76) 
-3.65706

>  <r_i_glide_ligand_efficiency>  (76) 
-0.182853

>  <r_i_glide_ligand_efficiency_sa>  (76) 
-0.49634

>  <r_i_glide_ligand_efficiency_ln>  (76) 
-0.915242

>  <r_i_glide_gscore>  (76) 
-3.65706

>  <r_i_glide_lipo>  (76) 
-0.744191

>  <r_i_glide_hbond>  (76) 
0

>  <r_i_glide_metal>  (76) 
-0

>  <r_i_glide_rewards>  (76) 
-1.94632

>  <r_i_glide_evdw>  (76) 
-24.3895

>  <r_i_glide_ecoul>  (76) 
-1.55698

>  <r_i_glide_erotb>  (76) 
0.486474

>  <r_i_glide_esite>  (76) 
0

>  <r_i_glide_emodel>  (76) 
-32.0882

>  <r_i_glide_energy>  (76) 
-25.9465

>  <r_i_glide_einternal>  (76) 
0.164706

>  <r_i_glide_intrahb_reward>  (76) 
-0

>  <i_i_glide_confnum>  (76) 
3

>  <i_i_glide_posenum>  (76) 
40

>  <r_i_glide_eff_state_penalty>  (76) 
0

>  <ligand_id>  (76) 
22

>  <original_smiles>  (76) 
Oc1c2c(c(O)n1Cc1ccc(F)cc1)C1C=CC2C1

>  <smiles>  (76) 
[H]C1=C([H])C2([H])C([H])([H])C1([H])C1([H])C(=O)N(C([H])([H])c3c([H])c([H])c(F)c([H])c3[H])C(=O)C21[H]

$$$$
22:0:2
     RDKit          3D

 34 37  0  0  1  0  0  0  0  0999 V2000
   -1.7923    4.2715    4.2070 O   0  0  0  0  0  0  0  0  0  0  0  0
   -1.6713    3.0541    4.3373 C   0  0  0  0  0  0  0  0  0  0  0  0
   -0.9256    2.1899    3.3271 C   0  0  2  0  0  0  0  0  0  0  0  0
   -1.0145    0.7783    3.9541 C   0  0  2  0  0  0  0  0  0  0  0  0
   -1.7781    1.0250    5.2543 C   0  0  0  0  0  0  0  0  0  0  0  0
   -2.0196    0.1342    6.0741 O   0  0  0  0  0  0  0  0  0  0  0  0
   -2.1271    2.3146    5.3660 N   0  0  0  0  0  0  0  0  0  0  0  0
   -2.8334    2.8565    6.5347 C   0  0  0  0  0  0  0  0  0  0  0  0
   -1.9183    3.2037    7.7017 C   0  0  0  0  0  0  0  0  0  0  0  0
   -0.6489    3.7853    7.4877 C   0  0  0  0  0  0  0  0  0  0  0  0
    0.1922    4.0801    8.5730 C   0  0  0  0  0  0  0  0  0  0  0  0
   -0.2370    3.8137    9.8854 C   0  0  0  0  0  0  0  0  0  0  0  0
    0.5782    4.1033   10.9279 F   0  0  0  0  0  0  0  0  0  0  0  0
   -1.5064    3.2454   10.1109 C   0  0  0  0  0  0  0  0  0  0  0  0
   -2.3476    2.9505    9.0208 C   0  0  0  0  0  0  0  0  0  0  0  0
    0.4803    0.3570    4.0798 C   0  0  2  0  0  0  0  0  0  0  0  0
    1.2059    1.2421    5.0775 C   0  0  0  0  0  0  0  0  0  0  0  0
    1.2834    2.4634    4.5452 C   0  0  0  0  0  0  0  0  0  0  0  0
    0.6127    2.4123    3.1852 C   0  0  1  0  0  0  0  0  0  0  0  0
    1.0007    0.9851    2.7779 C   0  0  0  0  0  0  0  0  0  0  0  0
   -1.4294    2.2366    2.3596 H   0  0  0  0  0  0  0  0  0  0  0  0
   -1.5744    0.1028    3.3072 H   0  0  0  0  0  0  0  0  0  0  0  0
   -3.5943    2.1503    6.8787 H   0  0  0  0  0  0  0  0  0  0  0  0
   -3.3834    3.7459    6.2434 H   0  0  0  0  0  0  0  0  0  0  0  0
   -0.2897    4.0103    6.4991 H   0  0  0  0  0  0  0  0  0  0  0  0
    1.1639    4.5118    8.3896 H   0  0  0  0  0  0  0  0  0  0  0  0
   -1.8353    3.0341   11.1178 H   0  0  0  0  0  0  0  0  0  0  0  0
   -3.3187    2.5193    9.2061 H   0  0  0  0  0  0  0  0  0  0  0  0
    0.6736   -0.7113    4.1816 H   0  0  0  0  0  0  0  0  0  0  0  0
    1.5658    0.9190    6.0443 H   0  0  0  0  0  0  0  0  0  0  0  0
    1.7219    3.3493    4.9821 H   0  0  0  0  0  0  0  0  0  0  0  0
    0.9327    3.1848    2.4856 H   0  0  0  0  0  0  0  0  0  0  0  0
    2.0761    0.8599    2.6395 H   0  0  0  0  0  0  0  0  0  0  0  0
    0.4928    0.6318    1.8769 H   0  0  0  0  0  0  0  0  0  0  0  0
  1  2  2  0
  2  3  1  0
  2  7  1  0
  3 19  1  0
  3 21  1  6
  3  4  1  0
  4 16  1  0
  4 22  1  6
  4  5  1  0
  5  6  2  0
  5  7  1  0
  7  8  1  0
  8  9  1  0
  8 23  1  0
  8 24  1  0
  9 15  1  0
  9 10  2  0
 10 11  1  0
 10 25  1  0
 11 12  2  0
 11 26  1  0
 12 13  1  0
 12 14  1  0
 14 15  2  0
 14 27  1  0
 15 28  1  0
 16 20  1  0
 16 17  1  0
 16 29  1  1
 17 18  2  0
 17 30  1  0
 18 19  1  0
 18 31  1  0
 19 20  1  0
 19 32  1  6
 20 33  1  0
 20 34  1  0
M  END
>  <i_m_ct_stereo_status>  (77) 
1

>  <s_m_source_file>  (77) 
/var/tmp/pbs.5076255.sched01/tmpmzpp47sj/0ood7iq68.sdf

>  <i_m_source_file_index>  (77) 
37

>  <i_lp_mmshare_version>  (77) 
48012

>  <i_f3d_flags>  (77) 
0

>  <s_epik_input>  (77) 
W0NIMl0xW0NAQEhdMltDSF09W0NIXVtDQEhdMWMoYzIzKWMoW09IXSluKGMzW09IXSlbQ0gyXWM0W2NIXVtjSF1jKEYpW2NIXVtjSF00

>  <s_epik_cmdline>  (77) 
J2VwaWtfcHl0aG9uJywgJy1waHQnLCAnMi4wJywgJy1waCcsICc3LjAnLCAnLXRuJywgJzgnLCAnLW1hJywgJzIwMCcsICctaW1hZScsICc8aW5maWxlLm1hZT4nLCAnLW9tYWUnLCAnPG91dGZpbGUubWFlPic=

>  <r_lp_tautomer_probability>  (77) 
1

>  <r_epik_Ionization_Penalty>  (77) 
3.63346e-11

>  <r_epik_Ionization_Penalty_Charging>  (77) 
0

>  <r_epik_Ionization_Penalty_Neutral>  (77) 
3.63346e-11

>  <r_epik_State_Penalty>  (77) 
-0

>  <r_epik_Charging_Adjusted_Penalty>  (77) 
0

>  <i_epik_Tot_Q>  (77) 
0

>  <i_epik_Tot_abs_Q>  (77) 
0

>  <s_lp_Force_Field>  (77) 
OPLS3e

>  <r_lp_Energy>  (77) 
27.0318

>  <b_lp_Chiralities_Consistent>  (77) 
1

>  <s_lp_Variant>  (77) 
22:0-1

>  <s_i_glide_gridfile>  (77) 
pfpi4k_grid

>  <i_i_glide_lignum>  (77) 
37

>  <i_i_glide_rotatable_bonds>  (77) 
2

>  <r_i_docking_score>  (77) 
-3.45471

>  <r_i_glide_ligand_efficiency>  (77) 
-0.172735

>  <r_i_glide_ligand_efficiency_sa>  (77) 
-0.468876

>  <r_i_glide_ligand_efficiency_ln>  (77) 
-0.8646

>  <r_i_glide_gscore>  (77) 
-3.45471

>  <r_i_glide_lipo>  (77) 
-0.211948

>  <r_i_glide_hbond>  (77) 
-0.240387

>  <r_i_glide_metal>  (77) 
-0

>  <r_i_glide_rewards>  (77) 
-1.56984

>  <r_i_glide_evdw>  (77) 
-17.8975

>  <r_i_glide_ecoul>  (77) 
-6.36458

>  <r_i_glide_erotb>  (77) 
0.486474

>  <r_i_glide_esite>  (77) 
-0.069437

>  <r_i_glide_emodel>  (77) 
-29.8377

>  <r_i_glide_energy>  (77) 
-24.2621

>  <r_i_glide_einternal>  (77) 
0.576788

>  <r_i_glide_intrahb_reward>  (77) 
-0

>  <i_i_glide_confnum>  (77) 
4

>  <i_i_glide_posenum>  (77) 
37

>  <r_i_glide_eff_state_penalty>  (77) 
0

>  <ligand_id>  (77) 
22

>  <original_smiles>  (77) 
Oc1c2c(c(O)n1Cc1ccc(F)cc1)C1C=CC2C1

>  <smiles>  (77) 
[H]C1=C([H])C2([H])C([H])([H])C1([H])C1([H])C(=O)N(C([H])([H])c3c([H])c([H])c(F)c([H])c3[H])C(=O)C21[H]

$$$$
23:0:0
     RDKit          3D

 78 84  0  0  1  0  0  0  0  0999 V2000
    2.2915    5.2932    3.4818 C   0  0  0  0  0  0  0  0  0  0  0  0
    1.5369    4.0402    3.9635 C   0  0  2  0  0  0  0  0  0  0  0  0
    0.8154    4.2803    5.2995 C   0  0  0  0  0  0  0  0  0  0  0  0
    0.4045    2.9768    6.0047 C   0  0  0  0  0  0  0  0  0  0  0  0
    0.1744    1.7733    5.0543 C   0  0  1  0  0  0  0  0  0  0  0  0
   -1.1787    1.8944    4.2306 C   0  0  1  0  0  0  0  0  0  0  0  0
   -2.2815    2.7922    4.8389 C   0  0  0  0  0  0  0  0  0  0  0  0
   -1.0682    2.1634    2.6989 C   0  0  0  0  0  0  0  0  0  0  0  0
    0.1580    1.5549    1.9834 C   0  0  0  0  0  0  0  0  0  0  0  0
    0.9429    0.6629    2.9326 C   0  0  1  0  0  0  0  0  0  0  0  0
    1.9044   -0.3812    2.3247 C   0  0  1  0  0  0  0  0  0  0  0  0
    3.1358    0.2411    1.6274 C   0  0  0  0  0  0  0  0  0  0  0  0
    2.1805   -1.4334    3.4537 C   0  0  1  0  0  0  0  0  0  0  0  0
    3.7640   -2.3137    3.2587 S   0  0  0  0  0  0  0  0  0  0  0  0
    3.2276   -3.9121    2.5772 C   0  0  2  0  0  0  0  0  0  0  0  0
    3.2510   -5.0368    3.5898 C   0  0  0  0  0  0  0  0  0  0  0  0
    3.3492   -6.2674    2.6826 C   0  0  1  0  0  0  0  0  0  0  0  0
    1.9842   -6.7432    2.3001 N   0  0  0  0  0  0  0  0  0  0  0  0
    1.2246   -6.3109    1.2752 C   0  0  0  0  0  0  0  0  0  0  0  0
    0.0138   -6.8574    1.1757 N   0  0  0  0  0  0  0  0  0  0  0  0
    0.0373   -7.7868    2.2084 C   0  0  0  0  0  0  0  0  0  0  0  0
   -0.9771   -8.7743    2.6462 C   0  0  0  0  0  0  0  0  0  0  0  0
   -2.0633   -8.9373    2.0987 O   0  0  0  0  0  0  0  0  0  0  0  0
   -0.5833   -9.4595    3.7443 N   0  0  0  0  0  0  0  0  0  0  0  0
    0.6567   -9.2977    4.3961 C   0  0  0  0  0  0  0  0  0  0  0  0
    1.5811   -8.4484    4.0348 N   0  0  0  0  0  0  0  0  0  0  0  0
    1.2089   -7.7227    2.9225 C   0  0  0  0  0  0  0  0  0  0  0  0
    4.0007   -5.8553    1.5100 O   0  0  0  0  0  0  0  0  0  0  0  0
    4.1806   -4.4369    1.5017 C   0  0  1  0  0  0  0  0  0  0  0  0
    3.8873   -3.8516    0.1053 C   0  0  0  0  0  0  0  0  0  0  0  0
    5.0513   -3.8329   -0.6917 O   0  0  0  0  0  0  0  0  0  0  0  0
    1.9571   -0.8957    4.7708 O   0  0  0  0  0  0  0  0  0  0  0  0
    2.4306    0.4048    4.8837 C   0  0  2  0  0  0  0  0  0  0  0  0
    2.6965    0.8172    6.1769 O   0  0  0  0  0  0  0  0  0  0  0  0
    3.5944    1.9310    6.2026 C   0  0  0  0  0  0  0  0  0  0  0  0
    3.6093    2.8000    4.9109 C   0  0  0  0  0  0  0  0  0  0  0  0
    2.3591    2.7220    3.9660 C   0  0  1  0  0  0  0  0  0  0  0  0
    1.4651    1.4322    4.1934 C   0  0  2  0  0  0  0  0  0  0  0  0
   -1.2344  -10.1236    4.1574 H   0  0  0  0  0  0  0  0  0  0  0  0
    3.0344    5.6351    4.2004 H   0  0  0  0  0  0  0  0  0  0  0  0
    1.5938    6.1184    3.3271 H   0  0  0  0  0  0  0  0  0  0  0  0
    2.7925    5.1162    2.5287 H   0  0  0  0  0  0  0  0  0  0  0  0
    0.7670    3.9217    3.2123 H   0  0  0  0  0  0  0  0  0  0  0  0
    1.4429    4.8668    5.9737 H   0  0  0  0  0  0  0  0  0  0  0  0
   -0.0673    4.8877    5.1121 H   0  0  0  0  0  0  0  0  0  0  0  0
    1.1900    2.7141    6.7033 H   0  0  0  0  0  0  0  0  0  0  0  0
   -0.4484    3.1473    6.6599 H   0  0  0  0  0  0  0  0  0  0  0  0
    0.0191    0.9166    5.7127 H   0  0  0  0  0  0  0  0  0  0  0  0
   -1.6117    0.8944    4.2882 H   0  0  0  0  0  0  0  0  0  0  0  0
   -2.0387    3.8533    4.7791 H   0  0  0  0  0  0  0  0  0  0  0  0
   -2.4789    2.5452    5.8827 H   0  0  0  0  0  0  0  0  0  0  0  0
   -3.2183    2.6621    4.2964 H   0  0  0  0  0  0  0  0  0  0  0  0
   -1.9551    1.7388    2.2321 H   0  0  0  0  0  0  0  0  0  0  0  0
   -1.1438    3.2289    2.4819 H   0  0  0  0  0  0  0  0  0  0  0  0
   -0.1629    0.9835    1.1123 H   0  0  0  0  0  0  0  0  0  0  0  0
    0.8110    2.3356    1.6024 H   0  0  0  0  0  0  0  0  0  0  0  0
    0.1761   -0.0203    3.2981 H   0  0  0  0  0  0  0  0  0  0  0  0
    1.3670   -0.9080    1.5353 H   0  0  0  0  0  0  0  0  0  0  0  0
    3.8383    0.6969    2.3234 H   0  0  0  0  0  0  0  0  0  0  0  0
    2.8195    1.0128    0.9270 H   0  0  0  0  0  0  0  0  0  0  0  0
    3.6828   -0.5018    1.0443 H   0  0  0  0  0  0  0  0  0  0  0  0
    1.4066   -2.1934    3.3845 H   0  0  0  0  0  0  0  0  0  0  0  0
    2.2336   -3.8171    2.1439 H   0  0  0  0  0  0  0  0  0  0  0  0
    4.1495   -4.9881    4.2043 H   0  0  0  0  0  0  0  0  0  0  0  0
    2.3793   -5.0738    4.2406 H   0  0  0  0  0  0  0  0  0  0  0  0
    3.8236   -7.1335    3.1414 H   0  0  0  0  0  0  0  0  0  0  0  0
    1.5483   -5.5463    0.5846 H   0  0  0  0  0  0  0  0  0  0  0  0
    0.7626   -9.9570    5.2586 H   0  0  0  0  0  0  0  0  0  0  0  0
    5.2058   -4.2268    1.8087 H   0  0  0  0  0  0  0  0  0  0  0  0
    3.0995   -4.4006   -0.4098 H   0  0  0  0  0  0  0  0  0  0  0  0
    3.5411   -2.8207    0.1908 H   0  0  0  0  0  0  0  0  0  0  0  0
    5.7021   -3.3025   -0.2546 H   0  0  0  0  0  0  0  0  0  0  0  0
    3.4099    0.3517    4.4024 H   0  0  0  0  0  0  0  0  0  0  0  0
    3.3753    2.5356    7.0816 H   0  0  0  0  0  0  0  0  0  0  0  0
    4.6028    1.5478    6.3657 H   0  0  0  0  0  0  0  0  0  0  0  0
    3.8657    3.8239    5.1746 H   0  0  0  0  0  0  0  0  0  0  0  0
    4.4588    2.4465    4.3242 H   0  0  0  0  0  0  0  0  0  0  0  0
    2.7745    2.6517    2.9622 H   0  0  0  0  0  0  0  0  0  0  0  0
  1  2  1  0
  1 40  1  0
  1 41  1  0
  1 42  1  0
  2 37  1  0
  2  3  1  0
  2 43  1  6
  3  4  1  0
  3 44  1  0
  3 45  1  0
  4  5  1  0
  4 46  1  0
  4 47  1  0
  5 38  1  0
  5  6  1  0
  5 48  1  1
  6  7  1  0
  6  8  1  0
  6 49  1  6
  7 50  1  0
  7 51  1  0
  7 52  1  0
  8  9  1  0
  8 53  1  0
  8 54  1  0
  9 10  1  0
  9 55  1  0
  9 56  1  0
 10 38  1  0
 10 11  1  0
 10 57  1  1
 11 12  1  0
 11 13  1  0
 11 58  1  6
 12 59  1  0
 12 60  1  0
 12 61  1  0
 13 14  1  0
 13 32  1  0
 13 62  1  6
 14 15  1  0
 15 29  1  0
 15 16  1  0
 15 63  1  6
 16 17  1  0
 16 64  1  0
 16 65  1  0
 17 18  1  0
 17 28  1  0
 17 66  1  1
 18 27  1  0
 18 19  1  0
 19 20  2  0
 19 67  1  0
 20 21  1  0
 21 27  2  0
 21 22  1  0
 22 23  2  0
 22 24  1  0
 24 39  1  0
 24 25  1  0
 25 26  2  0
 25 68  1  0
 26 27  1  0
 28 29  1  0
 29 30  1  0
 29 69  1  1
 30 31  1  0
 30 70  1  0
 30 71  1  0
 31 72  1  0
 32 33  1  0
 38 33  1  1
 33 34  1  0
 33 73  1  6
 34 35  1  0
 35 36  1  0
 35 74  1  0
 35 75  1  0
 36 37  1  0
 36 76  1  0
 36 77  1  0
 37 38  1  0
 37 78  1  6
M  END
>  <i_m_ct_stereo_status>  (78) 
1

>  <s_m_source_file>  (78) 
/var/tmp/pbs.5076255.sched01/tmpmzpp47sj/0ood7iq68.sdf

>  <i_m_source_file_index>  (78) 
38

>  <i_lp_mmshare_version>  (78) 
48012

>  <i_f3d_flags>  (78) 
0

>  <s_epik_input>  (78) 
W0NAQF0xMjNbQ0BIXTRbQ0gyXVtDSDJdW0NAQEhdKFtDSDNdKVtDQEhdM1tDSDJdW0NIMl1PW0NASF0yT1tDQEBIXShbQ0BIXShbQ0gzXSlbQ0BASF0xW0NIMl1bQ0gyXVtDQEBIXTRbQ0gzXSlTW0NAQEhdNVtDSDJdW0NASF0oT1tDQEhdNVtDSDJdW09IXSluKFtjSF1uNiljKGM2NyluW2NIXVtuSF1jNz1P

>  <s_epik_cmdline>  (78) 
J2VwaWtfcHl0aG9uJywgJy1waHQnLCAnMi4wJywgJy1waCcsICc3LjAnLCAnLXRuJywgJzgnLCAnLW1hJywgJzIwMCcsICctaW1hZScsICc8aW5maWxlLm1hZT4nLCAnLW9tYWUnLCAnPG91dGZpbGUubWFlPic=

>  <r_lp_tautomer_probability>  (78) 
0.85571

>  <r_epik_Ionization_Penalty>  (78) 
0.00815189

>  <r_epik_Ionization_Penalty_Charging>  (78) 
0.00808559

>  <r_epik_Ionization_Penalty_Neutral>  (78) 
6.62943e-05

>  <r_epik_State_Penalty>  (78) 
0.0826172

>  <r_epik_Charging_Adjusted_Penalty>  (78) 
0.0907028

>  <i_epik_Tot_Q>  (78) 
0

>  <i_epik_Tot_abs_Q>  (78) 
0

>  <s_epik_Chemistry_Notes>  (78) 
This compound contains an acetal/aminal-like group ( X-CH(R)-Y where X, Y are N, S, or O) that may be acid/base labile, releasing an aldehyde.

>  <s_lp_Force_Field>  (78) 
OPLS3e

>  <r_lp_Energy>  (78) 
100.902

>  <b_lp_Chiralities_Consistent>  (78) 
1

>  <s_lp_Variant>  (78) 
23:0-1

>  <s_i_glide_gridfile>  (78) 
pfpi4k_grid

>  <i_i_glide_lignum>  (78) 
38

>  <i_i_glide_rotatable_bonds>  (78) 
5

>  <r_i_docking_score>  (78) 
-3.06081

>  <r_i_glide_ligand_efficiency>  (78) 
-0.0805478

>  <r_i_glide_ligand_efficiency_sa>  (78) 
-0.2708

>  <r_i_glide_ligand_efficiency_ln>  (78) 
-0.660002

>  <r_i_glide_gscore>  (78) 
-3.06081

>  <r_i_glide_lipo>  (78) 
-0.08467

>  <r_i_glide_hbond>  (78) 
-0.234564

>  <r_i_glide_metal>  (78) 
-0

>  <r_i_glide_rewards>  (78) 
0

>  <r_i_glide_evdw>  (78) 
-33.7419

>  <r_i_glide_ecoul>  (78) 
-7.27878

>  <r_i_glide_erotb>  (78) 
0.279062

>  <r_i_glide_esite>  (78) 
-0.241729

>  <r_i_glide_emodel>  (78) 
-47.8037

>  <r_i_glide_energy>  (78) 
-41.0207

>  <r_i_glide_einternal>  (78) 
2.93115

>  <r_i_glide_intrahb_reward>  (78) 
-0

>  <i_i_glide_confnum>  (78) 
2

>  <i_i_glide_posenum>  (78) 
12

>  <r_i_glide_eff_state_penalty>  (78) 
0

>  <ligand_id>  (78) 
23

>  <original_smiles>  (78) 
CC1CCC2C(C)CCC3C(C)C(SC4CC(n5cnc6c(=O)[nH]cnc65)OC4CO)OC4OCCC1C423

>  <smiles>  (78) 
[H]OC([H])([H])C1([H])OC([H])(n2c([H])nc3c(=O)n([H])c([H])nc32)C([H])([H])C1([H])SC1([H])OC2([H])OC([H])([H])C([H])([H])C3([H])C([H])(C([H])([H])[H])C([H])([H])C([H])([H])C4([H])C([H])(C([H])([H])[H])C([H])([H])C([H])([H])C([H])(C1([H])C([H])([H])[H])C234

$$$$
23:0:1
     RDKit          3D

 78 84  0  0  1  0  0  0  0  0999 V2000
    2.3781    5.2665    3.5264 C   0  0  0  0  0  0  0  0  0  0  0  0
    1.6583    3.9973    4.0161 C   0  0  2  0  0  0  0  0  0  0  0  0
    0.9977    4.2047    5.3877 C   0  0  0  0  0  0  0  0  0  0  0  0
    0.6324    2.8853    6.0862 C   0  0  0  0  0  0  0  0  0  0  0  0
    0.3823    1.6907    5.1307 C   0  0  1  0  0  0  0  0  0  0  0  0
   -1.0038    1.8062    4.3623 C   0  0  1  0  0  0  0  0  0  0  0  0
   -2.0911    2.6760    5.0315 C   0  0  0  0  0  0  0  0  0  0  0  0
   -0.9562    2.0996    2.8308 C   0  0  0  0  0  0  0  0  0  0  0  0
    0.2415    1.5122    2.0568 C   0  0  0  0  0  0  0  0  0  0  0  0
    1.0845    0.6252    2.9624 C   0  0  1  0  0  0  0  0  0  0  0  0
    2.0356   -0.3961    2.3025 C   0  0  1  0  0  0  0  0  0  0  0  0
    3.2253    0.2529    1.5656 C   0  0  0  0  0  0  0  0  0  0  0  0
    2.3741   -1.4586    3.4068 C   0  0  1  0  0  0  0  0  0  0  0  0
    3.9734   -2.3003    3.1524 S   0  0  0  0  0  0  0  0  0  0  0  0
    3.4191   -3.9498    2.6204 C   0  0  2  0  0  0  0  0  0  0  0  0
    3.2957   -4.9496    3.7563 C   0  0  0  0  0  0  0  0  0  0  0  0
    3.4128   -6.2858    3.0160 C   0  0  1  0  0  0  0  0  0  0  0  0
    2.0649   -6.7542    2.5685 N   0  0  0  0  0  0  0  0  0  0  0  0
    1.3562   -6.3310    1.4995 C   0  0  0  0  0  0  0  0  0  0  0  0
    0.1541   -6.8763    1.3523 N   0  0  0  0  0  0  0  0  0  0  0  0
    0.1223   -7.7954    2.3940 C   0  0  0  0  0  0  0  0  0  0  0  0
   -0.9172   -8.7677    2.7992 C   0  0  0  0  0  0  0  0  0  0  0  0
   -1.9738   -8.9246    2.2034 O   0  0  0  0  0  0  0  0  0  0  0  0
   -0.5834   -9.4535    3.9097 N   0  0  0  0  0  0  0  0  0  0  0  0
    0.6262   -9.2912    4.6245 C   0  0  0  0  0  0  0  0  0  0  0  0
    1.5732   -8.4485    4.2917 N   0  0  0  0  0  0  0  0  0  0  0  0
    1.2627   -7.7238    3.1535 C   0  0  0  0  0  0  0  0  0  0  0  0
    4.1712   -6.0436    1.8656 O   0  0  0  0  0  0  0  0  0  0  0  0
    4.4211   -4.6456    1.6981 C   0  0  1  0  0  0  0  0  0  0  0  0
    4.2824   -4.2480    0.2141 C   0  0  0  0  0  0  0  0  0  0  0  0
    4.8240   -2.9627   -0.0203 O   0  0  0  0  0  0  0  0  0  0  0  0
    2.1820   -0.9407    4.7362 O   0  0  0  0  0  0  0  0  0  0  0  0
    2.6498    0.3624    4.8482 C   0  0  2  0  0  0  0  0  0  0  0  0
    2.9635    0.7595    6.1346 O   0  0  0  0  0  0  0  0  0  0  0  0
    3.8428    1.8890    6.1472 C   0  0  0  0  0  0  0  0  0  0  0  0
    3.7908    2.7755    4.8650 C   0  0  0  0  0  0  0  0  0  0  0  0
    2.4994    2.6919    3.9738 C   0  0  1  0  0  0  0  0  0  0  0  0
    1.6409    1.3836    4.2124 C   0  0  2  0  0  0  0  0  0  0  0  0
   -1.2492  -10.1199    4.2997 H   0  0  0  0  0  0  0  0  0  0  0  0
    3.1448    5.6127    4.2188 H   0  0  0  0  0  0  0  0  0  0  0  0
    1.6629    6.0827    3.4123 H   0  0  0  0  0  0  0  0  0  0  0  0
    2.8425    5.1133    2.5511 H   0  0  0  0  0  0  0  0  0  0  0  0
    0.8620    3.8743    3.2910 H   0  0  0  0  0  0  0  0  0  0  0  0
    1.6407    4.7963    6.0467 H   0  0  0  0  0  0  0  0  0  0  0  0
    0.0981    4.7938    5.2459 H   0  0  0  0  0  0  0  0  0  0  0  0
    1.4495    2.6279    6.7465 H   0  0  0  0  0  0  0  0  0  0  0  0
   -0.1924    3.0299    6.7833 H   0  0  0  0  0  0  0  0  0  0  0  0
    0.2691    0.8233    5.7819 H   0  0  0  0  0  0  0  0  0  0  0  0
   -1.4196    0.7972    4.4280 H   0  0  0  0  0  0  0  0  0  0  0  0
   -1.8754    3.7424    4.9798 H   0  0  0  0  0  0  0  0  0  0  0  0
   -2.2454    2.4117    6.0771 H   0  0  0  0  0  0  0  0  0  0  0  0
   -3.0458    2.5454    4.5253 H   0  0  0  0  0  0  0  0  0  0  0  0
   -1.8500    1.6590    2.3999 H   0  0  0  0  0  0  0  0  0  0  0  0
   -1.0666    3.1658    2.6059 H   0  0  0  0  0  0  0  0  0  0  0  0
   -0.1074    0.9449    1.1908 H   0  0  0  0  0  0  0  0  0  0  0  0
    0.8587    2.3122    1.6665 H   0  0  0  0  0  0  0  0  0  0  0  0
    0.3441   -0.0727    3.3493 H   0  0  0  0  0  0  0  0  0  0  0  0
    1.4723   -0.9196    1.5304 H   0  0  0  0  0  0  0  0  0  0  0  0
    3.9469    0.7068    2.2397 H   0  0  0  0  0  0  0  0  0  0  0  0
    2.8678    1.0290    0.8922 H   0  0  0  0  0  0  0  0  0  0  0  0
    3.7560   -0.4731    0.9487 H   0  0  0  0  0  0  0  0  0  0  0  0
    1.6108   -2.2320    3.3499 H   0  0  0  0  0  0  0  0  0  0  0  0
    2.4686   -3.8585    2.0959 H   0  0  0  0  0  0  0  0  0  0  0  0
    4.1400   -4.8567    4.4404 H   0  0  0  0  0  0  0  0  0  0  0  0
    2.3672   -4.8736    4.3197 H   0  0  0  0  0  0  0  0  0  0  0  0
    3.8097   -7.1063    3.6219 H   0  0  0  0  0  0  0  0  0  0  0  0
    1.7164   -5.5726    0.8207 H   0  0  0  0  0  0  0  0  0  0  0  0
    0.6898   -9.9492    5.4861 H   0  0  0  0  0  0  0  0  0  0  0  0
    5.4398   -4.4750    2.0526 H   0  0  0  0  0  0  0  0  0  0  0  0
    4.8117   -4.9557   -0.4234 H   0  0  0  0  0  0  0  0  0  0  0  0
    3.2395   -4.2562   -0.1016 H   0  0  0  0  0  0  0  0  0  0  0  0
    5.7174   -2.9558    0.2822 H   0  0  0  0  0  0  0  0  0  0  0  0
    3.6108    0.3309    4.3283 H   0  0  0  0  0  0  0  0  0  0  0  0
    3.6530    2.4755    7.0467 H   0  0  0  0  0  0  0  0  0  0  0  0
    4.8645    1.5215    6.2544 H   0  0  0  0  0  0  0  0  0  0  0  0
    4.0431    3.8013    5.1325 H   0  0  0  0  0  0  0  0  0  0  0  0
    4.6030    2.4268    4.2383 H   0  0  0  0  0  0  0  0  0  0  0  0
    2.8812    2.6429    2.9585 H   0  0  0  0  0  0  0  0  0  0  0  0
  1  2  1  0
  1 40  1  0
  1 41  1  0
  1 42  1  0
  2 37  1  0
  2  3  1  0
  2 43  1  6
  3  4  1  0
  3 44  1  0
  3 45  1  0
  4  5  1  0
  4 46  1  0
  4 47  1  0
  5 38  1  0
  5  6  1  0
  5 48  1  1
  6  7  1  0
  6  8  1  0
  6 49  1  6
  7 50  1  0
  7 51  1  0
  7 52  1  0
  8  9  1  0
  8 53  1  0
  8 54  1  0
  9 10  1  0
  9 55  1  0
  9 56  1  0
 10 38  1  0
 10 11  1  0
 10 57  1  1
 11 12  1  0
 11 13  1  0
 11 58  1  6
 12 59  1  0
 12 60  1  0
 12 61  1  0
 13 14  1  0
 13 32  1  0
 13 62  1  6
 14 15  1  0
 15 29  1  0
 15 16  1  0
 15 63  1  6
 16 17  1  0
 16 64  1  0
 16 65  1  0
 17 18  1  0
 17 28  1  0
 17 66  1  1
 18 27  1  0
 18 19  1  0
 19 20  2  0
 19 67  1  0
 20 21  1  0
 21 27  2  0
 21 22  1  0
 22 23  2  0
 22 24  1  0
 24 39  1  0
 24 25  1  0
 25 26  2  0
 25 68  1  0
 26 27  1  0
 28 29  1  0
 29 30  1  0
 29 69  1  1
 30 31  1  0
 30 70  1  0
 30 71  1  0
 31 72  1  0
 32 33  1  0
 38 33  1  1
 33 34  1  0
 33 73  1  6
 34 35  1  0
 35 36  1  0
 35 74  1  0
 35 75  1  0
 36 37  1  0
 36 76  1  0
 36 77  1  0
 37 38  1  0
 37 78  1  6
M  END
>  <i_m_ct_stereo_status>  (79) 
1

>  <s_m_source_file>  (79) 
/var/tmp/pbs.5076255.sched01/tmpmzpp47sj/0ood7iq68.sdf

>  <i_m_source_file_index>  (79) 
38

>  <i_lp_mmshare_version>  (79) 
48012

>  <i_f3d_flags>  (79) 
0

>  <s_epik_input>  (79) 
W0NAQF0xMjNbQ0BIXTRbQ0gyXVtDSDJdW0NAQEhdKFtDSDNdKVtDQEhdM1tDSDJdW0NIMl1PW0NASF0yT1tDQEBIXShbQ0BIXShbQ0gzXSlbQ0BASF0xW0NIMl1bQ0gyXVtDQEBIXTRbQ0gzXSlTW0NAQEhdNVtDSDJdW0NASF0oT1tDQEhdNVtDSDJdW09IXSluKFtjSF1uNiljKGM2NyluW2NIXVtuSF1jNz1P

>  <s_epik_cmdline>  (79) 
J2VwaWtfcHl0aG9uJywgJy1waHQnLCAnMi4wJywgJy1waCcsICc3LjAnLCAnLXRuJywgJzgnLCAnLW1hJywgJzIwMCcsICctaW1hZScsICc8aW5maWxlLm1hZT4nLCAnLW9tYWUnLCAnPG91dGZpbGUubWFlPic=

>  <r_lp_tautomer_probability>  (79) 
0.85571

>  <r_epik_Ionization_Penalty>  (79) 
0.00815189

>  <r_epik_Ionization_Penalty_Charging>  (79) 
0.00808559

>  <r_epik_Ionization_Penalty_Neutral>  (79) 
6.62943e-05

>  <r_epik_State_Penalty>  (79) 
0.0826172

>  <r_epik_Charging_Adjusted_Penalty>  (79) 
0.0907028

>  <i_epik_Tot_Q>  (79) 
0

>  <i_epik_Tot_abs_Q>  (79) 
0

>  <s_epik_Chemistry_Notes>  (79) 
This compound contains an acetal/aminal-like group ( X-CH(R)-Y where X, Y are N, S, or O) that may be acid/base labile, releasing an aldehyde.

>  <s_lp_Force_Field>  (79) 
OPLS3e

>  <r_lp_Energy>  (79) 
100.902

>  <b_lp_Chiralities_Consistent>  (79) 
1

>  <s_lp_Variant>  (79) 
23:0-1

>  <s_i_glide_gridfile>  (79) 
pfpi4k_grid

>  <i_i_glide_lignum>  (79) 
38

>  <i_i_glide_rotatable_bonds>  (79) 
5

>  <r_i_docking_score>  (79) 
-3.03085

>  <r_i_glide_ligand_efficiency>  (79) 
-0.0797592

>  <r_i_glide_ligand_efficiency_sa>  (79) 
-0.268149

>  <r_i_glide_ligand_efficiency_ln>  (79) 
-0.65354

>  <r_i_glide_gscore>  (79) 
-3.03085

>  <r_i_glide_lipo>  (79) 
-0.102575

>  <r_i_glide_hbond>  (79) 
-0.206021

>  <r_i_glide_metal>  (79) 
-0

>  <r_i_glide_rewards>  (79) 
0

>  <r_i_glide_evdw>  (79) 
-31.5813

>  <r_i_glide_ecoul>  (79) 
-7.94375

>  <r_i_glide_erotb>  (79) 
0.279062

>  <r_i_glide_esite>  (79) 
-0.230689

>  <r_i_glide_emodel>  (79) 
-46.4871

>  <r_i_glide_energy>  (79) 
-39.525

>  <r_i_glide_einternal>  (79) 
2.29026

>  <r_i_glide_intrahb_reward>  (79) 
-0

>  <i_i_glide_confnum>  (79) 
2

>  <i_i_glide_posenum>  (79) 
7

>  <r_i_glide_eff_state_penalty>  (79) 
0

>  <ligand_id>  (79) 
23

>  <original_smiles>  (79) 
CC1CCC2C(C)CCC3C(C)C(SC4CC(n5cnc6c(=O)[nH]cnc65)OC4CO)OC4OCCC1C423

>  <smiles>  (79) 
[H]OC([H])([H])C1([H])OC([H])(n2c([H])nc3c(=O)n([H])c([H])nc32)C([H])([H])C1([H])SC1([H])OC2([H])OC([H])([H])C([H])([H])C3([H])C([H])(C([H])([H])[H])C([H])([H])C([H])([H])C4([H])C([H])(C([H])([H])[H])C([H])([H])C([H])([H])C([H])(C1([H])C([H])([H])[H])C234

$$$$
23:0:2
     RDKit          3D

 78 84  0  0  1  0  0  0  0  0999 V2000
   -0.8660    4.9611    3.5194 C   0  0  0  0  0  0  0  0  0  0  0  0
   -0.3611    3.7969    4.3838 C   0  0  2  0  0  0  0  0  0  0  0  0
   -0.2365    4.1934    5.8627 C   0  0  0  0  0  0  0  0  0  0  0  0
    0.6321    3.2168    6.6681 C   0  0  0  0  0  0  0  0  0  0  0  0
    0.6994    1.7788    6.0972 C   0  0  1  0  0  0  0  0  0  0  0  0
   -0.6424    0.9644    6.3502 C   0  0  1  0  0  0  0  0  0  0  0  0
   -1.5187    1.4548    7.5260 C   0  0  0  0  0  0  0  0  0  0  0  0
   -1.5455    0.6570    5.1141 C   0  0  0  0  0  0  0  0  0  0  0  0
   -0.8141    0.4174    3.7778 C   0  0  0  0  0  0  0  0  0  0  0  0
    0.6963    0.4095    3.9913 C   0  0  1  0  0  0  0  0  0  0  0  0
    1.5784   -0.2372    2.9093 C   0  0  1  0  0  0  0  0  0  0  0  0
    1.5841    0.5832    1.6072 C   0  0  0  0  0  0  0  0  0  0  0  0
    2.9770   -0.5412    3.5735 C   0  0  1  0  0  0  0  0  0  0  0  0
    4.3934   -0.5748    2.4050 S   0  0  0  0  0  0  0  0  0  0  0  0
    4.2483   -2.2673    1.7598 C   0  0  2  0  0  0  0  0  0  0  0  0
    5.1166   -3.2897    2.4915 C   0  0  0  0  0  0  0  0  0  0  0  0
    5.2280   -4.4245    1.4647 C   0  0  1  0  0  0  0  0  0  0  0  0
    4.1252   -5.4468    1.6532 N   0  0  0  0  0  0  0  0  0  0  0  0
    2.8137   -5.2352    1.9374 C   0  0  0  0  0  0  0  0  0  0  0  0
    2.0574   -6.3175    2.0361 N   0  0  0  0  0  0  0  0  0  0  0  0
    2.9725   -7.3276    1.8017 C   0  0  0  0  0  0  0  0  0  0  0  0
    2.7739   -8.7927    1.8201 C   0  0  0  0  0  0  0  0  0  0  0  0
    1.6983   -9.3180    2.0802 O   0  0  0  0  0  0  0  0  0  0  0  0
    3.9051   -9.4677    1.5263 N   0  0  0  0  0  0  0  0  0  0  0  0
    5.1540   -8.8615    1.2806 C   0  0  0  0  0  0  0  0  0  0  0  0
    5.3680   -7.5624    1.2807 N   0  0  0  0  0  0  0  0  0  0  0  0
    4.2286   -6.8394    1.5499 C   0  0  0  0  0  0  0  0  0  0  0  0
    5.0621   -3.8413    0.2097 O   0  0  0  0  0  0  0  0  0  0  0  0
    4.7202   -2.4486    0.3119 C   0  0  1  0  0  0  0  0  0  0  0  0
    3.6284   -2.1291   -0.7251 C   0  0  0  0  0  0  0  0  0  0  0  0
    4.1870   -1.7053   -1.9534 O   0  0  0  0  0  0  0  0  0  0  0  0
    3.1912    0.2896    4.7291 O   0  0  0  0  0  0  0  0  0  0  0  0
    2.7982    1.5970    4.5012 C   0  0  2  0  0  0  0  0  0  0  0  0
    3.3950    2.5453    5.3011 O   0  0  0  0  0  0  0  0  0  0  0  0
    3.2942    3.8599    4.7473 C   0  0  0  0  0  0  0  0  0  0  0  0
    2.1304    4.0740    3.7361 C   0  0  0  0  0  0  0  0  0  0  0  0
    0.9139    3.1004    3.8530 C   0  0  1  0  0  0  0  0  0  0  0  0
    1.2311    1.7441    4.6021 C   0  0  2  0  0  0  0  0  0  0  0  0
    3.8454  -10.4793    1.4623 H   0  0  0  0  0  0  0  0  0  0  0  0
   -0.2384    5.8536    3.5835 H   0  0  0  0  0  0  0  0  0  0  0  0
   -1.8579    5.2176    3.8591 H   0  0  0  0  0  0  0  0  0  0  0  0
   -0.9858    4.6900    2.4967 H   0  0  0  0  0  0  0  0  0  0  0  0
   -1.1651    3.0794    4.3139 H   0  0  0  0  0  0  0  0  0  0  0  0
    0.1573    5.2040    5.9695 H   0  0  0  0  0  0  0  0  0  0  0  0
   -1.2357    4.2168    6.2990 H   0  0  0  0  0  0  0  0  0  0  0  0
    1.6402    3.6184    6.6870 H   0  0  0  0  0  0  0  0  0  0  0  0
    0.3612    3.2285    7.7229 H   0  0  0  0  0  0  0  0  0  0  0  0
    1.4502    1.2652    6.6984 H   0  0  0  0  0  0  0  0  0  0  0  0
   -0.2909   -0.0132    6.6816 H   0  0  0  0  0  0  0  0  0  0  0  0
   -2.0175    2.4014    7.3272 H   0  0  0  0  0  0  0  0  0  0  0  0
   -0.9499    1.5507    8.4520 H   0  0  0  0  0  0  0  0  0  0  0  0
   -2.3223    0.7561    7.7106 H   0  0  0  0  0  0  0  0  0  0  0  0
   -2.0834   -0.2642    5.3388 H   0  0  0  0  0  0  0  0  0  0  0  0
   -2.3309    1.3970    4.9848 H   0  0  0  0  0  0  0  0  0  0  0  0
   -1.1329   -0.5212    3.3314 H   0  0  0  0  0  0  0  0  0  0  0  0
   -1.0877    1.1964    3.0637 H   0  0  0  0  0  0  0  0  0  0  0  0
    0.8161   -0.3445    4.7701 H   0  0  0  0  0  0  0  0  0  0  0  0
    1.1355   -1.2009    2.6516 H   0  0  0  0  0  0  0  0  0  0  0  0
    2.1302    1.5249    1.6714 H   0  0  0  0  0  0  0  0  0  0  0  0
    0.5676    0.7929    1.2640 H   0  0  0  0  0  0  0  0  0  0  0  0
    2.0553    0.0169    0.8264 H   0  0  0  0  0  0  0  0  0  0  0  0
    2.9207   -1.5420    4.0059 H   0  0  0  0  0  0  0  0  0  0  0  0
    3.1888   -2.4839    1.8030 H   0  0  0  0  0  0  0  0  0  0  0  0
    6.1165   -2.8813    2.6565 H   0  0  0  0  0  0  0  0  0  0  0  0
    4.7247   -3.6496    3.4362 H   0  0  0  0  0  0  0  0  0  0  0  0
    6.1580   -4.9959    1.5250 H   0  0  0  0  0  0  0  0  0  0  0  0
    2.3484   -4.2766    2.1159 H   0  0  0  0  0  0  0  0  0  0  0  0
    5.9463   -9.5838    1.0853 H   0  0  0  0  0  0  0  0  0  0  0  0
    5.6065   -1.8374    0.1649 H   0  0  0  0  0  0  0  0  0  0  0  0
    2.9167   -2.9479   -0.8573 H   0  0  0  0  0  0  0  0  0  0  0  0
    3.0485   -1.2825   -0.3939 H   0  0  0  0  0  0  0  0  0  0  0  0
    3.4793   -1.3553   -2.4705 H   0  0  0  0  0  0  0  0  0  0  0  0
    3.1784    1.8109    3.4963 H   0  0  0  0  0  0  0  0  0  0  0  0
    3.2830    4.5918    5.5553 H   0  0  0  0  0  0  0  0  0  0  0  0
    4.2152    4.0611    4.1958 H   0  0  0  0  0  0  0  0  0  0  0  0
    1.8313    5.1204    3.7835 H   0  0  0  0  0  0  0  0  0  0  0  0
    2.5471    3.9546    2.7319 H   0  0  0  0  0  0  0  0  0  0  0  0
    0.6756    2.8502    2.8185 H   0  0  0  0  0  0  0  0  0  0  0  0
  1  2  1  0
  1 40  1  0
  1 41  1  0
  1 42  1  0
  2 37  1  0
  2  3  1  0
  2 43  1  1
  3  4  1  0
  3 44  1  0
  3 45  1  0
  4  5  1  0
  4 46  1  0
  4 47  1  0
  5 38  1  0
  5  6  1  0
  5 48  1  1
  6  7  1  0
  6  8  1  0
  6 49  1  1
  7 50  1  0
  7 51  1  0
  7 52  1  0
  8  9  1  0
  8 53  1  0
  8 54  1  0
  9 10  1  0
  9 55  1  0
  9 56  1  0
 10 38  1  0
 10 11  1  0
 10 57  1  1
 11 12  1  0
 11 13  1  0
 11 58  1  6
 12 59  1  0
 12 60  1  0
 12 61  1  0
 13 14  1  0
 13 32  1  0
 13 62  1  1
 14 15  1  0
 15 29  1  0
 15 16  1  0
 15 63  1  6
 16 17  1  0
 16 64  1  0
 16 65  1  0
 17 18  1  0
 17 28  1  0
 17 66  1  6
 18 27  1  0
 18 19  1  0
 19 20  2  0
 19 67  1  0
 20 21  1  0
 21 27  2  0
 21 22  1  0
 22 23  2  0
 22 24  1  0
 24 39  1  0
 24 25  1  0
 25 26  2  0
 25 68  1  0
 26 27  1  0
 28 29  1  0
 29 30  1  0
 29 69  1  6
 30 31  1  0
 30 70  1  0
 30 71  1  0
 31 72  1  0
 32 33  1  0
 38 33  1  1
 33 34  1  0
 33 73  1  6
 34 35  1  0
 35 36  1  0
 35 74  1  0
 35 75  1  0
 36 37  1  0
 36 76  1  0
 36 77  1  0
 37 38  1  0
 37 78  1  6
M  END
>  <i_m_ct_stereo_status>  (80) 
1

>  <s_m_source_file>  (80) 
/var/tmp/pbs.5076255.sched01/tmpmzpp47sj/0ood7iq68.sdf

>  <i_m_source_file_index>  (80) 
38

>  <i_lp_mmshare_version>  (80) 
48012

>  <i_f3d_flags>  (80) 
0

>  <s_epik_input>  (80) 
W0NAQF0xMjNbQ0BIXTRbQ0gyXVtDSDJdW0NAQEhdKFtDSDNdKVtDQEhdM1tDSDJdW0NIMl1PW0NASF0yT1tDQEBIXShbQ0BIXShbQ0gzXSlbQ0BASF0xW0NIMl1bQ0gyXVtDQEBIXTRbQ0gzXSlTW0NAQEhdNVtDSDJdW0NASF0oT1tDQEhdNVtDSDJdW09IXSluKFtjSF1uNiljKGM2NyluW2NIXVtuSF1jNz1P

>  <s_epik_cmdline>  (80) 
J2VwaWtfcHl0aG9uJywgJy1waHQnLCAnMi4wJywgJy1waCcsICc3LjAnLCAnLXRuJywgJzgnLCAnLW1hJywgJzIwMCcsICctaW1hZScsICc8aW5maWxlLm1hZT4nLCAnLW9tYWUnLCAnPG91dGZpbGUubWFlPic=

>  <r_lp_tautomer_probability>  (80) 
0.85571

>  <r_epik_Ionization_Penalty>  (80) 
0.00815189

>  <r_epik_Ionization_Penalty_Charging>  (80) 
0.00808559

>  <r_epik_Ionization_Penalty_Neutral>  (80) 
6.62943e-05

>  <r_epik_State_Penalty>  (80) 
0.0826172

>  <r_epik_Charging_Adjusted_Penalty>  (80) 
0.0907028

>  <i_epik_Tot_Q>  (80) 
0

>  <i_epik_Tot_abs_Q>  (80) 
0

>  <s_epik_Chemistry_Notes>  (80) 
This compound contains an acetal/aminal-like group ( X-CH(R)-Y where X, Y are N, S, or O) that may be acid/base labile, releasing an aldehyde.

>  <s_lp_Force_Field>  (80) 
OPLS3e

>  <r_lp_Energy>  (80) 
100.902

>  <b_lp_Chiralities_Consistent>  (80) 
1

>  <s_lp_Variant>  (80) 
23:0-1

>  <s_i_glide_gridfile>  (80) 
pfpi4k_grid

>  <i_i_glide_lignum>  (80) 
38

>  <i_i_glide_rotatable_bonds>  (80) 
5

>  <r_i_docking_score>  (80) 
-2.3608

>  <r_i_glide_ligand_efficiency>  (80) 
-0.0621264

>  <r_i_glide_ligand_efficiency_sa>  (80) 
-0.208868

>  <r_i_glide_ligand_efficiency_ln>  (80) 
-0.509059

>  <r_i_glide_gscore>  (80) 
-2.3608

>  <r_i_glide_lipo>  (80) 
-0.157525

>  <r_i_glide_hbond>  (80) 
-0.147791

>  <r_i_glide_metal>  (80) 
-0

>  <r_i_glide_rewards>  (80) 
-0.16915

>  <r_i_glide_evdw>  (80) 
-31.8033

>  <r_i_glide_ecoul>  (80) 
-3.1456

>  <r_i_glide_erotb>  (80) 
0.279062

>  <r_i_glide_esite>  (80) 
-0.103395

>  <r_i_glide_emodel>  (80) 
-39.0838

>  <r_i_glide_energy>  (80) 
-34.9489

>  <r_i_glide_einternal>  (80) 
3.08038

>  <r_i_glide_intrahb_reward>  (80) 
-0

>  <i_i_glide_confnum>  (80) 
2

>  <i_i_glide_posenum>  (80) 
16

>  <r_i_glide_eff_state_penalty>  (80) 
0

>  <ligand_id>  (80) 
23

>  <original_smiles>  (80) 
CC1CCC2C(C)CCC3C(C)C(SC4CC(n5cnc6c(=O)[nH]cnc65)OC4CO)OC4OCCC1C423

>  <smiles>  (80) 
[H]OC([H])([H])C1([H])OC([H])(n2c([H])nc3c(=O)n([H])c([H])nc32)C([H])([H])C1([H])SC1([H])OC2([H])OC([H])([H])C([H])([H])C3([H])C([H])(C([H])([H])[H])C([H])([H])C([H])([H])C4([H])C([H])(C([H])([H])[H])C([H])([H])C([H])([H])C([H])(C1([H])C([H])([H])[H])C234

$$$$
23:1:0
     RDKit          3D

 78 84  0  0  1  0  0  0  0  0999 V2000
    2.4327  -10.6721    5.6452 C   0  0  0  0  0  0  0  0  0  0  0  0
    1.8763   -9.5686    4.7346 C   0  0  2  0  0  0  0  0  0  0  0  0
    1.6908  -10.0607    3.2916 C   0  0  0  0  0  0  0  0  0  0  0  0
    1.5564   -8.9059    2.2901 C   0  0  0  0  0  0  0  0  0  0  0  0
    0.9792   -7.5948    2.8743 C   0  0  1  0  0  0  0  0  0  0  0  0
   -0.5791   -7.6911    3.1692 C   0  0  1  0  0  0  0  0  0  0  0  0
   -1.3808   -8.7320    2.3520 C   0  0  0  0  0  0  0  0  0  0  0  0
   -1.0286   -7.7245    4.6622 C   0  0  0  0  0  0  0  0  0  0  0  0
   -0.1657   -6.9194    5.6596 C   0  0  0  0  0  0  0  0  0  0  0  0
    0.9100   -6.1345    4.9180 C   0  0  1  0  0  0  0  0  0  0  0  0
    1.5722   -4.9423    5.6393 C   0  0  1  0  0  0  0  0  0  0  0  0
    2.4719   -5.3645    6.8229 C   0  0  0  0  0  0  0  0  0  0  0  0
    2.2211   -4.0463    4.5234 C   0  0  1  0  0  0  0  0  0  0  0  0
    3.6330   -3.0660    5.1158 S   0  0  0  0  0  0  0  0  0  0  0  0
    4.0336   -2.1604    3.5894 C   0  0  2  0  0  0  0  0  0  0  0  0
    5.1065   -2.8537    2.7791 C   0  0  0  0  0  0  0  0  0  0  0  0
    5.6853   -1.7014    1.9555 C   0  0  1  0  0  0  0  0  0  0  0  0
    4.9877   -1.6007    0.6374 N   0  0  0  0  0  0  0  0  0  0  0  0
    3.8068   -0.9814    0.3217 C   0  0  0  0  0  0  0  0  0  0  0  0
    3.4197   -1.0700   -0.9430 N   0  0  0  0  0  0  0  0  0  0  0  0
    4.4094   -1.8115   -1.5108 C   0  0  0  0  0  0  0  0  0  0  0  0
    4.5666   -2.2998   -2.9260 C   0  0  0  0  0  0  0  0  0  0  0  0
    3.7476   -1.9871   -3.7797 O   0  0  0  0  0  0  0  0  0  0  0  0
    5.6922   -3.0635   -3.0818 N   0  0  0  0  0  0  0  0  0  0  0  0
    6.6115   -3.2360   -2.0546 C   0  0  0  0  0  0  0  0  0  0  0  0
    6.5311   -2.8309   -0.8424 N   0  0  0  0  0  0  0  0  0  0  0  0
    5.3651   -2.1101   -0.5676 C   0  0  0  0  0  0  0  0  0  0  0  0
    5.4477   -0.5242    2.6711 O   0  0  0  0  0  0  0  0  0  0  0  0
    4.6765   -0.7920    3.8429 C   0  0  1  0  0  0  0  0  0  0  0  0
    3.6690    0.3502    4.0519 C   0  0  0  0  0  0  0  0  0  0  0  0
    3.0710    0.2448    5.3242 O   0  0  0  0  0  0  0  0  0  0  0  0
    2.4840   -4.8021    3.3274 O   0  0  0  0  0  0  0  0  0  0  0  0
    3.0003   -6.0596    3.6069 C   0  0  2  0  0  0  0  0  0  0  0  0
    3.7216   -6.6398    2.5812 O   0  0  0  0  0  0  0  0  0  0  0  0
    4.5847   -7.6798    3.0518 C   0  0  0  0  0  0  0  0  0  0  0  0
    4.1462   -8.3422    4.3932 C   0  0  0  0  0  0  0  0  0  0  0  0
    2.6338   -8.2151    4.7986 C   0  0  1  0  0  0  0  0  0  0  0  0
    1.8651   -7.0402    4.0689 C   0  0  2  0  0  0  0  0  0  0  0  0
    2.5280   -0.7607   -1.3377 H   0  0  0  0  0  0  0  0  0  0  0  0
    3.3884  -11.0739    5.3098 H   0  0  0  0  0  0  0  0  0  0  0  0
    1.7366  -11.5097    5.6654 H   0  0  0  0  0  0  0  0  0  0  0  0
    2.5433  -10.3335    6.6756 H   0  0  0  0  0  0  0  0  0  0  0  0
    0.8842   -9.3960    5.1374 H   0  0  0  0  0  0  0  0  0  0  0  0
    2.5142  -10.7102    2.9818 H   0  0  0  0  0  0  0  0  0  0  0  0
    0.7988  -10.6818    3.2475 H   0  0  0  0  0  0  0  0  0  0  0  0
    2.5382   -8.7090    1.8804 H   0  0  0  0  0  0  0  0  0  0  0  0
    1.0147   -9.2187    1.4117 H   0  0  0  0  0  0  0  0  0  0  0  0
    1.0641   -6.8672    2.0658 H   0  0  0  0  0  0  0  0  0  0  0  0
   -0.9676   -6.7458    2.7922 H   0  0  0  0  0  0  0  0  0  0  0  0
   -1.1738   -9.7622    2.6471 H   0  0  0  0  0  0  0  0  0  0  0  0
   -1.1911   -8.6447    1.2826 H   0  0  0  0  0  0  0  0  0  0  0  0
   -2.4531   -8.5927    2.4868 H   0  0  0  0  0  0  0  0  0  0  0  0
   -2.0267   -7.2939    4.6922 H   0  0  0  0  0  0  0  0  0  0  0  0
   -1.1794   -8.7466    5.0219 H   0  0  0  0  0  0  0  0  0  0  0  0
   -0.7874   -6.2404    6.2497 H   0  0  0  0  0  0  0  0  0  0  0  0
    0.2976   -7.5975    6.3700 H   0  0  0  0  0  0  0  0  0  0  0  0
    0.3189   -5.5728    4.1954 H   0  0  0  0  0  0  0  0  0  0  0  0
    0.7763   -4.3446    6.0855 H   0  0  0  0  0  0  0  0  0  0  0  0
    3.3848   -5.8651    6.5096 H   0  0  0  0  0  0  0  0  0  0  0  0
    1.9399   -6.0454    7.4871 H   0  0  0  0  0  0  0  0  0  0  0  0
    2.7632   -4.5039    7.4258 H   0  0  0  0  0  0  0  0  0  0  0  0
    1.4733   -3.3142    4.2138 H   0  0  0  0  0  0  0  0  0  0  0  0
    3.1399   -2.0356    2.9777 H   0  0  0  0  0  0  0  0  0  0  0  0
    5.8760   -3.2393    3.4413 H   0  0  0  0  0  0  0  0  0  0  0  0
    4.7508   -3.6718    2.1531 H   0  0  0  0  0  0  0  0  0  0  0  0
    6.7330   -1.8335    1.6839 H   0  0  0  0  0  0  0  0  0  0  0  0
    3.2212   -0.4586    1.0484 H   0  0  0  0  0  0  0  0  0  0  0  0
    7.4903   -3.7979   -2.3751 H   0  0  0  0  0  0  0  0  0  0  0  0
    5.3790   -0.8514    4.6785 H   0  0  0  0  0  0  0  0  0  0  0  0
    4.1677    1.3176    3.9802 H   0  0  0  0  0  0  0  0  0  0  0  0
    2.8955    0.3252    3.2852 H   0  0  0  0  0  0  0  0  0  0  0  0
    3.7517    0.2938    5.9771 H   0  0  0  0  0  0  0  0  0  0  0  0
    3.7418   -5.8670    4.3849 H   0  0  0  0  0  0  0  0  0  0  0  0
    4.7080   -8.4161    2.2553 H   0  0  0  0  0  0  0  0  0  0  0  0
    5.5748   -7.2481    3.1976 H   0  0  0  0  0  0  0  0  0  0  0  0
    4.4830   -9.3770    4.3965 H   0  0  0  0  0  0  0  0  0  0  0  0
    4.7279   -7.8619    5.1863 H   0  0  0  0  0  0  0  0  0  0  0  0
    2.6590   -7.9667    5.8551 H   0  0  0  0  0  0  0  0  0  0  0  0
  1  2  1  0
  1 40  1  0
  1 41  1  0
  1 42  1  0
  2 37  1  0
  2  3  1  0
  2 43  1  1
  3  4  1  0
  3 44  1  0
  3 45  1  0
  4  5  1  0
  4 46  1  0
  4 47  1  0
  5 38  1  0
  5  6  1  0
  5 48  1  6
  6  7  1  0
  6  8  1  0
  6 49  1  6
  7 50  1  0
  7 51  1  0
  7 52  1  0
  8  9  1  0
  8 53  1  0
  8 54  1  0
  9 10  1  0
  9 55  1  0
  9 56  1  0
 10 38  1  0
 10 11  1  0
 10 57  1  6
 11 12  1  0
 11 13  1  0
 11 58  1  1
 12 59  1  0
 12 60  1  0
 12 61  1  0
 13 14  1  0
 13 32  1  0
 13 62  1  6
 14 15  1  0
 15 29  1  0
 15 16  1  0
 15 63  1  6
 16 17  1  0
 16 64  1  0
 16 65  1  0
 17 28  1  0
 17 66  1  6
 17 18  1  0
 18 19  1  0
 18 27  1  0
 19 67  1  0
 19 20  2  0
 20 39  1  0
 20 21  1  0
 21 22  1  0
 21 27  2  0
 22 23  2  0
 22 24  1  0
 24 25  1  0
 25 68  1  0
 25 26  2  0
 26 27  1  0
 28 29  1  0
 29 30  1  0
 29 69  1  1
 30 31  1  0
 30 70  1  0
 30 71  1  0
 31 72  1  0
 32 33  1  0
 38 33  1  6
 33 34  1  0
 33 73  1  1
 34 35  1  0
 35 36  1  0
 35 74  1  0
 35 75  1  0
 36 37  1  0
 36 76  1  0
 36 77  1  0
 37 38  1  0
 37 78  1  1
M  CHG  2  20   1  24  -1
M  END
>  <i_m_ct_stereo_status>  (81) 
1

>  <s_m_source_file>  (81) 
/var/tmp/pbs.5076255.sched01/tmpmzpp47sj/0ood7iq68.sdf

>  <i_m_source_file_index>  (81) 
39

>  <i_lp_mmshare_version>  (81) 
48012

>  <i_f3d_flags>  (81) 
0

>  <s_epik_input>  (81) 
W0NAQF0xMjNbQ0BIXTRbQ0gyXVtDSDJdW0NAQEhdKFtDSDNdKVtDQEhdM1tDSDJdW0NIMl1PW0NASF0yT1tDQEBIXShbQ0BIXShbQ0gzXSlbQ0BASF0xW0NIMl1bQ0gyXVtDQEBIXTRbQ0gzXSlTW0NAQEhdNVtDSDJdW0NASF0oT1tDQEhdNVtDSDJdW09IXSluKFtjSF1uNiljKGM2NyluW2NIXVtuSF1jNz1P

>  <s_epik_cmdline>  (81) 
J2VwaWtfcHl0aG9uJywgJy1waHQnLCAnMi4wJywgJy1waCcsICc3LjAnLCAnLXRuJywgJzgnLCAnLW1hJywgJzIwMCcsICctaW1hZScsICc8aW5maWxlLm1hZT4nLCAnLW9tYWUnLCAnPG91dGZpbGUubWFlPic=

>  <r_lp_tautomer_probability>  (81) 
0.144281

>  <r_epik_Ionization_Penalty>  (81) 
5.66388

>  <r_epik_Ionization_Penalty_Charging>  (81) 
5.61493

>  <r_epik_Ionization_Penalty_Neutral>  (81) 
0.0489453

>  <r_epik_State_Penalty>  (81) 
1.20809

>  <r_epik_Charging_Adjusted_Penalty>  (81) 
6.82302

>  <i_epik_Tot_Q>  (81) 
0

>  <i_epik_Tot_abs_Q>  (81) 
2

>  <s_epik_Chemistry_Notes>  (81) 
This compound contains an acetal/aminal-like group ( X-CH(R)-Y where X, Y are N, S, or O) that may be acid/base labile, releasing an aldehyde.

>  <s_lp_Force_Field>  (81) 
OPLS3e

>  <r_lp_Energy>  (81) 
108.185

>  <b_lp_Chiralities_Consistent>  (81) 
1

>  <s_lp_Variant>  (81) 
23:0-2

>  <s_i_glide_gridfile>  (81) 
pfpi4k_grid

>  <i_i_glide_lignum>  (81) 
39

>  <i_i_glide_rotatable_bonds>  (81) 
5

>  <r_i_docking_score>  (81) 
-3.17973

>  <r_i_glide_ligand_efficiency>  (81) 
-0.0836772

>  <r_i_glide_ligand_efficiency_sa>  (81) 
-0.281321

>  <r_i_glide_ligand_efficiency_ln>  (81) 
-0.685644

>  <r_i_glide_gscore>  (81) 
-3.17973

>  <r_i_glide_lipo>  (81) 
-0.424388

>  <r_i_glide_hbond>  (81) 
-0.137607

>  <r_i_glide_metal>  (81) 
-0

>  <r_i_glide_rewards>  (81) 
-0.624989

>  <r_i_glide_evdw>  (81) 
-28.8168

>  <r_i_glide_ecoul>  (81) 
-4.6199

>  <r_i_glide_erotb>  (81) 
0.279062

>  <r_i_glide_esite>  (81) 
-0.137988

>  <r_i_glide_emodel>  (81) 
-41.7398

>  <r_i_glide_energy>  (81) 
-33.4367

>  <r_i_glide_einternal>  (81) 
0.684933

>  <r_i_glide_intrahb_reward>  (81) 
-0

>  <i_i_glide_confnum>  (81) 
1

>  <i_i_glide_posenum>  (81) 
30

>  <r_i_glide_eff_state_penalty>  (81) 
0

>  <ligand_id>  (81) 
23

>  <original_smiles>  (81) 
CC1CCC2C(C)CCC3C(C)C(SC4CC(n5cnc6c(=O)[nH]cnc65)OC4CO)OC4OCCC1C423

>  <smiles>  (81) 
[H]OC([H])([H])C1([H])OC([H])(n2c([H])[n+]([H])c3c(=O)[n-]c([H])nc32)C([H])([H])C1([H])SC1([H])OC2([H])OC([H])([H])C([H])([H])C3([H])C([H])(C([H])([H])[H])C([H])([H])C([H])([H])C4([H])C([H])(C([H])([H])[H])C([H])([H])C([H])([H])C([H])(C1([H])C([H])([H])[H])C234

$$$$
23:1:1
     RDKit          3D

 78 84  0  0  1  0  0  0  0  0999 V2000
    3.1094  -10.3270    5.1013 C   0  0  0  0  0  0  0  0  0  0  0  0
    2.3344   -9.2285    4.3566 C   0  0  2  0  0  0  0  0  0  0  0  0
    2.0785   -9.5946    2.8870 C   0  0  0  0  0  0  0  0  0  0  0  0
    1.6949   -8.3735    2.0327 C   0  0  0  0  0  0  0  0  0  0  0  0
    1.0010   -7.2260    2.8001 C   0  0  1  0  0  0  0  0  0  0  0  0
   -0.4953   -7.5753    3.2058 C   0  0  1  0  0  0  0  0  0  0  0  0
   -1.2177   -8.6345    2.3452 C   0  0  0  0  0  0  0  0  0  0  0  0
   -0.7868   -7.8226    4.7168 C   0  0  0  0  0  0  0  0  0  0  0  0
    0.0496   -7.0074    5.7291 C   0  0  0  0  0  0  0  0  0  0  0  0
    0.9281   -6.0019    4.9899 C   0  0  1  0  0  0  0  0  0  0  0  0
    1.4817   -4.7986    5.7836 C   0  0  1  0  0  0  0  0  0  0  0  0
    2.5424   -5.1955    6.8374 C   0  0  0  0  0  0  0  0  0  0  0  0
    1.8951   -3.7156    4.7232 C   0  0  1  0  0  0  0  0  0  0  0  0
    3.2132   -2.6074    5.3072 S   0  0  0  0  0  0  0  0  0  0  0  0
    3.6786   -1.8332    3.7330 C   0  0  2  0  0  0  0  0  0  0  0  0
    4.9155   -2.4645    3.1212 C   0  0  0  0  0  0  0  0  0  0  0  0
    5.4278   -1.3495    2.2027 C   0  0  1  0  0  0  0  0  0  0  0  0
    4.8655   -1.4679    0.8286 N   0  0  0  0  0  0  0  0  0  0  0  0
    3.6456   -1.0883    0.3515 C   0  0  0  0  0  0  0  0  0  0  0  0
    3.4204   -1.3549   -0.9394 N   0  0  0  0  0  0  0  0  0  0  0  0
    4.5826   -1.9584   -1.3360 C   0  0  0  0  0  0  0  0  0  0  0  0
    4.9578   -2.5127   -2.6716 C   0  0  0  0  0  0  0  0  0  0  0  0
    4.1716   -2.4115   -3.6050 O   0  0  0  0  0  0  0  0  0  0  0  0
    6.2037   -3.0688   -2.6701 N   0  0  0  0  0  0  0  0  0  0  0  0
    7.0122   -3.0553   -1.5413 C   0  0  0  0  0  0  0  0  0  0  0  0
    6.7429   -2.5866   -0.3797 N   0  0  0  0  0  0  0  0  0  0  0  0
    5.4569   -2.0214   -0.2824 C   0  0  0  0  0  0  0  0  0  0  0  0
    4.9899   -0.1385    2.7527 O   0  0  0  0  0  0  0  0  0  0  0  0
    4.1092   -0.3683    3.8586 C   0  0  1  0  0  0  0  0  0  0  0  0
    2.9818    0.6851    3.9059 C   0  0  0  0  0  0  0  0  0  0  0  0
    2.0479    0.4961    2.8682 O   0  0  0  0  0  0  0  0  0  0  0  0
    2.1475   -4.3104    3.4353 O   0  0  0  0  0  0  0  0  0  0  0  0
    2.8494   -5.5030    3.5331 C   0  0  2  0  0  0  0  0  0  0  0  0
    3.5415   -5.8654    2.3922 O   0  0  0  0  0  0  0  0  0  0  0  0
    4.5842   -6.8047    2.6816 C   0  0  0  0  0  0  0  0  0  0  0  0
    4.3693   -7.6535    3.9746 C   0  0  0  0  0  0  0  0  0  0  0  0
    2.8999   -7.7873    4.5128 C   0  0  1  0  0  0  0  0  0  0  0  0
    1.9104   -6.6735    3.9751 C   0  0  2  0  0  0  0  0  0  0  0  0
    2.5436   -1.1654   -1.4493 H   0  0  0  0  0  0  0  0  0  0  0  0
    4.0760  -10.5375    4.6438 H   0  0  0  0  0  0  0  0  0  0  0  0
    2.5437  -11.2611    5.0934 H   0  0  0  0  0  0  0  0  0  0  0  0
    3.2744  -10.0647    6.1484 H   0  0  0  0  0  0  0  0  0  0  0  0
    1.3691   -9.2406    4.8492 H   0  0  0  0  0  0  0  0  0  0  0  0
    2.9550  -10.0873    2.4504 H   0  0  0  0  0  0  0  0  0  0  0  0
    1.2810  -10.3306    2.8491 H   0  0  0  0  0  0  0  0  0  0  0  0
    2.5985   -7.9956    1.5719 H   0  0  0  0  0  0  0  0  0  0  0  0
    1.0961   -8.6591    1.1759 H   0  0  0  0  0  0  0  0  0  0  0  0
    0.9154   -6.4183    2.0735 H   0  0  0  0  0  0  0  0  0  0  0  0
   -1.0454   -6.6595    2.9796 H   0  0  0  0  0  0  0  0  0  0  0  0
   -0.8398   -9.6431    2.5182 H   0  0  0  0  0  0  0  0  0  0  0  0
   -1.1399   -8.4204    1.2764 H   0  0  0  0  0  0  0  0  0  0  0  0
   -2.2806   -8.6681    2.5867 H   0  0  0  0  0  0  0  0  0  0  0  0
   -1.8237   -7.5493    4.8763 H   0  0  0  0  0  0  0  0  0  0  0  0
   -0.7647   -8.8909    4.9673 H   0  0  0  0  0  0  0  0  0  0  0  0
   -0.5856   -6.4770    6.4398 H   0  0  0  0  0  0  0  0  0  0  0  0
    0.6721   -7.6749    6.3151 H   0  0  0  0  0  0  0  0  0  0  0  0
    0.2050   -5.4617    4.3814 H   0  0  0  0  0  0  0  0  0  0  0  0
    0.6568   -4.3673    6.3501 H   0  0  0  0  0  0  0  0  0  0  0  0
    3.4834   -5.5262    6.4000 H   0  0  0  0  0  0  0  0  0  0  0  0
    2.1689   -6.0080    7.4629 H   0  0  0  0  0  0  0  0  0  0  0  0
    2.7665   -4.3614    7.5060 H   0  0  0  0  0  0  0  0  0  0  0  0
    1.0384   -3.0682    4.5471 H   0  0  0  0  0  0  0  0  0  0  0  0
    2.8476   -1.9198    3.0354 H   0  0  0  0  0  0  0  0  0  0  0  0
    5.6583   -2.6817    3.8947 H   0  0  0  0  0  0  0  0  0  0  0  0
    4.7093   -3.3705    2.5656 H   0  0  0  0  0  0  0  0  0  0  0  0
    6.5174   -1.3691    2.0838 H   0  0  0  0  0  0  0  0  0  0  0  0
    2.8780   -0.6384    0.9305 H   0  0  0  0  0  0  0  0  0  0  0  0
    7.9849   -3.5186   -1.7071 H   0  0  0  0  0  0  0  0  0  0  0  0
    4.7226   -0.2595    4.7549 H   0  0  0  0  0  0  0  0  0  0  0  0
    2.4351    0.5930    4.8469 H   0  0  0  0  0  0  0  0  0  0  0  0
    3.3913    1.6972    3.8396 H   0  0  0  0  0  0  0  0  0  0  0  0
    2.4930    0.6651    2.0476 H   0  0  0  0  0  0  0  0  0  0  0  0
    3.6229   -5.2789    4.2711 H   0  0  0  0  0  0  0  0  0  0  0  0
    4.7307   -7.4438    1.8099 H   0  0  0  0  0  0  0  0  0  0  0  0
    5.5162   -6.2518    2.7899 H   0  0  0  0  0  0  0  0  0  0  0  0
    4.8397   -8.6204    3.8295 H   0  0  0  0  0  0  0  0  0  0  0  0
    4.9537   -7.1706    4.7706 H   0  0  0  0  0  0  0  0  0  0  0  0
    2.9862   -7.6400    5.5845 H   0  0  0  0  0  0  0  0  0  0  0  0
  1  2  1  0
  1 40  1  0
  1 41  1  0
  1 42  1  0
  2 37  1  0
  2  3  1  0
  2 43  1  1
  3  4  1  0
  3 44  1  0
  3 45  1  0
  4  5  1  0
  4 46  1  0
  4 47  1  0
  5 38  1  0
  5  6  1  0
  5 48  1  6
  6  7  1  0
  6  8  1  0
  6 49  1  6
  7 50  1  0
  7 51  1  0
  7 52  1  0
  8  9  1  0
  8 53  1  0
  8 54  1  0
  9 10  1  0
  9 55  1  0
  9 56  1  0
 10 38  1  0
 10 11  1  0
 10 57  1  6
 11 12  1  0
 11 13  1  0
 11 58  1  1
 12 59  1  0
 12 60  1  0
 12 61  1  0
 13 14  1  0
 13 32  1  0
 13 62  1  6
 14 15  1  0
 15 29  1  0
 15 16  1  0
 15 63  1  6
 16 17  1  0
 16 64  1  0
 16 65  1  0
 17 28  1  0
 17 66  1  6
 17 18  1  0
 18 19  1  0
 18 27  1  0
 19 67  1  0
 19 20  2  0
 20 39  1  0
 20 21  1  0
 21 22  1  0
 21 27  2  0
 22 23  2  0
 22 24  1  0
 24 25  1  0
 25 68  1  0
 25 26  2  0
 26 27  1  0
 28 29  1  0
 29 30  1  0
 29 69  1  1
 30 31  1  0
 30 70  1  0
 30 71  1  0
 31 72  1  0
 32 33  1  0
 38 33  1  6
 33 34  1  0
 33 73  1  1
 34 35  1  0
 35 36  1  0
 35 74  1  0
 35 75  1  0
 36 37  1  0
 36 76  1  0
 36 77  1  0
 37 38  1  0
 37 78  1  1
M  CHG  2  20   1  24  -1
M  END
>  <i_m_ct_stereo_status>  (82) 
1

>  <s_m_source_file>  (82) 
/var/tmp/pbs.5076255.sched01/tmpmzpp47sj/0ood7iq68.sdf

>  <i_m_source_file_index>  (82) 
39

>  <i_lp_mmshare_version>  (82) 
48012

>  <i_f3d_flags>  (82) 
0

>  <s_epik_input>  (82) 
W0NAQF0xMjNbQ0BIXTRbQ0gyXVtDSDJdW0NAQEhdKFtDSDNdKVtDQEhdM1tDSDJdW0NIMl1PW0NASF0yT1tDQEBIXShbQ0BIXShbQ0gzXSlbQ0BASF0xW0NIMl1bQ0gyXVtDQEBIXTRbQ0gzXSlTW0NAQEhdNVtDSDJdW0NASF0oT1tDQEhdNVtDSDJdW09IXSluKFtjSF1uNiljKGM2NyluW2NIXVtuSF1jNz1P

>  <s_epik_cmdline>  (82) 
J2VwaWtfcHl0aG9uJywgJy1waHQnLCAnMi4wJywgJy1waCcsICc3LjAnLCAnLXRuJywgJzgnLCAnLW1hJywgJzIwMCcsICctaW1hZScsICc8aW5maWxlLm1hZT4nLCAnLW9tYWUnLCAnPG91dGZpbGUubWFlPic=

>  <r_lp_tautomer_probability>  (82) 
0.144281

>  <r_epik_Ionization_Penalty>  (82) 
5.66388

>  <r_epik_Ionization_Penalty_Charging>  (82) 
5.61493

>  <r_epik_Ionization_Penalty_Neutral>  (82) 
0.0489453

>  <r_epik_State_Penalty>  (82) 
1.20809

>  <r_epik_Charging_Adjusted_Penalty>  (82) 
6.82302

>  <i_epik_Tot_Q>  (82) 
0

>  <i_epik_Tot_abs_Q>  (82) 
2

>  <s_epik_Chemistry_Notes>  (82) 
This compound contains an acetal/aminal-like group ( X-CH(R)-Y where X, Y are N, S, or O) that may be acid/base labile, releasing an aldehyde.

>  <s_lp_Force_Field>  (82) 
OPLS3e

>  <r_lp_Energy>  (82) 
108.185

>  <b_lp_Chiralities_Consistent>  (82) 
1

>  <s_lp_Variant>  (82) 
23:0-2

>  <s_i_glide_gridfile>  (82) 
pfpi4k_grid

>  <i_i_glide_lignum>  (82) 
39

>  <i_i_glide_rotatable_bonds>  (82) 
5

>  <r_i_docking_score>  (82) 
-3.05434

>  <r_i_glide_ligand_efficiency>  (82) 
-0.0803774

>  <r_i_glide_ligand_efficiency_sa>  (82) 
-0.270227

>  <r_i_glide_ligand_efficiency_ln>  (82) 
-0.658606

>  <r_i_glide_gscore>  (82) 
-3.05434

>  <r_i_glide_lipo>  (82) 
-0.309964

>  <r_i_glide_hbond>  (82) 
-0.178447

>  <r_i_glide_metal>  (82) 
-0

>  <r_i_glide_rewards>  (82) 
-0.544707

>  <r_i_glide_evdw>  (82) 
-31.8866

>  <r_i_glide_ecoul>  (82) 
-3.62989

>  <r_i_glide_erotb>  (82) 
0.279062

>  <r_i_glide_esite>  (82) 
-0.161474

>  <r_i_glide_emodel>  (82) 
-40.8431

>  <r_i_glide_energy>  (82) 
-35.5164

>  <r_i_glide_einternal>  (82) 
5.29343

>  <r_i_glide_intrahb_reward>  (82) 
-0

>  <i_i_glide_confnum>  (82) 
3

>  <i_i_glide_posenum>  (82) 
25

>  <r_i_glide_eff_state_penalty>  (82) 
0

>  <ligand_id>  (82) 
23

>  <original_smiles>  (82) 
CC1CCC2C(C)CCC3C(C)C(SC4CC(n5cnc6c(=O)[nH]cnc65)OC4CO)OC4OCCC1C423

>  <smiles>  (82) 
[H]OC([H])([H])C1([H])OC([H])(n2c([H])[n+]([H])c3c(=O)[n-]c([H])nc32)C([H])([H])C1([H])SC1([H])OC2([H])OC([H])([H])C([H])([H])C3([H])C([H])(C([H])([H])[H])C([H])([H])C([H])([H])C4([H])C([H])(C([H])([H])[H])C([H])([H])C([H])([H])C([H])(C1([H])C([H])([H])[H])C234

$$$$
23:1:2
     RDKit          3D

 78 84  0  0  1  0  0  0  0  0999 V2000
    2.4000  -10.0306    6.0338 C   0  0  0  0  0  0  0  0  0  0  0  0
    1.8115   -9.0239    5.0332 C   0  0  2  0  0  0  0  0  0  0  0  0
    1.8163   -9.5712    3.5976 C   0  0  0  0  0  0  0  0  0  0  0  0
    1.6435   -8.4735    2.5365 C   0  0  0  0  0  0  0  0  0  0  0  0
    0.8660   -7.2255    3.0210 C   0  0  1  0  0  0  0  0  0  0  0  0
   -0.6864   -7.5109    3.1791 C   0  0  1  0  0  0  0  0  0  0  0  0
   -1.2826   -8.6547    2.3304 C   0  0  0  0  0  0  0  0  0  0  0  0
   -1.2678   -7.5477    4.6199 C   0  0  0  0  0  0  0  0  0  0  0  0
   -0.5976   -6.6256    5.6638 C   0  0  0  0  0  0  0  0  0  0  0  0
    0.4292   -5.7299    4.9947 C   0  0  1  0  0  0  0  0  0  0  0  0
    0.8638   -4.4457    5.7341 C   0  0  1  0  0  0  0  0  0  0  0  0
    1.6913   -4.7241    7.0127 C   0  0  0  0  0  0  0  0  0  0  0  0
    1.5054   -3.5065    4.6495 C   0  0  1  0  0  0  0  0  0  0  0  0
    2.7313   -2.3559    5.3328 S   0  0  0  0  0  0  0  0  0  0  0  0
    3.3273   -1.5860    3.7986 C   0  0  2  0  0  0  0  0  0  0  0  0
    4.5763   -2.2622    3.2738 C   0  0  0  0  0  0  0  0  0  0  0  0
    5.1937   -1.1654    2.4117 C   0  0  1  0  0  0  0  0  0  0  0  0
    4.7246   -1.2729    0.9993 N   0  0  0  0  0  0  0  0  0  0  0  0
    3.5720   -0.8103    0.4299 C   0  0  0  0  0  0  0  0  0  0  0  0
    3.4290   -1.0880   -0.8642 N   0  0  0  0  0  0  0  0  0  0  0  0
    4.5635   -1.7797   -1.1704 C   0  0  0  0  0  0  0  0  0  0  0  0
    5.0005   -2.3873   -2.4651 C   0  0  0  0  0  0  0  0  0  0  0  0
    4.2952   -2.2607   -3.4647 O   0  0  0  0  0  0  0  0  0  0  0  0
    6.2115   -3.0187   -2.3657 N   0  0  0  0  0  0  0  0  0  0  0  0
    6.9212   -3.0565   -1.1765 C   0  0  0  0  0  0  0  0  0  0  0  0
    6.5871   -2.5474   -0.0436 N   0  0  0  0  0  0  0  0  0  0  0  0
    5.3504   -1.8887   -0.0505 C   0  0  0  0  0  0  0  0  0  0  0  0
    4.7573    0.0559    2.9249 O   0  0  0  0  0  0  0  0  0  0  0  0
    3.8107   -0.1419    3.9785 C   0  0  1  0  0  0  0  0  0  0  0  0
    2.7009    0.9177    3.8728 C   0  0  0  0  0  0  0  0  0  0  0  0
    1.8656    0.8623    5.0098 O   0  0  0  0  0  0  0  0  0  0  0  0
    1.9726   -4.2556    3.5130 O   0  0  0  0  0  0  0  0  0  0  0  0
    2.6061   -5.4333    3.8852 C   0  0  2  0  0  0  0  0  0  0  0  0
    3.4856   -5.9427    2.9492 O   0  0  0  0  0  0  0  0  0  0  0  0
    4.4178   -6.8548    3.5396 C   0  0  0  0  0  0  0  0  0  0  0  0
    3.9351   -7.5380    4.8566 C   0  0  0  0  0  0  0  0  0  0  0  0
    2.3878   -7.5838    5.1213 C   0  0  1  0  0  0  0  0  0  0  0  0
    1.5598   -6.5343    4.2732 C   0  0  2  0  0  0  0  0  0  0  0  0
    2.6250   -0.8674   -1.4529 H   0  0  0  0  0  0  0  0  0  0  0  0
    3.4267  -10.3132    5.8018 H   0  0  0  0  0  0  0  0  0  0  0  0
    1.8154  -10.9514    6.0183 H   0  0  0  0  0  0  0  0  0  0  0  0
    2.3710   -9.6522    7.0571 H   0  0  0  0  0  0  0  0  0  0  0  0
    0.7732   -8.9637    5.3348 H   0  0  0  0  0  0  0  0  0  0  0  0
    2.7412  -10.1169    3.3933 H   0  0  0  0  0  0  0  0  0  0  0  0
    1.0167  -10.3024    3.4995 H   0  0  0  0  0  0  0  0  0  0  0  0
    2.6295   -8.1607    2.2157 H   0  0  0  0  0  0  0  0  0  0  0  0
    1.2169   -8.8888    1.6243 H   0  0  0  0  0  0  0  0  0  0  0  0
    0.9373   -6.5087    2.2023 H   0  0  0  0  0  0  0  0  0  0  0  0
   -1.1579   -6.6416    2.7332 H   0  0  0  0  0  0  0  0  0  0  0  0
   -0.9810   -9.6414    2.6855 H   0  0  0  0  0  0  0  0  0  0  0  0
   -1.0018   -8.5677    1.2818 H   0  0  0  0  0  0  0  0  0  0  0  0
   -2.3740   -8.6401    2.3638 H   0  0  0  0  0  0  0  0  0  0  0  0
   -2.3010   -7.2267    4.5273 H   0  0  0  0  0  0  0  0  0  0  0  0
   -1.3379   -8.5710    5.0019 H   0  0  0  0  0  0  0  0  0  0  0  0
   -1.3502   -5.9965    6.1477 H   0  0  0  0  0  0  0  0  0  0  0  0
   -0.1340   -7.2151    6.4505 H   0  0  0  0  0  0  0  0  0  0  0  0
   -0.1560   -5.2629    4.2037 H   0  0  0  0  0  0  0  0  0  0  0  0
   -0.0385   -3.9401    6.0842 H   0  0  0  0  0  0  0  0  0  0  0  0
    2.6851   -5.1170    6.8040 H   0  0  0  0  0  0  0  0  0  0  0  0
    1.1824   -5.4490    7.6507 H   0  0  0  0  0  0  0  0  0  0  0  0
    1.8183   -3.8178    7.6088 H   0  0  0  0  0  0  0  0  0  0  0  0
    0.7133   -2.8765    4.2465 H   0  0  0  0  0  0  0  0  0  0  0  0
    2.5388   -1.6114    3.0454 H   0  0  0  0  0  0  0  0  0  0  0  0
    5.2606   -2.4919    4.0905 H   0  0  0  0  0  0  0  0  0  0  0  0
    4.3859   -3.1703    2.7083 H   0  0  0  0  0  0  0  0  0  0  0  0
    6.2801   -1.2242    2.3428 H   0  0  0  0  0  0  0  0  0  0  0  0
    2.8303   -0.2638    0.9742 H   0  0  0  0  0  0  0  0  0  0  0  0
    7.8704   -3.5858   -1.2701 H   0  0  0  0  0  0  0  0  0  0  0  0
    4.3505   -0.0407    4.9249 H   0  0  0  0  0  0  0  0  0  0  0  0
    3.1373    1.9151    3.8022 H   0  0  0  0  0  0  0  0  0  0  0  0
    2.1030    0.7648    2.9756 H   0  0  0  0  0  0  0  0  0  0  0  0
    1.2111    1.5388    4.9386 H   0  0  0  0  0  0  0  0  0  0  0  0
    3.2386   -5.1289    4.7228 H   0  0  0  0  0  0  0  0  0  0  0  0
    4.7023   -7.5933    2.7900 H   0  0  0  0  0  0  0  0  0  0  0  0
    5.3314   -6.3032    3.7585 H   0  0  0  0  0  0  0  0  0  0  0  0
    4.3947   -8.5205    4.9324 H   0  0  0  0  0  0  0  0  0  0  0  0
    4.3760   -6.9686    5.6820 H   0  0  0  0  0  0  0  0  0  0  0  0
    2.2792   -7.3055    6.1667 H   0  0  0  0  0  0  0  0  0  0  0  0
  1  2  1  0
  1 40  1  0
  1 41  1  0
  1 42  1  0
  2 37  1  0
  2  3  1  0
  2 43  1  1
  3  4  1  0
  3 44  1  0
  3 45  1  0
  4  5  1  0
  4 46  1  0
  4 47  1  0
  5 38  1  0
  5  6  1  0
  5 48  1  6
  6  7  1  0
  6  8  1  0
  6 49  1  6
  7 50  1  0
  7 51  1  0
  7 52  1  0
  8  9  1  0
  8 53  1  0
  8 54  1  0
  9 10  1  0
  9 55  1  0
  9 56  1  0
 10 38  1  0
 10 11  1  0
 10 57  1  6
 11 12  1  0
 11 13  1  0
 11 58  1  1
 12 59  1  0
 12 60  1  0
 12 61  1  0
 13 14  1  0
 13 32  1  0
 13 62  1  6
 14 15  1  0
 15 29  1  0
 15 16  1  0
 15 63  1  6
 16 17  1  0
 16 64  1  0
 16 65  1  0
 17 28  1  0
 17 66  1  6
 17 18  1  0
 18 19  1  0
 18 27  1  0
 19 67  1  0
 19 20  2  0
 20 39  1  0
 20 21  1  0
 21 22  1  0
 21 27  2  0
 22 23  2  0
 22 24  1  0
 24 25  1  0
 25 68  1  0
 25 26  2  0
 26 27  1  0
 28 29  1  0
 29 30  1  0
 29 69  1  1
 30 31  1  0
 30 70  1  0
 30 71  1  0
 31 72  1  0
 32 33  1  0
 38 33  1  6
 33 34  1  0
 33 73  1  1
 34 35  1  0
 35 36  1  0
 35 74  1  0
 35 75  1  0
 36 37  1  0
 36 76  1  0
 36 77  1  0
 37 38  1  0
 37 78  1  1
M  CHG  2  20   1  24  -1
M  END
>  <i_m_ct_stereo_status>  (83) 
1

>  <s_m_source_file>  (83) 
/var/tmp/pbs.5076255.sched01/tmpmzpp47sj/0ood7iq68.sdf

>  <i_m_source_file_index>  (83) 
39

>  <i_lp_mmshare_version>  (83) 
48012

>  <i_f3d_flags>  (83) 
0

>  <s_epik_input>  (83) 
W0NAQF0xMjNbQ0BIXTRbQ0gyXVtDSDJdW0NAQEhdKFtDSDNdKVtDQEhdM1tDSDJdW0NIMl1PW0NASF0yT1tDQEBIXShbQ0BIXShbQ0gzXSlbQ0BASF0xW0NIMl1bQ0gyXVtDQEBIXTRbQ0gzXSlTW0NAQEhdNVtDSDJdW0NASF0oT1tDQEhdNVtDSDJdW09IXSluKFtjSF1uNiljKGM2NyluW2NIXVtuSF1jNz1P

>  <s_epik_cmdline>  (83) 
J2VwaWtfcHl0aG9uJywgJy1waHQnLCAnMi4wJywgJy1waCcsICc3LjAnLCAnLXRuJywgJzgnLCAnLW1hJywgJzIwMCcsICctaW1hZScsICc8aW5maWxlLm1hZT4nLCAnLW9tYWUnLCAnPG91dGZpbGUubWFlPic=

>  <r_lp_tautomer_probability>  (83) 
0.144281

>  <r_epik_Ionization_Penalty>  (83) 
5.66388

>  <r_epik_Ionization_Penalty_Charging>  (83) 
5.61493

>  <r_epik_Ionization_Penalty_Neutral>  (83) 
0.0489453

>  <r_epik_State_Penalty>  (83) 
1.20809

>  <r_epik_Charging_Adjusted_Penalty>  (83) 
6.82302

>  <i_epik_Tot_Q>  (83) 
0

>  <i_epik_Tot_abs_Q>  (83) 
2

>  <s_epik_Chemistry_Notes>  (83) 
This compound contains an acetal/aminal-like group ( X-CH(R)-Y where X, Y are N, S, or O) that may be acid/base labile, releasing an aldehyde.

>  <s_lp_Force_Field>  (83) 
OPLS3e

>  <r_lp_Energy>  (83) 
108.185

>  <b_lp_Chiralities_Consistent>  (83) 
1

>  <s_lp_Variant>  (83) 
23:0-2

>  <s_i_glide_gridfile>  (83) 
pfpi4k_grid

>  <i_i_glide_lignum>  (83) 
39

>  <i_i_glide_rotatable_bonds>  (83) 
5

>  <r_i_docking_score>  (83) 
-2.84167

>  <r_i_glide_ligand_efficiency>  (83) 
-0.0747807

>  <r_i_glide_ligand_efficiency_sa>  (83) 
-0.251411

>  <r_i_glide_ligand_efficiency_ln>  (83) 
-0.612747

>  <r_i_glide_gscore>  (83) 
-2.84167

>  <r_i_glide_lipo>  (83) 
-0.256461

>  <r_i_glide_hbond>  (83) 
-0.125132

>  <r_i_glide_metal>  (83) 
-0

>  <r_i_glide_rewards>  (83) 
-0.563576

>  <r_i_glide_evdw>  (83) 
-30.4133

>  <r_i_glide_ecoul>  (83) 
-3.45836

>  <r_i_glide_erotb>  (83) 
0.279062

>  <r_i_glide_esite>  (83) 
-0.136141

>  <r_i_glide_emodel>  (83) 
-40.7877

>  <r_i_glide_energy>  (83) 
-33.8716

>  <r_i_glide_einternal>  (83) 
1.57045

>  <r_i_glide_intrahb_reward>  (83) 
-0

>  <i_i_glide_confnum>  (83) 
1

>  <i_i_glide_posenum>  (83) 
23

>  <r_i_glide_eff_state_penalty>  (83) 
0

>  <ligand_id>  (83) 
23

>  <original_smiles>  (83) 
CC1CCC2C(C)CCC3C(C)C(SC4CC(n5cnc6c(=O)[nH]cnc65)OC4CO)OC4OCCC1C423

>  <smiles>  (83) 
[H]OC([H])([H])C1([H])OC([H])(n2c([H])[n+]([H])c3c(=O)[n-]c([H])nc32)C([H])([H])C1([H])SC1([H])OC2([H])OC([H])([H])C([H])([H])C3([H])C([H])(C([H])([H])[H])C([H])([H])C([H])([H])C4([H])C([H])(C([H])([H])[H])C([H])([H])C([H])([H])C([H])(C1([H])C([H])([H])[H])C234

$$$$
24:0:0
     RDKit          3D

 58 63  0  0  1  0  0  0  0  0999 V2000
    2.6909   -9.0991    5.0111 C   0  0  0  0  0  0  0  0  0  0  0  0
    2.0931   -7.8050    4.4496 C   0  0  1  0  0  0  0  0  0  0  0  0
    2.3906   -6.5481    5.3006 C   0  0  0  0  0  0  0  0  0  0  0  0
    1.7499   -5.2413    4.7305 C   0  0  0  0  0  0  0  0  0  0  0  0
    1.7160   -5.0845    3.1716 C   0  0  1  0  0  0  0  0  0  0  0  0
    2.8829   -4.2055    2.5990 C   0  0  2  0  0  0  0  0  0  0  0  0
    2.4273   -2.7244    2.5436 C   0  0  0  0  0  0  0  0  0  0  0  0
    3.4919   -1.7888    1.9870 C   0  0  0  0  0  0  0  0  0  0  0  0
    3.9455   -2.2056    0.5729 C   0  0  1  0  0  0  0  0  0  0  0  0
    4.9990   -1.2225    0.0081 C   0  0  0  0  0  0  0  0  0  0  0  0
    6.3948   -1.4030    0.6316 C   0  0  1  0  0  0  0  0  0  0  0  0
    6.4092   -0.8349    1.9178 O   0  0  0  0  0  0  0  0  0  0  0  0
    6.8791   -2.8662    0.6648 C   0  0  0  0  0  0  0  0  0  0  0  0
    5.8006   -3.8041    1.2485 C   0  0  0  0  0  0  0  0  0  0  0  0
    4.4324   -3.6907    0.5167 C   0  0  2  0  0  0  0  0  0  0  0  0
    4.6538   -4.1100   -0.9596 C   0  0  0  0  0  0  0  0  0  0  0  0
    3.4137   -4.6787    1.2019 C   0  0  2  0  0  0  0  0  0  0  0  0
    2.2244   -5.1295    0.3201 C   0  0  0  0  0  0  0  0  0  0  0  0
    1.4969   -6.3430    0.9277 C   0  0  0  0  0  0  0  0  0  0  0  0
    1.5274   -6.4492    2.4646 C   0  0  1  0  0  0  0  0  0  0  0  0
    2.6380   -7.4038    3.0376 C   0  0  0  0  0  0  0  0  0  0  0  0
    0.3871   -7.1960    3.0208 C   0  0  0  0  0  0  0  0  0  0  0  0
   -0.9493   -7.0728    2.8746 O   0  0  0  0  0  0  0  0  0  0  0  0
   -1.5122   -7.8827    3.8923 N   0  0  0  0  0  0  0  0  0  0  0  0
   -0.5328   -8.2857    4.6719 N   0  0  0  0  0  0  0  0  0  0  0  0
    0.6576   -7.9094    4.0845 C   0  0  0  0  0  0  0  0  0  0  0  0
    3.7823   -9.0419    5.0464 H   0  0  0  0  0  0  0  0  0  0  0  0
    2.4055   -9.9483    4.3902 H   0  0  0  0  0  0  0  0  0  0  0  0
    2.3188   -9.2864    6.0200 H   0  0  0  0  0  0  0  0  0  0  0  0
    2.0670   -6.6804    6.3343 H   0  0  0  0  0  0  0  0  0  0  0  0
    3.4716   -6.4096    5.3497 H   0  0  0  0  0  0  0  0  0  0  0  0
    0.7317   -5.1534    5.1209 H   0  0  0  0  0  0  0  0  0  0  0  0
    2.3018   -4.4016    5.1532 H   0  0  0  0  0  0  0  0  0  0  0  0
    0.8054   -4.5182    2.9575 H   0  0  0  0  0  0  0  0  0  0  0  0
    3.7275   -4.2568    3.2916 H   0  0  0  0  0  0  0  0  0  0  0  0
    1.5310   -2.6111    1.9269 H   0  0  0  0  0  0  0  0  0  0  0  0
    2.1545   -2.3783    3.5430 H   0  0  0  0  0  0  0  0  0  0  0  0
    3.1016   -0.7692    1.9536 H   0  0  0  0  0  0  0  0  0  0  0  0
    4.3174   -1.7892    2.6936 H   0  0  0  0  0  0  0  0  0  0  0  0
    3.0619   -2.0984   -0.0657 H   0  0  0  0  0  0  0  0  0  0  0  0
    5.0832   -1.3831   -1.0668 H   0  0  0  0  0  0  0  0  0  0  0  0
    4.6650   -0.1845    0.1104 H   0  0  0  0  0  0  0  0  0  0  0  0
    7.1160   -0.8299    0.0581 H   0  0  0  0  0  0  0  0  0  0  0  0
    7.0558   -0.1357    1.9077 H   0  0  0  0  0  0  0  0  0  0  0  0
    7.1522   -3.1863   -0.3446 H   0  0  0  0  0  0  0  0  0  0  0  0
    7.8153   -2.9406    1.2254 H   0  0  0  0  0  0  0  0  0  0  0  0
    6.1605   -4.8338    1.2179 H   0  0  0  0  0  0  0  0  0  0  0  0
    5.6722   -3.5575    2.3015 H   0  0  0  0  0  0  0  0  0  0  0  0
    4.8645   -5.1788   -1.0244 H   0  0  0  0  0  0  0  0  0  0  0  0
    5.4680   -3.5869   -1.4500 H   0  0  0  0  0  0  0  0  0  0  0  0
    3.7756   -3.8885   -1.5682 H   0  0  0  0  0  0  0  0  0  0  0  0
    3.9953   -5.5907    1.3659 H   0  0  0  0  0  0  0  0  0  0  0  0
    1.5707   -4.2810    0.2004 H   0  0  0  0  0  0  0  0  0  0  0  0
    2.5112   -5.3749   -0.7017 H   0  0  0  0  0  0  0  0  0  0  0  0
    0.4796   -6.3432    0.5328 H   0  0  0  0  0  0  0  0  0  0  0  0
    1.9521   -7.2547    0.5441 H   0  0  0  0  0  0  0  0  0  0  0  0
    3.6534   -6.9888    3.0260 H   0  0  0  0  0  0  0  0  0  0  0  0
    2.6446   -8.3056    2.4204 H   0  0  0  0  0  0  0  0  0  0  0  0
  2  1  1  1
  1 27  1  0
  1 28  1  0
  1 29  1  0
  2 21  1  0
  2 26  1  0
  2  3  1  0
  3  4  1  0
  3 30  1  0
  3 31  1  0
  4  5  1  0
  4 32  1  0
  4 33  1  0
  5 20  1  0
  5  6  1  0
  5 34  1  1
  6 17  1  0
  6  7  1  0
  6 35  1  1
  7  8  1  0
  7 36  1  0
  7 37  1  0
  8  9  1  0
  8 38  1  0
  8 39  1  0
  9 15  1  0
  9 10  1  0
  9 40  1  6
 10 11  1  0
 10 41  1  0
 10 42  1  0
 11 12  1  0
 11 13  1  0
 11 43  1  6
 12 44  1  0
 13 14  1  0
 13 45  1  0
 13 46  1  0
 14 15  1  0
 14 47  1  0
 14 48  1  0
 15 16  1  6
 15 17  1  0
 16 49  1  0
 16 50  1  0
 16 51  1  0
 17 18  1  0
 17 52  1  1
 18 19  1  0
 18 53  1  0
 18 54  1  0
 20 19  1  6
 19 55  1  0
 19 56  1  0
 20 21  1  0
 20 22  1  0
 21 57  1  0
 21 58  1  0
 22 26  2  0
 22 23  1  0
 23 24  1  0
 24 25  2  0
 25 26  1  0
M  END
>  <i_m_ct_stereo_status>  (84) 
1

>  <s_m_source_file>  (84) 
/var/tmp/pbs.5076255.sched01/tmpmzpp47sj/0ood7iq68.sdf

>  <i_m_source_file_index>  (84) 
40

>  <i_lp_mmshare_version>  (84) 
48012

>  <i_f3d_flags>  (84) 
0

>  <s_epik_input>  (84) 
bjFub2MyYzFbQ0BAXShbQ0gzXSkoW0NIMl0zKVtDSDJdW0NIMl1bQ0BIXShbQ0BdMjM0KVtDQEhdNVtDQEBIXShbQ0gyXVtDSDJdNClbQ0BAXTYoW0NIM10pW0NAQEhdKFtDSDJdW0NIMl01KVtDSDJdW0NAQEhdKFtPSF0pW0NIMl1bQ0gyXTY=

>  <s_epik_cmdline>  (84) 
J2VwaWtfcHl0aG9uJywgJy1waHQnLCAnMi4wJywgJy1waCcsICc3LjAnLCAnLXRuJywgJzgnLCAnLW1hJywgJzIwMCcsICctaW1hZScsICc8aW5maWxlLm1hZT4nLCAnLW9tYWUnLCAnPG91dGZpbGUubWFlPic=

>  <r_lp_tautomer_probability>  (84) 
1

>  <r_epik_Ionization_Penalty>  (84) 
3.3766e-06

>  <r_epik_Ionization_Penalty_Charging>  (84) 
0

>  <r_epik_Ionization_Penalty_Neutral>  (84) 
3.3766e-06

>  <r_epik_State_Penalty>  (84) 
-0

>  <r_epik_Charging_Adjusted_Penalty>  (84) 
0

>  <i_epik_Tot_Q>  (84) 
0

>  <i_epik_Tot_abs_Q>  (84) 
0

>  <s_lp_Force_Field>  (84) 
OPLS3e

>  <r_lp_Energy>  (84) 
58.8002

>  <b_lp_Chiralities_Consistent>  (84) 
1

>  <s_lp_Variant>  (84) 
24:0-1

>  <s_i_glide_gridfile>  (84) 
pfpi4k_grid

>  <i_i_glide_lignum>  (84) 
40

>  <i_i_glide_rotatable_bonds>  (84) 
1

>  <r_i_docking_score>  (84) 
-3.52

>  <r_i_glide_ligand_efficiency>  (84) 
-0.135385

>  <r_i_glide_ligand_efficiency_sa>  (84) 
-0.401077

>  <r_i_glide_ligand_efficiency_ln>  (84) 
-0.826661

>  <r_i_glide_gscore>  (84) 
-3.52

>  <r_i_glide_lipo>  (84) 
-0.253334

>  <r_i_glide_hbond>  (84) 
-0.32

>  <r_i_glide_metal>  (84) 
-0

>  <r_i_glide_rewards>  (84) 
-0.978398

>  <r_i_glide_evdw>  (84) 
-21.3131

>  <r_i_glide_ecoul>  (84) 
-4.42245

>  <r_i_glide_erotb>  (84) 
0

>  <r_i_glide_esite>  (84) 
-0.23925

>  <r_i_glide_emodel>  (84) 
-30.1762

>  <r_i_glide_energy>  (84) 
-25.7355

>  <r_i_glide_einternal>  (84) 
1.36124

>  <r_i_glide_intrahb_reward>  (84) 
-0

>  <i_i_glide_confnum>  (84) 
2

>  <i_i_glide_posenum>  (84) 
5

>  <r_i_glide_eff_state_penalty>  (84) 
0

>  <ligand_id>  (84) 
24

>  <original_smiles>  (84) 
CC12CCC3C4CCC5CC(O)CCC5(C)C4CCC3(C1)c1onnc12

>  <smiles>  (84) 
[H]OC1([H])C([H])([H])C([H])([H])C2(C([H])([H])[H])C([H])(C([H])([H])C([H])([H])C3([H])C4([H])C([H])([H])C([H])([H])C5(C([H])([H])[H])c6nnoc6C4(C([H])([H])C([H])([H])C32[H])C5([H])[H])C1([H])[H]

$$$$
24:0:1
     RDKit          3D

 58 63  0  0  1  0  0  0  0  0999 V2000
    4.8009  -10.6016    2.8810 C   0  0  0  0  0  0  0  0  0  0  0  0
    4.5589   -9.1700    3.3372 C   0  0  1  0  0  0  0  0  0  0  0  0
    5.8470   -8.3563    3.6052 C   0  0  0  0  0  0  0  0  0  0  0  0
    5.5791   -6.9097    4.1251 C   0  0  0  0  0  0  0  0  0  0  0  0
    4.3397   -6.1641    3.5268 C   0  0  1  0  0  0  0  0  0  0  0  0
    4.7115   -5.1649    2.3652 C   0  0  2  0  0  0  0  0  0  0  0  0
    5.0025   -3.7623    2.9698 C   0  0  0  0  0  0  0  0  0  0  0  0
    5.3851   -2.7290    1.9041 C   0  0  0  0  0  0  0  0  0  0  0  0
    4.2869   -2.5668    0.8397 C   0  0  1  0  0  0  0  0  0  0  0  0
    4.6548   -1.4891   -0.2037 C   0  0  0  0  0  0  0  0  0  0  0  0
    5.7087   -1.9339   -1.2466 C   0  0  1  0  0  0  0  0  0  0  0  0
    7.0172   -1.8769   -0.7046 O   0  0  0  0  0  0  0  0  0  0  0  0
    5.4552   -3.3393   -1.8147 C   0  0  0  0  0  0  0  0  0  0  0  0
    5.0619   -4.3726   -0.7379 C   0  0  0  0  0  0  0  0  0  0  0  0
    3.8920   -3.9255    0.1821 C   0  0  2  0  0  0  0  0  0  0  0  0
    2.6202   -3.7222   -0.6871 C   0  0  0  0  0  0  0  0  0  0  0  0
    3.6241   -5.0575    1.2606 C   0  0  2  0  0  0  0  0  0  0  0  0
    2.2326   -5.0810    1.9311 C   0  0  0  0  0  0  0  0  0  0  0  0
    1.9341   -6.4392    2.5914 C   0  0  0  0  0  0  0  0  0  0  0  0
    3.1748   -7.1304    3.1959 C   0  0  1  0  0  0  0  0  0  0  0  0
    3.7845   -8.2704    2.3133 C   0  0  0  0  0  0  0  0  0  0  0  0
    2.8470   -8.0024    4.3502 C   0  0  0  0  0  0  0  0  0  0  0  0
    2.1845   -7.7912    5.4949 O   0  0  0  0  0  0  0  0  0  0  0  0
    2.4512   -8.9318    6.3097 N   0  0  0  0  0  0  0  0  0  0  0  0
    3.3826   -9.6319    5.7091 N   0  0  0  0  0  0  0  0  0  0  0  0
    3.5916   -9.0873    4.4581 C   0  0  0  0  0  0  0  0  0  0  0  0
    5.3317  -10.6096    1.9138 H   0  0  0  0  0  0  0  0  0  0  0  0
    3.8568  -11.1269    2.7403 H   0  0  0  0  0  0  0  0  0  0  0  0
    5.3972  -11.1546    3.6025 H   0  0  0  0  0  0  0  0  0  0  0  0
    6.4941   -8.8727    4.3172 H   0  0  0  0  0  0  0  0  0  0  0  0
    6.4216   -8.3036    2.6771 H   0  0  0  0  0  0  0  0  0  0  0  0
    5.4794   -6.9454    5.2139 H   0  0  0  0  0  0  0  0  0  0  0  0
    6.4772   -6.3251    3.9300 H   0  0  0  0  0  0  0  0  0  0  0  0
    3.9693   -5.5238    4.3307 H   0  0  0  0  0  0  0  0  0  0  0  0
    5.6286   -5.5183    1.8894 H   0  0  0  0  0  0  0  0  0  0  0  0
    4.1327   -3.3858    3.5109 H   0  0  0  0  0  0  0  0  0  0  0  0
    5.8089   -3.8330    3.6993 H   0  0  0  0  0  0  0  0  0  0  0  0
    5.5642   -1.7655    2.3875 H   0  0  0  0  0  0  0  0  0  0  0  0
    6.3272   -3.0471    1.4697 H   0  0  0  0  0  0  0  0  0  0  0  0
    3.4062   -2.1870    1.3690 H   0  0  0  0  0  0  0  0  0  0  0  0
    3.7453   -1.2217   -0.7537 H   0  0  0  0  0  0  0  0  0  0  0  0
    4.9604   -0.5572    0.2773 H   0  0  0  0  0  0  0  0  0  0  0  0
    5.6892   -1.2136   -2.0708 H   0  0  0  0  0  0  0  0  0  0  0  0
    7.0428   -2.4646    0.0304 H   0  0  0  0  0  0  0  0  0  0  0  0
    4.6680   -3.2761   -2.5673 H   0  0  0  0  0  0  0  0  0  0  0  0
    6.3401   -3.6673   -2.3581 H   0  0  0  0  0  0  0  0  0  0  0  0
    4.8176   -5.3176   -1.2243 H   0  0  0  0  0  0  0  0  0  0  0  0
    5.9500   -4.5732   -0.1428 H   0  0  0  0  0  0  0  0  0  0  0  0
    2.2395   -4.6672   -1.0629 H   0  0  0  0  0  0  0  0  0  0  0  0
    2.7991   -3.0972   -1.5648 H   0  0  0  0  0  0  0  0  0  0  0  0
    1.8237   -3.2326   -0.1357 H   0  0  0  0  0  0  0  0  0  0  0  0
    3.6530   -5.9782    0.6842 H   0  0  0  0  0  0  0  0  0  0  0  0
    2.1817   -4.2928    2.6904 H   0  0  0  0  0  0  0  0  0  0  0  0
    1.4313   -4.8968    1.2285 H   0  0  0  0  0  0  0  0  0  0  0  0
    1.1708   -6.2643    3.3441 H   0  0  0  0  0  0  0  0  0  0  0  0
    1.4763   -7.1099    1.8636 H   0  0  0  0  0  0  0  0  0  0  0  0
    4.3727   -7.9290    1.4572 H   0  0  0  0  0  0  0  0  0  0  0  0
    2.9553   -8.8647    1.9239 H   0  0  0  0  0  0  0  0  0  0  0  0
  2  1  1  6
  1 27  1  0
  1 28  1  0
  1 29  1  0
  2 21  1  0
  2 26  1  0
  2  3  1  0
  3  4  1  0
  3 30  1  0
  3 31  1  0
  4  5  1  0
  4 32  1  0
  4 33  1  0
  5 20  1  0
  5  6  1  0
  5 34  1  1
  6 17  1  0
  6  7  1  0
  6 35  1  6
  7  8  1  0
  7 36  1  0
  7 37  1  0
  8  9  1  0
  8 38  1  0
  8 39  1  0
  9 15  1  0
  9 10  1  0
  9 40  1  1
 10 11  1  0
 10 41  1  0
 10 42  1  0
 11 12  1  0
 11 13  1  0
 11 43  1  6
 12 44  1  0
 13 14  1  0
 13 45  1  0
 13 46  1  0
 14 15  1  0
 14 47  1  0
 14 48  1  0
 15 16  1  6
 15 17  1  0
 16 49  1  0
 16 50  1  0
 16 51  1  0
 17 18  1  0
 17 52  1  6
 18 19  1  0
 18 53  1  0
 18 54  1  0
 20 19  1  6
 19 55  1  0
 19 56  1  0
 20 21  1  0
 20 22  1  0
 21 57  1  0
 21 58  1  0
 22 26  2  0
 22 23  1  0
 23 24  1  0
 24 25  2  0
 25 26  1  0
M  END
>  <i_m_ct_stereo_status>  (85) 
1

>  <s_m_source_file>  (85) 
/var/tmp/pbs.5076255.sched01/tmpmzpp47sj/0ood7iq68.sdf

>  <i_m_source_file_index>  (85) 
40

>  <i_lp_mmshare_version>  (85) 
48012

>  <i_f3d_flags>  (85) 
0

>  <s_epik_input>  (85) 
bjFub2MyYzFbQ0BAXShbQ0gzXSkoW0NIMl0zKVtDSDJdW0NIMl1bQ0BIXShbQ0BdMjM0KVtDQEhdNVtDQEBIXShbQ0gyXVtDSDJdNClbQ0BAXTYoW0NIM10pW0NAQEhdKFtDSDJdW0NIMl01KVtDSDJdW0NAQEhdKFtPSF0pW0NIMl1bQ0gyXTY=

>  <s_epik_cmdline>  (85) 
J2VwaWtfcHl0aG9uJywgJy1waHQnLCAnMi4wJywgJy1waCcsICc3LjAnLCAnLXRuJywgJzgnLCAnLW1hJywgJzIwMCcsICctaW1hZScsICc8aW5maWxlLm1hZT4nLCAnLW9tYWUnLCAnPG91dGZpbGUubWFlPic=

>  <r_lp_tautomer_probability>  (85) 
1

>  <r_epik_Ionization_Penalty>  (85) 
3.3766e-06

>  <r_epik_Ionization_Penalty_Charging>  (85) 
0

>  <r_epik_Ionization_Penalty_Neutral>  (85) 
3.3766e-06

>  <r_epik_State_Penalty>  (85) 
-0

>  <r_epik_Charging_Adjusted_Penalty>  (85) 
0

>  <i_epik_Tot_Q>  (85) 
0

>  <i_epik_Tot_abs_Q>  (85) 
0

>  <s_lp_Force_Field>  (85) 
OPLS3e

>  <r_lp_Energy>  (85) 
58.8002

>  <b_lp_Chiralities_Consistent>  (85) 
1

>  <s_lp_Variant>  (85) 
24:0-1

>  <s_i_glide_gridfile>  (85) 
pfpi4k_grid

>  <i_i_glide_lignum>  (85) 
40

>  <i_i_glide_rotatable_bonds>  (85) 
1

>  <r_i_docking_score>  (85) 
-3.03212

>  <r_i_glide_ligand_efficiency>  (85) 
-0.11662

>  <r_i_glide_ligand_efficiency_sa>  (85) 
-0.345486

>  <r_i_glide_ligand_efficiency_ln>  (85) 
-0.712084

>  <r_i_glide_gscore>  (85) 
-3.03212

>  <r_i_glide_lipo>  (85) 
-0.281225

>  <r_i_glide_hbond>  (85) 
-0.16

>  <r_i_glide_metal>  (85) 
-0

>  <r_i_glide_rewards>  (85) 
-0.978398

>  <r_i_glide_evdw>  (85) 
-21.5145

>  <r_i_glide_ecoul>  (85) 
-3.20981

>  <r_i_glide_erotb>  (85) 
0

>  <r_i_glide_esite>  (85) 
-0.0553004

>  <r_i_glide_emodel>  (85) 
-29.0855

>  <r_i_glide_energy>  (85) 
-24.7243

>  <r_i_glide_einternal>  (85) 
0.000556028

>  <r_i_glide_intrahb_reward>  (85) 
-0

>  <i_i_glide_confnum>  (85) 
2

>  <i_i_glide_posenum>  (85) 
8

>  <r_i_glide_eff_state_penalty>  (85) 
0

>  <ligand_id>  (85) 
24

>  <original_smiles>  (85) 
CC12CCC3C4CCC5CC(O)CCC5(C)C4CCC3(C1)c1onnc12

>  <smiles>  (85) 
[H]OC1([H])C([H])([H])C([H])([H])C2(C([H])([H])[H])C([H])(C([H])([H])C([H])([H])C3([H])C4([H])C([H])([H])C([H])([H])C5(C([H])([H])[H])c6nnoc6C4(C([H])([H])C([H])([H])C32[H])C5([H])[H])C1([H])[H]

$$$$
24:0:2
     RDKit          3D

 58 63  0  0  1  0  0  0  0  0999 V2000
    6.5942  -10.4666    1.5208 C   0  0  0  0  0  0  0  0  0  0  0  0
    6.0113   -9.2844    2.2825 C   0  0  1  0  0  0  0  0  0  0  0  0
    7.0644   -8.2626    2.7737 C   0  0  0  0  0  0  0  0  0  0  0  0
    6.4547   -7.0806    3.5891 C   0  0  0  0  0  0  0  0  0  0  0  0
    5.0543   -6.5499    3.1262 C   0  0  1  0  0  0  0  0  0  0  0  0
    5.1413   -5.2582    2.2325 C   0  0  2  0  0  0  0  0  0  0  0  0
    5.0821   -3.9991    3.1382 C   0  0  0  0  0  0  0  0  0  0  0  0
    5.1803   -2.6941    2.3448 C   0  0  0  0  0  0  0  0  0  0  0  0
    4.0537   -2.5734    1.3009 C   0  0  1  0  0  0  0  0  0  0  0  0
    4.1190   -1.2321    0.5365 C   0  0  0  0  0  0  0  0  0  0  0  0
    5.2366   -1.1613   -0.5201 C   0  0  1  0  0  0  0  0  0  0  0  0
    6.4816   -0.9452    0.1080 O   0  0  0  0  0  0  0  0  0  0  0  0
    5.3296   -2.4113   -1.4091 C   0  0  0  0  0  0  0  0  0  0  0  0
    5.2289   -3.7317   -0.6151 C   0  0  0  0  0  0  0  0  0  0  0  0
    4.0015   -3.8059    0.3445 C   0  0  2  0  0  0  0  0  0  0  0  0
    2.7084   -3.7456   -0.5107 C   0  0  0  0  0  0  0  0  0  0  0  0
    4.0381   -5.1788    1.1363 C   0  0  2  0  0  0  0  0  0  0  0  0
    2.7030   -5.6857    1.7346 C   0  0  0  0  0  0  0  0  0  0  0  0
    2.7703   -7.1900    2.0683 C   0  0  0  0  0  0  0  0  0  0  0  0
    4.1560   -7.6754    2.5516 C   0  0  1  0  0  0  0  0  0  0  0  0
    5.0097   -8.4018    1.4593 C   0  0  0  0  0  0  0  0  0  0  0  0
    4.0862   -8.8339    3.4671 C   0  0  0  0  0  0  0  0  0  0  0  0
    3.4174   -9.0624    4.6149 O   0  0  0  0  0  0  0  0  0  0  0  0
    3.9797  -10.2481    5.1596 N   0  0  0  0  0  0  0  0  0  0  0  0
    5.0435  -10.5466    4.4440 N   0  0  0  0  0  0  0  0  0  0  0  0
    5.0778   -9.6962    3.3622 C   0  0  0  0  0  0  0  0  0  0  0  0
    7.0367  -10.1095    0.5848 H   0  0  0  0  0  0  0  0  0  0  0  0
    5.7988  -11.1814    1.2710 H   0  0  0  0  0  0  0  0  0  0  0  0
    7.3401  -10.9960    2.1191 H   0  0  0  0  0  0  0  0  0  0  0  0
    7.8359   -8.7517    3.3746 H   0  0  0  0  0  0  0  0  0  0  0  0
    7.5901   -7.8652    1.9027 H   0  0  0  0  0  0  0  0  0  0  0  0
    6.3905   -7.3853    4.6374 H   0  0  0  0  0  0  0  0  0  0  0  0
    7.1777   -6.2659    3.5642 H   0  0  0  0  0  0  0  0  0  0  0  0
    4.5559   -6.2203    4.0410 H   0  0  0  0  0  0  0  0  0  0  0  0
    6.1068   -5.2559    1.7234 H   0  0  0  0  0  0  0  0  0  0  0  0
    4.1605   -3.9800    3.7183 H   0  0  0  0  0  0  0  0  0  0  0  0
    5.8909   -4.0314    3.8686 H   0  0  0  0  0  0  0  0  0  0  0  0
    5.1277   -1.8495    3.0330 H   0  0  0  0  0  0  0  0  0  0  0  0
    6.1607   -2.6596    1.8807 H   0  0  0  0  0  0  0  0  0  0  0  0
    3.1187   -2.5531    1.8725 H   0  0  0  0  0  0  0  0  0  0  0  0
    3.1616   -1.0794    0.0275 H   0  0  0  0  0  0  0  0  0  0  0  0
    4.1904   -0.3923    1.2285 H   0  0  0  0  0  0  0  0  0  0  0  0
    5.0317   -0.2962   -1.1611 H   0  0  0  0  0  0  0  0  0  0  0  0
    6.4169   -0.1848    0.6515 H   0  0  0  0  0  0  0  0  0  0  0  0
    4.5365   -2.3775   -2.1624 H   0  0  0  0  0  0  0  0  0  0  0  0
    6.2613   -2.3898   -1.9748 H   0  0  0  0  0  0  0  0  0  0  0  0
    5.2109   -4.5723   -1.3092 H   0  0  0  0  0  0  0  0  0  0  0  0
    6.1479   -3.8339   -0.0444 H   0  0  0  0  0  0  0  0  0  0  0  0
    2.5935   -4.6567   -1.0972 H   0  0  0  0  0  0  0  0  0  0  0  0
    2.6977   -2.9088   -1.2141 H   0  0  0  0  0  0  0  0  0  0  0  0
    1.8311   -3.6149    0.1013 H   0  0  0  0  0  0  0  0  0  0  0  0
    4.2832   -5.9109    0.3709 H   0  0  0  0  0  0  0  0  0  0  0  0
    2.4863   -5.1277    2.6487 H   0  0  0  0  0  0  0  0  0  0  0  0
    1.8515   -5.5347    1.0788 H   0  0  0  0  0  0  0  0  0  0  0  0
    2.0067   -7.3808    2.8170 H   0  0  0  0  0  0  0  0  0  0  0  0
    2.4744   -7.7780    1.1998 H   0  0  0  0  0  0  0  0  0  0  0  0
    5.4715   -7.7396    0.7256 H   0  0  0  0  0  0  0  0  0  0  0  0
    4.3508   -9.0849    0.9179 H   0  0  0  0  0  0  0  0  0  0  0  0
  2  1  1  6
  1 27  1  0
  1 28  1  0
  1 29  1  0
  2 21  1  0
  2 26  1  0
  2  3  1  0
  3  4  1  0
  3 30  1  0
  3 31  1  0
  4  5  1  0
  4 32  1  0
  4 33  1  0
  5 20  1  0
  5  6  1  0
  5 34  1  1
  6 17  1  0
  6  7  1  0
  6 35  1  6
  7  8  1  0
  7 36  1  0
  7 37  1  0
  8  9  1  0
  8 38  1  0
  8 39  1  0
  9 15  1  0
  9 10  1  0
  9 40  1  1
 10 11  1  0
 10 41  1  0
 10 42  1  0
 11 12  1  0
 11 13  1  0
 11 43  1  6
 12 44  1  0
 13 14  1  0
 13 45  1  0
 13 46  1  0
 14 15  1  0
 14 47  1  0
 14 48  1  0
 15 16  1  6
 15 17  1  0
 16 49  1  0
 16 50  1  0
 16 51  1  0
 17 18  1  0
 17 52  1  6
 18 19  1  0
 18 53  1  0
 18 54  1  0
 20 19  1  6
 19 55  1  0
 19 56  1  0
 20 21  1  0
 20 22  1  0
 21 57  1  0
 21 58  1  0
 22 26  2  0
 22 23  1  0
 23 24  1  0
 24 25  2  0
 25 26  1  0
M  END
>  <i_m_ct_stereo_status>  (86) 
1

>  <s_m_source_file>  (86) 
/var/tmp/pbs.5076255.sched01/tmpmzpp47sj/0ood7iq68.sdf

>  <i_m_source_file_index>  (86) 
40

>  <i_lp_mmshare_version>  (86) 
48012

>  <i_f3d_flags>  (86) 
0

>  <s_epik_input>  (86) 
bjFub2MyYzFbQ0BAXShbQ0gzXSkoW0NIMl0zKVtDSDJdW0NIMl1bQ0BIXShbQ0BdMjM0KVtDQEhdNVtDQEBIXShbQ0gyXVtDSDJdNClbQ0BAXTYoW0NIM10pW0NAQEhdKFtDSDJdW0NIMl01KVtDSDJdW0NAQEhdKFtPSF0pW0NIMl1bQ0gyXTY=

>  <s_epik_cmdline>  (86) 
J2VwaWtfcHl0aG9uJywgJy1waHQnLCAnMi4wJywgJy1waCcsICc3LjAnLCAnLXRuJywgJzgnLCAnLW1hJywgJzIwMCcsICctaW1hZScsICc8aW5maWxlLm1hZT4nLCAnLW9tYWUnLCAnPG91dGZpbGUubWFlPic=

>  <r_lp_tautomer_probability>  (86) 
1

>  <r_epik_Ionization_Penalty>  (86) 
3.3766e-06

>  <r_epik_Ionization_Penalty_Charging>  (86) 
0

>  <r_epik_Ionization_Penalty_Neutral>  (86) 
3.3766e-06

>  <r_epik_State_Penalty>  (86) 
-0

>  <r_epik_Charging_Adjusted_Penalty>  (86) 
0

>  <i_epik_Tot_Q>  (86) 
0

>  <i_epik_Tot_abs_Q>  (86) 
0

>  <s_lp_Force_Field>  (86) 
OPLS3e

>  <r_lp_Energy>  (86) 
58.8002

>  <b_lp_Chiralities_Consistent>  (86) 
1

>  <s_lp_Variant>  (86) 
24:0-1

>  <s_i_glide_gridfile>  (86) 
pfpi4k_grid

>  <i_i_glide_lignum>  (86) 
40

>  <i_i_glide_rotatable_bonds>  (86) 
1

>  <r_i_docking_score>  (86) 
-2.86159

>  <r_i_glide_ligand_efficiency>  (86) 
-0.110061

>  <r_i_glide_ligand_efficiency_sa>  (86) 
-0.326056

>  <r_i_glide_ligand_efficiency_ln>  (86) 
-0.672035

>  <r_i_glide_gscore>  (86) 
-2.86159

>  <r_i_glide_lipo>  (86) 
-0.29049

>  <r_i_glide_hbond>  (86) 
-0.0649143

>  <r_i_glide_metal>  (86) 
-0

>  <r_i_glide_rewards>  (86) 
-0.978398

>  <r_i_glide_evdw>  (86) 
-24.1279

>  <r_i_glide_ecoul>  (86) 
-2.01564

>  <r_i_glide_erotb>  (86) 
0

>  <r_i_glide_esite>  (86) 
-0.0190496

>  <r_i_glide_emodel>  (86) 
-30.039

>  <r_i_glide_energy>  (86) 
-26.1435

>  <r_i_glide_einternal>  (86) 
0.37906

>  <r_i_glide_intrahb_reward>  (86) 
-0

>  <i_i_glide_confnum>  (86) 
2

>  <i_i_glide_posenum>  (86) 
21

>  <r_i_glide_eff_state_penalty>  (86) 
0

>  <ligand_id>  (86) 
24

>  <original_smiles>  (86) 
CC12CCC3C4CCC5CC(O)CCC5(C)C4CCC3(C1)c1onnc12

>  <smiles>  (86) 
[H]OC1([H])C([H])([H])C([H])([H])C2(C([H])([H])[H])C([H])(C([H])([H])C([H])([H])C3([H])C4([H])C([H])([H])C([H])([H])C5(C([H])([H])[H])c6nnoc6C4(C([H])([H])C([H])([H])C32[H])C5([H])[H])C1([H])[H]

$$$$
25:0:0
     RDKit          3D

 46 50  0  0  1  0  0  0  0  0999 V2000
   -4.2799    3.9464    1.7703 C   0  0  0  0  0  0  0  0  0  0  0  0
   -3.3422    3.3809    2.7391 N   0  0  0  0  0  0  0  0  0  0  0  0
   -2.3289    4.0678    3.2971 C   0  0  0  0  0  0  0  0  0  0  0  0
   -1.9834    5.1762    2.8758 O   0  0  0  0  0  0  0  0  0  0  0  0
   -1.6744    3.4335    4.5028 C   0  0  1  0  0  0  0  0  0  0  0  0
   -2.6278    2.9254    5.5739 C   0  0  0  0  0  0  0  0  0  0  0  0
   -1.8103    1.9618    4.7351 C   0  0  2  0  0  0  0  0  0  0  0  0
   -0.4774    1.4310    5.1653 C   0  0  1  0  0  0  0  0  0  0  0  0
    0.1663    0.7487    4.0384 N   0  0  0  0  0  0  0  0  0  0  0  0
    0.3944    1.1937    2.7761 C   0  0  0  0  0  0  0  0  0  0  0  0
    1.1090    0.3760    1.9997 N   0  0  0  0  0  0  0  0  0  0  0  0
    1.2855   -0.7319    2.7965 C   0  0  0  0  0  0  0  0  0  0  0  0
    1.8901   -1.9898    2.5342 C   0  0  0  0  0  0  0  0  0  0  0  0
    2.4788   -2.2824    1.2405 C   0  0  0  0  0  0  0  0  0  0  0  0
    2.9686   -2.5411    0.1456 C   0  0  0  0  0  0  0  0  0  0  0  0
    3.5590   -2.8422   -1.1354 C   0  0  0  0  0  0  0  0  0  0  0  0
    2.7942   -2.7790   -2.3253 C   0  0  0  0  0  0  0  0  0  0  0  0
    3.3410   -3.0598   -3.5290 N   0  0  0  0  0  0  0  0  0  0  0  0
    4.6381   -3.4274   -3.5385 C   0  0  0  0  0  0  0  0  0  0  0  0
    5.4051   -3.4747   -2.3538 C   0  0  0  0  0  0  0  0  0  0  0  0
    4.8664   -3.1735   -1.1531 N   0  0  0  0  0  0  0  0  0  0  0  0
    1.8902   -2.9246    3.5048 N   0  0  0  0  0  0  0  0  0  0  0  0
    1.3244   -2.6148    4.6723 C   0  0  0  0  0  0  0  0  0  0  0  0
    0.7065   -1.4852    5.0636 N   0  0  0  0  0  0  0  0  0  0  0  0
    0.7076   -0.5446    4.0712 C   0  0  0  0  0  0  0  0  0  0  0  0
    0.3281    2.6563    5.6441 C   0  0  1  0  0  0  0  0  0  0  0  0
    1.7252    2.4955    5.4525 O   0  0  0  0  0  0  0  0  0  0  0  0
   -0.2591    3.8782    4.8872 C   0  0  1  0  0  0  0  0  0  0  0  0
    0.5751    4.1590    3.7748 O   0  0  0  0  0  0  0  0  0  0  0  0
   -5.2855    3.9603    2.1859 H   0  0  0  0  0  0  0  0  0  0  0  0
   -4.2768    3.3406    0.8613 H   0  0  0  0  0  0  0  0  0  0  0  0
   -4.0527    4.9786    1.4974 H   0  0  0  0  0  0  0  0  0  0  0  0
   -3.5411    2.4337    3.0594 H   0  0  0  0  0  0  0  0  0  0  0  0
   -2.3660    3.0492    6.6192 H   0  0  0  0  0  0  0  0  0  0  0  0
   -3.7012    2.9595    5.3920 H   0  0  0  0  0  0  0  0  0  0  0  0
   -2.3677    1.3306    4.0541 H   0  0  0  0  0  0  0  0  0  0  0  0
   -0.6034    0.7360    6.0067 H   0  0  0  0  0  0  0  0  0  0  0  0
    0.0429    2.1728    2.4484 H   0  0  0  0  0  0  0  0  0  0  0  0
    1.7442   -2.5194   -2.3170 H   0  0  0  0  0  0  0  0  0  0  0  0
    5.0508   -3.7099   -4.4933 H   0  0  0  0  0  0  0  0  0  0  0  0
    6.4417   -3.7636   -2.3752 H   0  0  0  0  0  0  0  0  0  0  0  0
    1.3756   -3.3843    5.4288 H   0  0  0  0  0  0  0  0  0  0  0  0
    0.1720    2.8087    6.7104 H   0  0  0  0  0  0  0  0  0  0  0  0
    1.8926    2.5364    4.5259 H   0  0  0  0  0  0  0  0  0  0  0  0
   -0.2940    4.7673    5.5334 H   0  0  0  0  0  0  0  0  0  0  0  0
    0.2554    3.7799    2.9495 H   0  0  0  0  0  0  0  0  0  0  0  0
  1  2  1  0
  1 30  1  0
  1 31  1  0
  1 32  1  0
  2  3  1  0
  2 33  1  0
  3  4  2  0
  5  3  1  6
  5  7  1  0
  5 28  1  0
  5  6  1  0
  6  7  1  0
  6 34  1  0
  6 35  1  0
  7  8  1  0
  7 36  1  6
  8  9  1  0
  8 26  1  0
  8 37  1  1
  9 25  1  0
  9 10  1  0
 10 11  2  0
 10 38  1  0
 11 12  1  0
 12 25  2  0
 12 13  1  0
 13 14  1  0
 13 22  2  0
 14 15  3  0
 15 16  1  0
 16 21  1  0
 16 17  2  0
 17 18  1  0
 17 39  1  0
 18 19  2  0
 19 20  1  0
 19 40  1  0
 20 21  2  0
 20 41  1  0
 22 23  1  0
 23 24  2  0
 23 42  1  0
 24 25  1  0
 26 27  1  0
 26 28  1  0
 26 43  1  1
 27 44  1  0
 28 29  1  0
 28 45  1  1
 29 46  1  0
M  END
>  <i_m_ct_stereo_status>  (87) 
1

>  <s_m_source_file>  (87) 
/var/tmp/pbs.5076255.sched01/tmpmzpp47sj/0ood7iq68.sdf

>  <i_m_source_file_index>  (87) 
41

>  <i_lp_mmshare_version>  (87) 
48012

>  <i_f3d_flags>  (87) 
0

>  <s_epik_input>  (87) 
W0NIM11bTkhdQyg9TylbQ0BdMTJbQ0BIXShbQ0gyXTEpW0NASF0oW0NAQEhdKFtPSF0pW0NASF0yW09IXSluKFtjSF1uMyljKGMzNCluW2NIXW5jNEMjQ2M1W2NIXW5bY0hdW2NIXW41

>  <s_epik_cmdline>  (87) 
J2VwaWtfcHl0aG9uJywgJy1waHQnLCAnMi4wJywgJy1waCcsICc3LjAnLCAnLXRuJywgJzgnLCAnLW1hJywgJzIwMCcsICctaW1hZScsICc8aW5maWxlLm1hZT4nLCAnLW9tYWUnLCAnPG91dGZpbGUubWFlPic=

>  <r_lp_tautomer_probability>  (87) 
1

>  <r_epik_Ionization_Penalty>  (87) 
2.33536e-06

>  <r_epik_Ionization_Penalty_Charging>  (87) 
0

>  <r_epik_Ionization_Penalty_Neutral>  (87) 
2.33536e-06

>  <r_epik_State_Penalty>  (87) 
-0

>  <r_epik_Charging_Adjusted_Penalty>  (87) 
0

>  <i_epik_Tot_Q>  (87) 
0

>  <i_epik_Tot_abs_Q>  (87) 
0

>  <s_lp_Force_Field>  (87) 
OPLS3e

>  <r_lp_Energy>  (87) 
43.0622

>  <b_lp_Chiralities_Consistent>  (87) 
1

>  <s_lp_Variant>  (87) 
25:0-1

>  <s_i_glide_gridfile>  (87) 
pfpi4k_grid

>  <i_i_glide_lignum>  (87) 
41

>  <i_i_glide_rotatable_bonds>  (87) 
7

>  <r_i_docking_score>  (87) 
-3.92969

>  <r_i_glide_ligand_efficiency>  (87) 
-0.135507

>  <r_i_glide_ligand_efficiency_sa>  (87) 
-0.416319

>  <r_i_glide_ligand_efficiency_ln>  (87) 
-0.8998

>  <r_i_glide_gscore>  (87) 
-3.92969

>  <r_i_glide_lipo>  (87) 
-0.569315

>  <r_i_glide_hbond>  (87) 
-0.306819

>  <r_i_glide_metal>  (87) 
-0

>  <r_i_glide_rewards>  (87) 
-0.745582

>  <r_i_glide_evdw>  (87) 
-31.6015

>  <r_i_glide_ecoul>  (87) 
-7.13793

>  <r_i_glide_erotb>  (87) 
0.509569

>  <r_i_glide_esite>  (87) 
-0.16678

>  <r_i_glide_emodel>  (87) 
-45.6074

>  <r_i_glide_energy>  (87) 
-38.7394

>  <r_i_glide_einternal>  (87) 
5.62383

>  <r_i_glide_intrahb_reward>  (87) 
-0

>  <i_i_glide_confnum>  (87) 
3

>  <i_i_glide_posenum>  (87) 
11

>  <r_i_glide_eff_state_penalty>  (87) 
0

>  <ligand_id>  (87) 
25

>  <original_smiles>  (87) 
CNC(=O)C12CC1C(n1cnc3c(C#Cc4cnccn4)ncnc31)C(O)C2O

>  <smiles>  (87) 
[H]OC1([H])C([H])(O[H])C2(C(=O)N([H])C([H])([H])[H])C([H])([H])C2([H])C1([H])n1c([H])nc2c(C#Cc3nc([H])c([H])nc3[H])nc([H])nc21

$$$$
25:0:1
     RDKit          3D

 46 50  0  0  1  0  0  0  0  0999 V2000
    4.8456   -4.6610    0.0273 C   0  0  0  0  0  0  0  0  0  0  0  0
    4.0887   -5.4471    0.9920 N   0  0  0  0  0  0  0  0  0  0  0  0
    3.9861   -6.7857    1.0731 C   0  0  0  0  0  0  0  0  0  0  0  0
    4.6076   -7.5675    0.3639 O   0  0  0  0  0  0  0  0  0  0  0  0
    3.0108   -7.2677    2.1143 C   0  0  1  0  0  0  0  0  0  0  0  0
    3.6120   -8.1653    3.1888 C   0  0  0  0  0  0  0  0  0  0  0  0
    3.0950   -6.7873    3.5313 C   0  0  2  0  0  0  0  0  0  0  0  0
    1.6820   -6.5308    4.0178 C   0  0  1  0  0  0  0  0  0  0  0  0
    1.3972   -5.0950    4.0583 N   0  0  0  0  0  0  0  0  0  0  0  0
    1.7797   -4.1513    3.1761 C   0  0  0  0  0  0  0  0  0  0  0  0
    1.3798   -2.9039    3.3818 N   0  0  0  0  0  0  0  0  0  0  0  0
    0.6039   -3.0613    4.5029 C   0  0  0  0  0  0  0  0  0  0  0  0
   -0.1901   -2.1489    5.2333 C   0  0  0  0  0  0  0  0  0  0  0  0
   -0.2811   -0.7493    4.8496 C   0  0  0  0  0  0  0  0  0  0  0  0
   -0.3366    0.4360    4.5625 C   0  0  0  0  0  0  0  0  0  0  0  0
   -0.3883    1.8521    4.2654 C   0  0  0  0  0  0  0  0  0  0  0  0
   -1.6209    2.5471    4.3149 C   0  0  0  0  0  0  0  0  0  0  0  0
   -1.7015    3.8735    4.0596 N   0  0  0  0  0  0  0  0  0  0  0  0
   -0.5451    4.4889    3.7275 C   0  0  0  0  0  0  0  0  0  0  0  0
    0.6846    3.7942    3.6813 C   0  0  0  0  0  0  0  0  0  0  0  0
    0.7683    2.4764    3.9639 N   0  0  0  0  0  0  0  0  0  0  0  0
   -0.8878   -2.6099    6.2970 N   0  0  0  0  0  0  0  0  0  0  0  0
   -0.7922   -3.9083    6.6152 C   0  0  0  0  0  0  0  0  0  0  0  0
   -0.1032   -4.8900    6.0236 N   0  0  0  0  0  0  0  0  0  0  0  0
    0.5911   -4.4111    4.9563 C   0  0  0  0  0  0  0  0  0  0  0  0
    0.7489   -7.2714    3.0194 C   0  0  1  0  0  0  0  0  0  0  0  0
   -0.5669   -6.7215    2.8877 O   0  0  0  0  0  0  0  0  0  0  0  0
    1.5448   -7.3818    1.6915 C   0  0  1  0  0  0  0  0  0  0  0  0
    1.1406   -6.3332    0.8154 O   0  0  0  0  0  0  0  0  0  0  0  0
    5.5639   -4.0365    0.5635 H   0  0  0  0  0  0  0  0  0  0  0  0
    4.1716   -3.9848   -0.5089 H   0  0  0  0  0  0  0  0  0  0  0  0
    5.3768   -5.2731   -0.7056 H   0  0  0  0  0  0  0  0  0  0  0  0
    3.5143   -4.9070    1.6172 H   0  0  0  0  0  0  0  0  0  0  0  0
    3.0491   -9.0376    3.5185 H   0  0  0  0  0  0  0  0  0  0  0  0
    4.6939   -8.3094    3.1992 H   0  0  0  0  0  0  0  0  0  0  0  0
    3.8519   -6.0607    3.8176 H   0  0  0  0  0  0  0  0  0  0  0  0
    1.5598   -6.9421    5.0253 H   0  0  0  0  0  0  0  0  0  0  0  0
    2.3366   -4.4019    2.2995 H   0  0  0  0  0  0  0  0  0  0  0  0
   -2.5377    2.0383    4.5653 H   0  0  0  0  0  0  0  0  0  0  0  0
   -0.5936    5.5396    3.4969 H   0  0  0  0  0  0  0  0  0  0  0  0
    1.5982    4.3018    3.4202 H   0  0  0  0  0  0  0  0  0  0  0  0
   -1.3652   -4.2144    7.4670 H   0  0  0  0  0  0  0  0  0  0  0  0
    0.6065   -8.2826    3.4061 H   0  0  0  0  0  0  0  0  0  0  0  0
   -1.1365   -7.3998    2.5422 H   0  0  0  0  0  0  0  0  0  0  0  0
    1.3763   -8.3440    1.2052 H   0  0  0  0  0  0  0  0  0  0  0  0
    1.7931   -6.2442    0.1316 H   0  0  0  0  0  0  0  0  0  0  0  0
  1  2  1  0
  1 30  1  0
  1 31  1  0
  1 32  1  0
  2  3  1  0
  2 33  1  0
  3  4  2  0
  5  3  1  6
  5  7  1  0
  5 28  1  0
  5  6  1  0
  6  7  1  0
  6 34  1  0
  6 35  1  0
  7  8  1  0
  7 36  1  6
  8  9  1  0
  8 26  1  0
  8 37  1  1
  9 25  1  0
  9 10  1  0
 10 11  2  0
 10 38  1  0
 11 12  1  0
 12 25  2  0
 12 13  1  0
 13 14  1  0
 13 22  2  0
 14 15  3  0
 15 16  1  0
 16 21  1  0
 16 17  2  0
 17 18  1  0
 17 39  1  0
 18 19  2  0
 19 20  1  0
 19 40  1  0
 20 21  2  0
 20 41  1  0
 22 23  1  0
 23 24  2  0
 23 42  1  0
 24 25  1  0
 26 27  1  0
 26 28  1  0
 26 43  1  1
 27 44  1  0
 28 29  1  0
 28 45  1  6
 29 46  1  0
M  END
>  <i_m_ct_stereo_status>  (88) 
1

>  <s_m_source_file>  (88) 
/var/tmp/pbs.5076255.sched01/tmpmzpp47sj/0ood7iq68.sdf

>  <i_m_source_file_index>  (88) 
41

>  <i_lp_mmshare_version>  (88) 
48012

>  <i_f3d_flags>  (88) 
0

>  <s_epik_input>  (88) 
W0NIM11bTkhdQyg9TylbQ0BdMTJbQ0BIXShbQ0gyXTEpW0NASF0oW0NAQEhdKFtPSF0pW0NASF0yW09IXSluKFtjSF1uMyljKGMzNCluW2NIXW5jNEMjQ2M1W2NIXW5bY0hdW2NIXW41

>  <s_epik_cmdline>  (88) 
J2VwaWtfcHl0aG9uJywgJy1waHQnLCAnMi4wJywgJy1waCcsICc3LjAnLCAnLXRuJywgJzgnLCAnLW1hJywgJzIwMCcsICctaW1hZScsICc8aW5maWxlLm1hZT4nLCAnLW9tYWUnLCAnPG91dGZpbGUubWFlPic=

>  <r_lp_tautomer_probability>  (88) 
1

>  <r_epik_Ionization_Penalty>  (88) 
2.33536e-06

>  <r_epik_Ionization_Penalty_Charging>  (88) 
0

>  <r_epik_Ionization_Penalty_Neutral>  (88) 
2.33536e-06

>  <r_epik_State_Penalty>  (88) 
-0

>  <r_epik_Charging_Adjusted_Penalty>  (88) 
0

>  <i_epik_Tot_Q>  (88) 
0

>  <i_epik_Tot_abs_Q>  (88) 
0

>  <s_lp_Force_Field>  (88) 
OPLS3e

>  <r_lp_Energy>  (88) 
43.0622

>  <b_lp_Chiralities_Consistent>  (88) 
1

>  <s_lp_Variant>  (88) 
25:0-1

>  <s_i_glide_gridfile>  (88) 
pfpi4k_grid

>  <i_i_glide_lignum>  (88) 
41

>  <i_i_glide_rotatable_bonds>  (88) 
7

>  <r_i_docking_score>  (88) 
-3.11232

>  <r_i_glide_ligand_efficiency>  (88) 
-0.107321

>  <r_i_glide_ligand_efficiency_sa>  (88) 
-0.329725

>  <r_i_glide_ligand_efficiency_ln>  (88) 
-0.712642

>  <r_i_glide_gscore>  (88) 
-3.11232

>  <r_i_glide_lipo>  (88) 
-0.0668103

>  <r_i_glide_hbond>  (88) 
0

>  <r_i_glide_metal>  (88) 
-0

>  <r_i_glide_rewards>  (88) 
-0.8707

>  <r_i_glide_evdw>  (88) 
-26.2958

>  <r_i_glide_ecoul>  (88) 
-8.87751

>  <r_i_glide_erotb>  (88) 
0.509569

>  <r_i_glide_esite>  (88) 
-0.0379586

>  <r_i_glide_emodel>  (88) 
-42.2665

>  <r_i_glide_energy>  (88) 
-35.1733

>  <r_i_glide_einternal>  (88) 
2.29361

>  <r_i_glide_intrahb_reward>  (88) 
-0

>  <i_i_glide_confnum>  (88) 
3

>  <i_i_glide_posenum>  (88) 
7

>  <r_i_glide_eff_state_penalty>  (88) 
0

>  <ligand_id>  (88) 
25

>  <original_smiles>  (88) 
CNC(=O)C12CC1C(n1cnc3c(C#Cc4cnccn4)ncnc31)C(O)C2O

>  <smiles>  (88) 
[H]OC1([H])C([H])(O[H])C2(C(=O)N([H])C([H])([H])[H])C([H])([H])C2([H])C1([H])n1c([H])nc2c(C#Cc3nc([H])c([H])nc3[H])nc([H])nc21

$$$$
25:0:2
     RDKit          3D

 46 50  0  0  1  0  0  0  0  0999 V2000
    3.3959   -0.1841   -3.4253 C   0  0  0  0  0  0  0  0  0  0  0  0
    4.1033   -1.0696   -2.5136 N   0  0  0  0  0  0  0  0  0  0  0  0
    4.6535   -2.2583   -2.8019 C   0  0  0  0  0  0  0  0  0  0  0  0
    4.6119   -2.7635   -3.9207 O   0  0  0  0  0  0  0  0  0  0  0  0
    5.3044   -2.9572   -1.6412 C   0  0  1  0  0  0  0  0  0  0  0  0
    6.8197   -2.8786   -1.5832 C   0  0  0  0  0  0  0  0  0  0  0  0
    5.9697   -2.1774   -0.5463 C   0  0  2  0  0  0  0  0  0  0  0  0
    5.5855   -2.8139    0.7786 C   0  0  1  0  0  0  0  0  0  0  0  0
    4.5632   -2.0228    1.4647 N   0  0  0  0  0  0  0  0  0  0  0  0
    3.5443   -1.3155    0.9260 C   0  0  0  0  0  0  0  0  0  0  0  0
    2.7159   -0.6937    1.7520 N   0  0  0  0  0  0  0  0  0  0  0  0
    3.2063   -1.0878    2.9714 C   0  0  0  0  0  0  0  0  0  0  0  0
    2.7740   -0.8322    4.2879 C   0  0  0  0  0  0  0  0  0  0  0  0
    1.6244    0.0055    4.5594 C   0  0  0  0  0  0  0  0  0  0  0  0
    0.6672    0.7209    4.8038 C   0  0  0  0  0  0  0  0  0  0  0  0
   -0.4609    1.5680    5.1019 C   0  0  0  0  0  0  0  0  0  0  0  0
   -0.8166    1.8295    6.4457 C   0  0  0  0  0  0  0  0  0  0  0  0
   -1.8734    2.6117    6.7603 N   0  0  0  0  0  0  0  0  0  0  0  0
   -2.5518    3.1443    5.7242 C   0  0  0  0  0  0  0  0  0  0  0  0
   -2.1942    2.8877    4.3831 C   0  0  0  0  0  0  0  0  0  0  0  0
   -1.1517    2.0900    4.0675 N   0  0  0  0  0  0  0  0  0  0  0  0
    3.4537   -1.3944    5.3095 N   0  0  0  0  0  0  0  0  0  0  0  0
    4.5044   -2.1734    5.0390 C   0  0  0  0  0  0  0  0  0  0  0  0
    5.0342   -2.5029    3.8570 N   0  0  0  0  0  0  0  0  0  0  0  0
    4.3450   -1.9287    2.8343 C   0  0  0  0  0  0  0  0  0  0  0  0
    5.0561   -4.2262    0.4243 C   0  0  1  0  0  0  0  0  0  0  0  0
    4.1314   -4.7752    1.3610 O   0  0  0  0  0  0  0  0  0  0  0  0
    4.5335   -4.1188   -1.0314 C   0  0  1  0  0  0  0  0  0  0  0  0
    3.1414   -3.8517   -1.0164 O   0  0  0  0  0  0  0  0  0  0  0  0
    3.9049    0.7810   -3.4330 H   0  0  0  0  0  0  0  0  0  0  0  0
    2.3828   -0.0076   -3.0558 H   0  0  0  0  0  0  0  0  0  0  0  0
    3.3349   -0.5663   -4.4453 H   0  0  0  0  0  0  0  0  0  0  0  0
    4.0954   -0.7973   -1.5504 H   0  0  0  0  0  0  0  0  0  0  0  0
    7.3862   -3.7586   -1.2798 H   0  0  0  0  0  0  0  0  0  0  0  0
    7.3327   -2.2665   -2.3234 H   0  0  0  0  0  0  0  0  0  0  0  0
    5.9926   -1.0881   -0.5683 H   0  0  0  0  0  0  0  0  0  0  0  0
    6.4670   -2.8939    1.4248 H   0  0  0  0  0  0  0  0  0  0  0  0
    3.3763   -1.2819   -0.1309 H   0  0  0  0  0  0  0  0  0  0  0  0
   -0.2606    1.4113    7.2726 H   0  0  0  0  0  0  0  0  0  0  0  0
   -3.3892    3.7680    5.9740 H   0  0  0  0  0  0  0  0  0  0  0  0
   -2.7500    3.3109    3.5623 H   0  0  0  0  0  0  0  0  0  0  0  0
    5.0067   -2.5807    5.8927 H   0  0  0  0  0  0  0  0  0  0  0  0
    5.9045   -4.9130    0.4209 H   0  0  0  0  0  0  0  0  0  0  0  0
    3.7874   -5.5894    1.0192 H   0  0  0  0  0  0  0  0  0  0  0  0
    4.7449   -5.0351   -1.5762 H   0  0  0  0  0  0  0  0  0  0  0  0
    2.7705   -4.1629   -1.8390 H   0  0  0  0  0  0  0  0  0  0  0  0
  1  2  1  0
  1 30  1  0
  1 31  1  0
  1 32  1  0
  2  3  1  0
  2 33  1  0
  3  4  2  0
  5  3  1  6
  5  7  1  0
  5 28  1  0
  5  6  1  0
  6  7  1  0
  6 34  1  0
  6 35  1  0
  7  8  1  0
  7 36  1  1
  8  9  1  0
  8 26  1  0
  8 37  1  1
  9 25  1  0
  9 10  1  0
 10 11  2  0
 10 38  1  0
 11 12  1  0
 12 25  2  0
 12 13  1  0
 13 14  1  0
 13 22  2  0
 14 15  3  0
 15 16  1  0
 16 21  1  0
 16 17  2  0
 17 18  1  0
 17 39  1  0
 18 19  2  0
 19 20  1  0
 19 40  1  0
 20 21  2  0
 20 41  1  0
 22 23  1  0
 23 24  2  0
 23 42  1  0
 24 25  1  0
 26 27  1  0
 26 28  1  0
 26 43  1  6
 27 44  1  0
 28 29  1  0
 28 45  1  6
 29 46  1  0
M  END
>  <i_m_ct_stereo_status>  (89) 
1

>  <s_m_source_file>  (89) 
/var/tmp/pbs.5076255.sched01/tmpmzpp47sj/0ood7iq68.sdf

>  <i_m_source_file_index>  (89) 
41

>  <i_lp_mmshare_version>  (89) 
48012

>  <i_f3d_flags>  (89) 
0

>  <s_epik_input>  (89) 
W0NIM11bTkhdQyg9TylbQ0BdMTJbQ0BIXShbQ0gyXTEpW0NASF0oW0NAQEhdKFtPSF0pW0NASF0yW09IXSluKFtjSF1uMyljKGMzNCluW2NIXW5jNEMjQ2M1W2NIXW5bY0hdW2NIXW41

>  <s_epik_cmdline>  (89) 
J2VwaWtfcHl0aG9uJywgJy1waHQnLCAnMi4wJywgJy1waCcsICc3LjAnLCAnLXRuJywgJzgnLCAnLW1hJywgJzIwMCcsICctaW1hZScsICc8aW5maWxlLm1hZT4nLCAnLW9tYWUnLCAnPG91dGZpbGUubWFlPic=

>  <r_lp_tautomer_probability>  (89) 
1

>  <r_epik_Ionization_Penalty>  (89) 
2.33536e-06

>  <r_epik_Ionization_Penalty_Charging>  (89) 
0

>  <r_epik_Ionization_Penalty_Neutral>  (89) 
2.33536e-06

>  <r_epik_State_Penalty>  (89) 
-0

>  <r_epik_Charging_Adjusted_Penalty>  (89) 
0

>  <i_epik_Tot_Q>  (89) 
0

>  <i_epik_Tot_abs_Q>  (89) 
0

>  <s_lp_Force_Field>  (89) 
OPLS3e

>  <r_lp_Energy>  (89) 
43.0622

>  <b_lp_Chiralities_Consistent>  (89) 
1

>  <s_lp_Variant>  (89) 
25:0-1

>  <s_i_glide_gridfile>  (89) 
pfpi4k_grid

>  <i_i_glide_lignum>  (89) 
41

>  <i_i_glide_rotatable_bonds>  (89) 
7

>  <r_i_docking_score>  (89) 
-3.00901

>  <r_i_glide_ligand_efficiency>  (89) 
-0.103759

>  <r_i_glide_ligand_efficiency_sa>  (89) 
-0.31878

>  <r_i_glide_ligand_efficiency_ln>  (89) 
-0.688986

>  <r_i_glide_gscore>  (89) 
-3.00901

>  <r_i_glide_lipo>  (89) 
-0.286769

>  <r_i_glide_hbond>  (89) 
-0.0993391

>  <r_i_glide_metal>  (89) 
-0

>  <r_i_glide_rewards>  (89) 
-0.967166

>  <r_i_glide_evdw>  (89) 
-31.0282

>  <r_i_glide_ecoul>  (89) 
-3.71568

>  <r_i_glide_erotb>  (89) 
0.509569

>  <r_i_glide_esite>  (89) 
-0.0565409

>  <r_i_glide_emodel>  (89) 
-41.5682

>  <r_i_glide_energy>  (89) 
-34.7438

>  <r_i_glide_einternal>  (89) 
2.44498

>  <r_i_glide_intrahb_reward>  (89) 
-0

>  <i_i_glide_confnum>  (89) 
3

>  <i_i_glide_posenum>  (89) 
3

>  <r_i_glide_eff_state_penalty>  (89) 
0

>  <ligand_id>  (89) 
25

>  <original_smiles>  (89) 
CNC(=O)C12CC1C(n1cnc3c(C#Cc4cnccn4)ncnc31)C(O)C2O

>  <smiles>  (89) 
[H]OC1([H])C([H])(O[H])C2(C(=O)N([H])C([H])([H])[H])C([H])([H])C2([H])C1([H])n1c([H])nc2c(C#Cc3nc([H])c([H])nc3[H])nc([H])nc21

$$$$
26:0:0
     RDKit          3D

 37 39  0  0  1  0  0  0  0  0999 V2000
    3.7577   -3.0259   -3.4713 C   0  0  0  0  0  0  0  0  0  0  0  0
    3.6568   -2.3459   -2.0662 C   0  0  1  0  0  0  0  0  0  0  0  0
    2.9763   -1.1592   -2.3705 O   0  0  0  0  0  0  0  0  0  0  0  0
    2.8137   -3.2513   -1.0894 C   0  0  0  0  0  0  0  0  0  0  0  0
    3.2804   -3.0054    0.3613 C   0  0  1  0  0  0  0  0  0  0  0  0
    2.6457   -2.3966    1.6177 C   0  0  0  0  0  0  0  0  0  0  0  0
    3.7399   -1.3322    1.9927 C   0  0  1  0  0  0  0  0  0  0  0  0
    4.0682   -1.4005    3.4235 N   0  0  0  0  0  0  0  0  0  0  0  0
    4.8297   -0.5193    3.8572 N   0  0  0  0  0  0  0  0  0  0  0  0
    5.4997    0.2429    4.3647 N   0  0  0  0  0  0  0  0  0  0  0  0
    4.9830   -1.6328    1.0736 C   0  0  2  0  0  0  0  0  0  0  0  0
    5.0421   -0.8852   -0.3027 C   0  0  0  0  0  0  0  0  0  0  0  0
    5.0683   -1.9640   -1.4631 C   0  0  1  0  0  0  0  0  0  0  0  0
    5.6244   -3.1951   -0.7257 C   0  0  1  0  0  0  0  0  0  0  0  0
    5.4188   -4.3391   -1.3610 F   0  0  0  0  0  0  0  0  0  0  0  0
    7.1747   -3.1291   -0.5538 C   0  0  0  0  0  0  0  0  0  0  0  0
    7.7875   -2.1885   -1.1091 O   0  0  0  0  0  0  0  0  0  0  0  0
    7.7350   -4.0448    0.0780 O   0  0  0  0  0  0  0  0  0  0  0  0
    4.8185   -3.0749    0.6053 C   0  0  2  0  0  0  0  0  0  0  0  0
    5.2117   -4.1190    1.6726 C   0  0  0  0  0  0  0  0  0  0  0  0
    4.2385   -4.0024   -3.4289 H   0  0  0  0  0  0  0  0  0  0  0  0
    4.3006   -2.4007   -4.1824 H   0  0  0  0  0  0  0  0  0  0  0  0
    2.7476   -3.1864   -3.8774 H   0  0  0  0  0  0  0  0  0  0  0  0
    2.2775   -1.0526   -1.7306 H   0  0  0  0  0  0  0  0  0  0  0  0
    1.7424   -3.1086   -1.2326 H   0  0  0  0  0  0  0  0  0  0  0  0
    2.9993   -4.2745   -1.3236 H   0  0  0  0  0  0  0  0  0  0  0  0
    2.9882   -2.0204    0.0181 H   0  0  0  0  0  0  0  0  0  0  0  0
    1.6583   -1.9533    1.4745 H   0  0  0  0  0  0  0  0  0  0  0  0
    2.5472   -3.1445    2.4057 H   0  0  0  0  0  0  0  0  0  0  0  0
    3.3457   -0.3405    1.7552 H   0  0  0  0  0  0  0  0  0  0  0  0
    5.9297   -1.4796    1.5927 H   0  0  0  0  0  0  0  0  0  0  0  0
    4.2266   -0.1650   -0.4068 H   0  0  0  0  0  0  0  0  0  0  0  0
    5.9529   -0.2913   -0.3225 H   0  0  0  0  0  0  0  0  0  0  0  0
    5.6982   -1.6040   -2.2703 H   0  0  0  0  0  0  0  0  0  0  0  0
    6.2319   -3.9653    2.0281 H   0  0  0  0  0  0  0  0  0  0  0  0
    5.1643   -5.1314    1.2553 H   0  0  0  0  0  0  0  0  0  0  0  0
    4.5898   -4.0908    2.5622 H   0  0  0  0  0  0  0  0  0  0  0  0
  1  2  1  0
  1 21  1  0
  1 22  1  0
  1 23  1  0
  2 13  1  0
  2  3  1  6
  2  4  1  0
  3 24  1  0
  4  5  1  0
  4 25  1  0
  4 26  1  0
  5 19  1  0
  5  6  1  0
  5 27  1  1
  6  7  1  0
  6 28  1  0
  6 29  1  0
  7  8  1  0
  7 11  1  0
  7 30  1  6
  8  9  2  0
  9 10  2  0
 11 19  1  0
 11 12  1  0
 11 31  1  1
 12 13  1  0
 12 32  1  0
 12 33  1  0
 13 14  1  0
 13 34  1  6
 14 15  1  6
 14 16  1  0
 14 19  1  0
 16 17  2  0
 16 18  1  0
 19 20  1  1
 20 35  1  0
 20 36  1  0
 20 37  1  0
M  CHG  3   9   1  10  -1  18  -1
M  END
>  <i_m_ct_stereo_status>  (90) 
1

>  <s_m_source_file>  (90) 
/var/tmp/pbs.5076255.sched01/tmpmzpp47sj/0ood7iq68.sdf

>  <i_m_source_file_index>  (90) 
42

>  <i_lp_mmshare_version>  (90) 
48012

>  <i_f3d_flags>  (90) 
0

>  <s_epik_input>  (90) 
W0NIM11bQ0BAXTEyW0NASF0zW0NIMl1bQ0BAXShbQ0gzXSkoW09IXSlbQ0BIXShbQ0BAXTIoRilDKD1PKVtPSF0pW0NIMl1bQ0BIXTFbQ0BASF0oW0NIMl0zKU49W04rXT1bTi1d

>  <s_epik_cmdline>  (90) 
J2VwaWtfcHl0aG9uJywgJy1waHQnLCAnMi4wJywgJy1waCcsICc3LjAnLCAnLXRuJywgJzgnLCAnLW1hJywgJzIwMCcsICctaW1hZScsICc8aW5maWxlLm1hZT4nLCAnLW9tYWUnLCAnPG91dGZpbGUubWFlPic=

>  <r_epik_Ionization_Penalty>  (90) 
0.000418911

>  <r_epik_Ionization_Penalty_Charging>  (90) 
0.000417939

>  <r_epik_Ionization_Penalty_Neutral>  (90) 
9.71677e-07

>  <r_epik_State_Penalty>  (90) 
0.000256906

>  <r_epik_Charging_Adjusted_Penalty>  (90) 
0.000674845

>  <i_epik_Tot_Q>  (90) 
-1

>  <i_epik_Tot_abs_Q>  (90) 
3

>  <s_lp_Force_Field>  (90) 
OPLS3e

>  <r_lp_Energy>  (90) 
84.716

>  <b_lp_Chiralities_Consistent>  (90) 
1

>  <s_lp_Variant>  (90) 
26:0-1

>  <s_i_glide_gridfile>  (90) 
pfpi4k_grid

>  <i_i_glide_lignum>  (90) 
42

>  <i_i_glide_rotatable_bonds>  (90) 
3

>  <r_i_docking_score>  (90) 
-4.2948

>  <r_i_glide_ligand_efficiency>  (90) 
-0.21474

>  <r_i_glide_ligand_efficiency_sa>  (90) 
-0.582894

>  <r_i_glide_ligand_efficiency_ln>  (90) 
-1.07485

>  <r_i_glide_gscore>  (90) 
-4.2948

>  <r_i_glide_lipo>  (90) 
-0.376421

>  <r_i_glide_hbond>  (90) 
-0.36

>  <r_i_glide_metal>  (90) 
-0

>  <r_i_glide_rewards>  (90) 
-1.62265

>  <r_i_glide_evdw>  (90) 
-23.0703

>  <r_i_glide_ecoul>  (90) 
-6.62557

>  <r_i_glide_erotb>  (90) 
0.227026

>  <r_i_glide_esite>  (90) 
-0.0154006

>  <r_i_glide_emodel>  (90) 
-39.2769

>  <r_i_glide_energy>  (90) 
-29.6959

>  <r_i_glide_einternal>  (90) 
1.48369

>  <r_i_glide_intrahb_reward>  (90) 
-0

>  <i_i_glide_confnum>  (90) 
5

>  <i_i_glide_posenum>  (90) 
32

>  <r_i_glide_eff_state_penalty>  (90) 
0

>  <ligand_id>  (90) 
26

>  <original_smiles>  (90) 
CC1(O)CC2CC(N=[N+]=[N-])C3CC1C(F)(C(=O)O)C23C

>  <smiles>  (90) 
[H]OC1(C([H])([H])[H])C([H])([H])C2([H])C([H])([H])C([H])(N=[N+]=[N-])C3([H])C([H])([H])C1([H])C(F)(C(=O)[O-])C23C([H])([H])[H]

$$$$
26:0:1
     RDKit          3D

 37 39  0  0  1  0  0  0  0  0999 V2000
    3.8737   -2.8376   -3.5724 C   0  0  0  0  0  0  0  0  0  0  0  0
    3.6900   -2.2780   -2.1295 C   0  0  1  0  0  0  0  0  0  0  0  0
    2.9840   -1.0944   -2.3755 O   0  0  0  0  0  0  0  0  0  0  0  0
    2.8215   -3.2620   -1.2668 C   0  0  0  0  0  0  0  0  0  0  0  0
    3.2148   -3.1353    0.2175 C   0  0  1  0  0  0  0  0  0  0  0  0
    2.5058   -2.6525    1.4859 C   0  0  0  0  0  0  0  0  0  0  0  0
    3.5388   -1.5879    1.9996 C   0  0  1  0  0  0  0  0  0  0  0  0
    3.8183   -1.7525    3.4332 N   0  0  0  0  0  0  0  0  0  0  0  0
    2.9212   -1.4070    4.2188 N   0  0  0  0  0  0  0  0  0  0  0  0
    2.0860   -1.2233    4.9693 N   0  0  0  0  0  0  0  0  0  0  0  0
    4.8362   -1.7803    1.1307 C   0  0  2  0  0  0  0  0  0  0  0  0
    4.9440   -0.9234   -0.1825 C   0  0  0  0  0  0  0  0  0  0  0  0
    5.0544   -1.9041   -1.4218 C   0  0  1  0  0  0  0  0  0  0  0  0
    5.6169   -3.1732   -0.7547 C   0  0  1  0  0  0  0  0  0  0  0  0
    5.4733   -4.2674   -1.4886 F   0  0  0  0  0  0  0  0  0  0  0  0
    7.1578   -3.0826   -0.5320 C   0  0  0  0  0  0  0  0  0  0  0  0
    7.7770   -2.1852   -1.1433 O   0  0  0  0  0  0  0  0  0  0  0  0
    7.7178   -3.9464    0.1658 O   0  0  0  0  0  0  0  0  0  0  0  0
    4.7405   -3.1848    0.5389 C   0  0  2  0  0  0  0  0  0  0  0  0
    5.1023   -4.3075    1.5382 C   0  0  0  0  0  0  0  0  0  0  0  0
    4.3817   -3.8024   -3.5889 H   0  0  0  0  0  0  0  0  0  0  0  0
    4.4287   -2.1415   -4.2035 H   0  0  0  0  0  0  0  0  0  0  0  0
    2.8913   -2.9892   -4.0428 H   0  0  0  0  0  0  0  0  0  0  0  0
    2.2787   -1.0434   -1.7345 H   0  0  0  0  0  0  0  0  0  0  0  0
    1.7544   -3.1513   -1.4546 H   0  0  0  0  0  0  0  0  0  0  0  0
    3.0735   -4.2551   -1.5715 H   0  0  0  0  0  0  0  0  0  0  0  0
    2.9099   -2.1326   -0.0576 H   0  0  0  0  0  0  0  0  0  0  0  0
    1.5115   -2.2261    1.3281 H   0  0  0  0  0  0  0  0  0  0  0  0
    2.3909   -3.4721    2.1986 H   0  0  0  0  0  0  0  0  0  0  0  0
    3.1407   -0.5875    1.8067 H   0  0  0  0  0  0  0  0  0  0  0  0
    5.7374   -1.6379    1.7259 H   0  0  0  0  0  0  0  0  0  0  0  0
    4.1106   -0.2239   -0.2770 H   0  0  0  0  0  0  0  0  0  0  0  0
    5.8324   -0.2978   -0.1162 H   0  0  0  0  0  0  0  0  0  0  0  0
    5.7038   -1.4589   -2.1684 H   0  0  0  0  0  0  0  0  0  0  0  0
    6.0891   -4.1550    1.9769 H   0  0  0  0  0  0  0  0  0  0  0  0
    5.1144   -5.2791    1.0335 H   0  0  0  0  0  0  0  0  0  0  0  0
    4.4260   -4.3722    2.3854 H   0  0  0  0  0  0  0  0  0  0  0  0
  1  2  1  0
  1 21  1  0
  1 22  1  0
  1 23  1  0
  2 13  1  0
  2  3  1  6
  2  4  1  0
  3 24  1  0
  4  5  1  0
  4 25  1  0
  4 26  1  0
  5 19  1  0
  5  6  1  0
  5 27  1  1
  6  7  1  0
  6 28  1  0
  6 29  1  0
  7  8  1  0
  7 11  1  0
  7 30  1  1
  8  9  2  0
  9 10  2  0
 11 19  1  0
 11 12  1  0
 11 31  1  1
 12 13  1  0
 12 32  1  0
 12 33  1  0
 13 14  1  0
 13 34  1  6
 14 15  1  6
 14 16  1  0
 14 19  1  0
 16 17  2  0
 16 18  1  0
 19 20  1  1
 20 35  1  0
 20 36  1  0
 20 37  1  0
M  CHG  3   9   1  10  -1  18  -1
M  END
>  <i_m_ct_stereo_status>  (91) 
1

>  <s_m_source_file>  (91) 
/var/tmp/pbs.5076255.sched01/tmpmzpp47sj/0ood7iq68.sdf

>  <i_m_source_file_index>  (91) 
42

>  <i_lp_mmshare_version>  (91) 
48012

>  <i_f3d_flags>  (91) 
0

>  <s_epik_input>  (91) 
W0NIM11bQ0BAXTEyW0NASF0zW0NIMl1bQ0BAXShbQ0gzXSkoW09IXSlbQ0BIXShbQ0BAXTIoRilDKD1PKVtPSF0pW0NIMl1bQ0BIXTFbQ0BASF0oW0NIMl0zKU49W04rXT1bTi1d

>  <s_epik_cmdline>  (91) 
J2VwaWtfcHl0aG9uJywgJy1waHQnLCAnMi4wJywgJy1waCcsICc3LjAnLCAnLXRuJywgJzgnLCAnLW1hJywgJzIwMCcsICctaW1hZScsICc8aW5maWxlLm1hZT4nLCAnLW9tYWUnLCAnPG91dGZpbGUubWFlPic=

>  <r_epik_Ionization_Penalty>  (91) 
0.000418911

>  <r_epik_Ionization_Penalty_Charging>  (91) 
0.000417939

>  <r_epik_Ionization_Penalty_Neutral>  (91) 
9.71677e-07

>  <r_epik_State_Penalty>  (91) 
0.000256906

>  <r_epik_Charging_Adjusted_Penalty>  (91) 
0.000674845

>  <i_epik_Tot_Q>  (91) 
-1

>  <i_epik_Tot_abs_Q>  (91) 
3

>  <s_lp_Force_Field>  (91) 
OPLS3e

>  <r_lp_Energy>  (91) 
84.716

>  <b_lp_Chiralities_Consistent>  (91) 
1

>  <s_lp_Variant>  (91) 
26:0-1

>  <s_i_glide_gridfile>  (91) 
pfpi4k_grid

>  <i_i_glide_lignum>  (91) 
42

>  <i_i_glide_rotatable_bonds>  (91) 
3

>  <r_i_docking_score>  (91) 
-4.23365

>  <r_i_glide_ligand_efficiency>  (91) 
-0.211682

>  <r_i_glide_ligand_efficiency_sa>  (91) 
-0.574595

>  <r_i_glide_ligand_efficiency_ln>  (91) 
-1.05954

>  <r_i_glide_gscore>  (91) 
-4.23365

>  <r_i_glide_lipo>  (91) 
-0.414715

>  <r_i_glide_hbond>  (91) 
-0.36

>  <r_i_glide_metal>  (91) 
-0

>  <r_i_glide_rewards>  (91) 
-1.60327

>  <r_i_glide_evdw>  (91) 
-20.8699

>  <r_i_glide_ecoul>  (91) 
-6.82672

>  <r_i_glide_erotb>  (91) 
0.227026

>  <r_i_glide_esite>  (91) 
-0.0151873

>  <r_i_glide_emodel>  (91) 
-37.0751

>  <r_i_glide_energy>  (91) 
-27.6966

>  <r_i_glide_einternal>  (91) 
1.3775

>  <r_i_glide_intrahb_reward>  (91) 
-0

>  <i_i_glide_confnum>  (91) 
5

>  <i_i_glide_posenum>  (91) 
1

>  <r_i_glide_eff_state_penalty>  (91) 
0

>  <ligand_id>  (91) 
26

>  <original_smiles>  (91) 
CC1(O)CC2CC(N=[N+]=[N-])C3CC1C(F)(C(=O)O)C23C

>  <smiles>  (91) 
[H]OC1(C([H])([H])[H])C([H])([H])C2([H])C([H])([H])C([H])(N=[N+]=[N-])C3([H])C([H])([H])C1([H])C(F)(C(=O)[O-])C23C([H])([H])[H]

$$$$
26:0:2
     RDKit          3D

 37 39  0  0  1  0  0  0  0  0999 V2000
    4.1037   -1.3239   -3.2754 C   0  0  0  0  0  0  0  0  0  0  0  0
    3.8808   -2.4878   -2.2488 C   0  0  1  0  0  0  0  0  0  0  0  0
    2.7363   -3.1152   -2.7830 O   0  0  0  0  0  0  0  0  0  0  0  0
    5.0967   -3.4853   -2.2871 C   0  0  0  0  0  0  0  0  0  0  0  0
    5.2065   -4.1491   -0.8898 C   0  0  1  0  0  0  0  0  0  0  0  0
    5.0217   -5.5600   -0.3268 C   0  0  0  0  0  0  0  0  0  0  0  0
    4.0355   -5.2821    0.8584 C   0  0  1  0  0  0  0  0  0  0  0  0
    4.4746   -5.9476    2.0954 N   0  0  0  0  0  0  0  0  0  0  0  0
    4.3793   -7.1900    2.1322 N   0  0  0  0  0  0  0  0  0  0  0  0
    4.4238   -8.3222    2.1480 N   0  0  0  0  0  0  0  0  0  0  0  0
    3.9979   -3.7191    1.0190 C   0  0  2  0  0  0  0  0  0  0  0  0
    2.8916   -2.9548    0.2062 C   0  0  0  0  0  0  0  0  0  0  0  0
    3.6033   -1.9343   -0.7845 C   0  0  1  0  0  0  0  0  0  0  0  0
    4.9500   -1.7105   -0.0747 C   0  0  1  0  0  0  0  0  0  0  0  0
    5.8787   -1.1768   -0.8524 F   0  0  0  0  0  0  0  0  0  0  0  0
    4.8132   -0.6846    1.0987 C   0  0  0  0  0  0  0  0  0  0  0  0
    5.7546   -0.6130    1.9264 O   0  0  0  0  0  0  0  0  0  0  0  0
    3.8344    0.0752    1.1230 O   0  0  0  0  0  0  0  0  0  0  0  0
    5.2557   -3.1856    0.3340 C   0  0  2  0  0  0  0  0  0  0  0  0
    6.5434   -3.3708    1.1607 C   0  0  0  0  0  0  0  0  0  0  0  0
    5.0091   -0.7646   -3.0643 H   0  0  0  0  0  0  0  0  0  0  0  0
    3.2615   -0.6266   -3.2929 H   0  0  0  0  0  0  0  0  0  0  0  0
    4.2014   -1.7463   -4.2856 H   0  0  0  0  0  0  0  0  0  0  0  0
    2.6048   -3.9380   -2.3485 H   0  0  0  0  0  0  0  0  0  0  0  0
    4.9593   -4.2179   -3.0865 H   0  0  0  0  0  0  0  0  0  0  0  0
    6.0136   -2.9648   -2.5149 H   0  0  0  0  0  0  0  0  0  0  0  0
    4.1894   -4.3795   -1.1700 H   0  0  0  0  0  0  0  0  0  0  0  0
    4.6355   -6.2988   -1.0380 H   0  0  0  0  0  0  0  0  0  0  0  0
    5.9670   -5.9600    0.0384 H   0  0  0  0  0  0  0  0  0  0  0  0
    3.0380   -5.6314    0.5856 H   0  0  0  0  0  0  0  0  0  0  0  0
    3.9432   -3.4285    2.0695 H   0  0  0  0  0  0  0  0  0  0  0  0
    2.2164   -3.6411   -0.3115 H   0  0  0  0  0  0  0  0  0  0  0  0
    2.2603   -2.4078    0.9078 H   0  0  0  0  0  0  0  0  0  0  0  0
    3.0156   -1.0300   -0.8634 H   0  0  0  0  0  0  0  0  0  0  0  0
    6.4416   -2.9274    2.1502 H   0  0  0  0  0  0  0  0  0  0  0  0
    7.3952   -2.8834    0.6699 H   0  0  0  0  0  0  0  0  0  0  0  0
    6.8064   -4.4059    1.3510 H   0  0  0  0  0  0  0  0  0  0  0  0
  1  2  1  0
  1 21  1  0
  1 22  1  0
  1 23  1  0
  2 13  1  0
  2  3  1  6
  2  4  1  0
  3 24  1  0
  4  5  1  0
  4 25  1  0
  4 26  1  0
  5 19  1  0
  5  6  1  0
  5 27  1  6
  6  7  1  0
  6 28  1  0
  6 29  1  0
  7  8  1  0
  7 11  1  0
  7 30  1  6
  8  9  2  0
  9 10  2  0
 11 19  1  0
 11 12  1  0
 11 31  1  1
 12 13  1  0
 12 32  1  0
 12 33  1  0
 13 14  1  0
 13 34  1  6
 14 15  1  6
 14 16  1  0
 14 19  1  0
 16 17  2  0
 16 18  1  0
 19 20  1  1
 20 35  1  0
 20 36  1  0
 20 37  1  0
M  CHG  3   9   1  10  -1  18  -1
M  END
>  <i_m_ct_stereo_status>  (92) 
1

>  <s_m_source_file>  (92) 
/var/tmp/pbs.5076255.sched01/tmpmzpp47sj/0ood7iq68.sdf

>  <i_m_source_file_index>  (92) 
42

>  <i_lp_mmshare_version>  (92) 
48012

>  <i_f3d_flags>  (92) 
0

>  <s_epik_input>  (92) 
W0NIM11bQ0BAXTEyW0NASF0zW0NIMl1bQ0BAXShbQ0gzXSkoW09IXSlbQ0BIXShbQ0BAXTIoRilDKD1PKVtPSF0pW0NIMl1bQ0BIXTFbQ0BASF0oW0NIMl0zKU49W04rXT1bTi1d

>  <s_epik_cmdline>  (92) 
J2VwaWtfcHl0aG9uJywgJy1waHQnLCAnMi4wJywgJy1waCcsICc3LjAnLCAnLXRuJywgJzgnLCAnLW1hJywgJzIwMCcsICctaW1hZScsICc8aW5maWxlLm1hZT4nLCAnLW9tYWUnLCAnPG91dGZpbGUubWFlPic=

>  <r_epik_Ionization_Penalty>  (92) 
0.000418911

>  <r_epik_Ionization_Penalty_Charging>  (92) 
0.000417939

>  <r_epik_Ionization_Penalty_Neutral>  (92) 
9.71677e-07

>  <r_epik_State_Penalty>  (92) 
0.000256906

>  <r_epik_Charging_Adjusted_Penalty>  (92) 
0.000674845

>  <i_epik_Tot_Q>  (92) 
-1

>  <i_epik_Tot_abs_Q>  (92) 
3

>  <s_lp_Force_Field>  (92) 
OPLS3e

>  <r_lp_Energy>  (92) 
84.716

>  <b_lp_Chiralities_Consistent>  (92) 
1

>  <s_lp_Variant>  (92) 
26:0-1

>  <s_i_glide_gridfile>  (92) 
pfpi4k_grid

>  <i_i_glide_lignum>  (92) 
42

>  <i_i_glide_rotatable_bonds>  (92) 
3

>  <r_i_docking_score>  (92) 
-3.36593

>  <r_i_glide_ligand_efficiency>  (92) 
-0.168297

>  <r_i_glide_ligand_efficiency_sa>  (92) 
-0.456827

>  <r_i_glide_ligand_efficiency_ln>  (92) 
-0.842381

>  <r_i_glide_gscore>  (92) 
-3.36593

>  <r_i_glide_lipo>  (92) 
-0.415685

>  <r_i_glide_hbond>  (92) 
-0.164768

>  <r_i_glide_metal>  (92) 
-0

>  <r_i_glide_rewards>  (92) 
-1.6565

>  <r_i_glide_evdw>  (92) 
-24.0198

>  <r_i_glide_ecoul>  (92) 
-0.544504

>  <r_i_glide_erotb>  (92) 
0.227026

>  <r_i_glide_esite>  (92) 
-0.0733349

>  <r_i_glide_emodel>  (92) 
-32.3121

>  <r_i_glide_energy>  (92) 
-24.5643

>  <r_i_glide_einternal>  (92) 
0.653284

>  <r_i_glide_intrahb_reward>  (92) 
-0

>  <i_i_glide_confnum>  (92) 
5

>  <i_i_glide_posenum>  (92) 
2

>  <r_i_glide_eff_state_penalty>  (92) 
0

>  <ligand_id>  (92) 
26

>  <original_smiles>  (92) 
CC1(O)CC2CC(N=[N+]=[N-])C3CC1C(F)(C(=O)O)C23C

>  <smiles>  (92) 
[H]OC1(C([H])([H])[H])C([H])([H])C2([H])C([H])([H])C([H])(N=[N+]=[N-])C3([H])C([H])([H])C1([H])C(F)(C(=O)[O-])C23C([H])([H])[H]

$$$$
27:0:0
     RDKit          3D

 24 25  0  0  1  0  0  0  0  0999 V2000
    2.1189  -11.4367    3.5727 C   0  0  0  0  0  0  0  0  0  0  0  0
    1.4462  -10.3504    3.0698 C   0  0  0  0  0  0  0  0  0  0  0  0
    0.6506   -9.8750    4.0841 N   0  0  0  0  0  0  0  0  0  0  0  0
   -0.2548   -8.7243    4.0231 C   0  0  0  0  0  0  0  0  0  0  0  0
    0.0572   -7.6795    5.1086 C   0  0  0  0  0  0  0  0  0  0  0  0
   -0.7845   -6.3988    4.9842 C   0  0  0  0  0  0  0  0  0  0  0  0
   -0.5427   -5.4823    6.0849 N   0  0  0  0  0  0  0  0  0  0  0  0
   -1.3728   -4.9704    6.9929 C   0  0  0  0  0  0  0  0  0  0  0  0
   -0.7531   -4.1376    7.8149 N   0  0  0  0  0  0  0  0  0  0  0  0
    0.5514   -4.1599    7.3525 N   0  0  0  0  0  0  0  0  0  0  0  0
    0.6799   -4.9436    6.3158 N   0  0  0  0  0  0  0  0  0  0  0  0
    0.8002  -10.6456    5.1726 C   0  0  0  0  0  0  0  0  0  0  0  0
    1.7025  -11.5811    4.8712 N   0  0  0  0  0  0  0  0  0  0  0  0
    2.8381  -12.0998    3.1061 H   0  0  0  0  0  0  0  0  0  0  0  0
    1.4773   -9.8970    2.0857 H   0  0  0  0  0  0  0  0  0  0  0  0
   -0.1426   -8.2782    3.0342 H   0  0  0  0  0  0  0  0  0  0  0  0
   -1.2823   -9.0858    4.0998 H   0  0  0  0  0  0  0  0  0  0  0  0
   -0.1153   -8.1209    6.0904 H   0  0  0  0  0  0  0  0  0  0  0  0
    1.1159   -7.4218    5.0589 H   0  0  0  0  0  0  0  0  0  0  0  0
   -0.5627   -5.8790    4.0511 H   0  0  0  0  0  0  0  0  0  0  0  0
   -1.8462   -6.6500    4.9665 H   0  0  0  0  0  0  0  0  0  0  0  0
   -2.4278   -5.1979    7.0512 H   0  0  0  0  0  0  0  0  0  0  0  0
    0.2994  -10.5508    6.1198 H   0  0  0  0  0  0  0  0  0  0  0  0
    1.9995  -12.3001    5.5277 H   0  0  0  0  0  0  0  0  0  0  0  0
  1 13  1  0
  1  2  2  0
  1 14  1  0
  2  3  1  0
  2 15  1  0
  3  4  1  0
  3 12  1  0
  4  5  1  0
  4 16  1  0
  4 17  1  0
  5  6  1  0
  5 18  1  0
  5 19  1  0
  6  7  1  0
  6 20  1  0
  6 21  1  0
  7 11  1  0
  7  8  1  0
  8  9  2  0
  8 22  1  0
  9 10  1  0
 10 11  2  0
 12 13  2  0
 12 23  1  0
 13 24  1  0
M  CHG  1  13   1
M  END
>  <i_m_ct_stereo_status>  (93) 
1

>  <s_m_source_file>  (93) 
/var/tmp/pbs.5076255.sched01/tmpmzpp47sj/0ood7iq68.sdf

>  <i_m_source_file_index>  (93) 
43

>  <i_lp_mmshare_version>  (93) 
48012

>  <i_f3d_flags>  (93) 
0

>  <s_epik_input>  (93) 
W2NIXTFuW2NIXVtjSF1uMVtDSDJdW0NIMl1bQ0gyXW4yW2NIXW5ubjI=

>  <s_epik_cmdline>  (93) 
J2VwaWtfcHl0aG9uJywgJy1waHQnLCAnMi4wJywgJy1waCcsICc3LjAnLCAnLXRuJywgJzgnLCAnLW1hJywgJzIwMCcsICctaW1hZScsICc8aW5maWxlLm1hZT4nLCAnLW9tYWUnLCAnPG91dGZpbGUubWFlPic=

>  <r_lp_tautomer_probability>  (93) 
1

>  <r_epik_Ionization_Penalty>  (93) 
0.34359

>  <r_epik_Ionization_Penalty_Charging>  (93) 
0

>  <r_epik_Ionization_Penalty_Neutral>  (93) 
0.34359

>  <r_epik_State_Penalty>  (93) 
0.339395

>  <r_epik_Charging_Adjusted_Penalty>  (93) 
0.339395

>  <i_epik_Tot_Q>  (93) 
1

>  <i_epik_Tot_abs_Q>  (93) 
1

>  <s_lp_Force_Field>  (93) 
OPLS3e

>  <r_lp_Energy>  (93) 
15.8402

>  <b_lp_Chiralities_Consistent>  (93) 
1

>  <s_lp_Variant>  (93) 
27:0-1

>  <s_i_glide_gridfile>  (93) 
pfpi4k_grid

>  <i_i_glide_lignum>  (93) 
43

>  <i_i_glide_rotatable_bonds>  (93) 
4

>  <r_i_docking_score>  (93) 
-4.16476

>  <r_i_glide_ligand_efficiency>  (93) 
-0.320366

>  <r_i_glide_ligand_efficiency_sa>  (93) 
-0.753287

>  <r_i_glide_ligand_efficiency_ln>  (93) 
-1.16825

>  <r_i_glide_gscore>  (93) 
-4.16476

>  <r_i_glide_lipo>  (93) 
-0.17965

>  <r_i_glide_hbond>  (93) 
-0.0652105

>  <r_i_glide_metal>  (93) 
-0

>  <r_i_glide_rewards>  (93) 
-2.82805

>  <r_i_glide_evdw>  (93) 
-13.9114

>  <r_i_glide_ecoul>  (93) 
-5.76179

>  <r_i_glide_erotb>  (93) 
0.685537

>  <r_i_glide_esite>  (93) 
-0.21755

>  <r_i_glide_emodel>  (93) 
-29.2964

>  <r_i_glide_energy>  (93) 
-19.6732

>  <r_i_glide_einternal>  (93) 
0.53406

>  <r_i_glide_intrahb_reward>  (93) 
-0

>  <i_i_glide_confnum>  (93) 
1

>  <i_i_glide_posenum>  (93) 
38

>  <r_i_glide_eff_state_penalty>  (93) 
0

>  <ligand_id>  (93) 
27

>  <original_smiles>  (93) 
c1cn(CCCn2cnnn2)cn1

>  <smiles>  (93) 
[H]c1nnnn1C([H])([H])C([H])([H])C([H])([H])n1c([H])c([H])[n+]([H])c1[H]

$$$$
27:0:1
     RDKit          3D

 24 25  0  0  1  0  0  0  0  0999 V2000
    3.3938  -11.8326    3.8183 C   0  0  0  0  0  0  0  0  0  0  0  0
    2.7184  -11.0761    2.8928 C   0  0  0  0  0  0  0  0  0  0  0  0
    1.4605  -10.8707    3.3998 N   0  0  0  0  0  0  0  0  0  0  0  0
    0.3832  -10.0821    2.7963 C   0  0  0  0  0  0  0  0  0  0  0  0
    0.3235   -8.6416    3.3398 C   0  0  0  0  0  0  0  0  0  0  0  0
    0.2055   -8.5714    4.8750 C   0  0  0  0  0  0  0  0  0  0  0  0
    0.3089   -7.2299    5.3872 N   0  0  0  0  0  0  0  0  0  0  0  0
    1.1698   -6.7189    6.2650 C   0  0  0  0  0  0  0  0  0  0  0  0
    0.9114   -5.4438    6.5035 N   0  0  0  0  0  0  0  0  0  0  0  0
   -0.1892   -5.1913    5.7052 N   0  0  0  0  0  0  0  0  0  0  0  0
   -0.5594   -6.2507    5.0448 N   0  0  0  0  0  0  0  0  0  0  0  0
    1.3386  -11.4925    4.5824 C   0  0  0  0  0  0  0  0  0  0  0  0
    2.5232  -12.0444    4.8592 N   0  0  0  0  0  0  0  0  0  0  0  0
    4.4059  -12.2192    3.8000 H   0  0  0  0  0  0  0  0  0  0  0  0
    3.0403  -10.6870    1.9311 H   0  0  0  0  0  0  0  0  0  0  0  0
    0.5711  -10.0633    1.7227 H   0  0  0  0  0  0  0  0  0  0  0  0
   -0.5645  -10.5993    2.9606 H   0  0  0  0  0  0  0  0  0  0  0  0
    1.2135   -8.1014    3.0137 H   0  0  0  0  0  0  0  0  0  0  0  0
   -0.5222   -8.1293    2.8806 H   0  0  0  0  0  0  0  0  0  0  0  0
   -0.7322   -9.0221    5.2109 H   0  0  0  0  0  0  0  0  0  0  0  0
    1.0231   -9.1095    5.3497 H   0  0  0  0  0  0  0  0  0  0  0  0
    1.9801   -7.2737    6.7278 H   0  0  0  0  0  0  0  0  0  0  0  0
    0.4756  -11.5101    5.2253 H   0  0  0  0  0  0  0  0  0  0  0  0
    2.7015  -12.5677    5.7168 H   0  0  0  0  0  0  0  0  0  0  0  0
  1 13  1  0
  1  2  2  0
  1 14  1  0
  2  3  1  0
  2 15  1  0
  3  4  1  0
  3 12  1  0
  4  5  1  0
  4 16  1  0
  4 17  1  0
  5  6  1  0
  5 18  1  0
  5 19  1  0
  6  7  1  0
  6 20  1  0
  6 21  1  0
  7 11  1  0
  7  8  1  0
  8  9  2  0
  8 22  1  0
  9 10  1  0
 10 11  2  0
 12 13  2  0
 12 23  1  0
 13 24  1  0
M  CHG  1  13   1
M  END
>  <i_m_ct_stereo_status>  (94) 
1

>  <s_m_source_file>  (94) 
/var/tmp/pbs.5076255.sched01/tmpmzpp47sj/0ood7iq68.sdf

>  <i_m_source_file_index>  (94) 
43

>  <i_lp_mmshare_version>  (94) 
48012

>  <i_f3d_flags>  (94) 
0

>  <s_epik_input>  (94) 
W2NIXTFuW2NIXVtjSF1uMVtDSDJdW0NIMl1bQ0gyXW4yW2NIXW5ubjI=

>  <s_epik_cmdline>  (94) 
J2VwaWtfcHl0aG9uJywgJy1waHQnLCAnMi4wJywgJy1waCcsICc3LjAnLCAnLXRuJywgJzgnLCAnLW1hJywgJzIwMCcsICctaW1hZScsICc8aW5maWxlLm1hZT4nLCAnLW9tYWUnLCAnPG91dGZpbGUubWFlPic=

>  <r_lp_tautomer_probability>  (94) 
1

>  <r_epik_Ionization_Penalty>  (94) 
0.34359

>  <r_epik_Ionization_Penalty_Charging>  (94) 
0

>  <r_epik_Ionization_Penalty_Neutral>  (94) 
0.34359

>  <r_epik_State_Penalty>  (94) 
0.339395

>  <r_epik_Charging_Adjusted_Penalty>  (94) 
0.339395

>  <i_epik_Tot_Q>  (94) 
1

>  <i_epik_Tot_abs_Q>  (94) 
1

>  <s_lp_Force_Field>  (94) 
OPLS3e

>  <r_lp_Energy>  (94) 
15.8402

>  <b_lp_Chiralities_Consistent>  (94) 
1

>  <s_lp_Variant>  (94) 
27:0-1

>  <s_i_glide_gridfile>  (94) 
pfpi4k_grid

>  <i_i_glide_lignum>  (94) 
43

>  <i_i_glide_rotatable_bonds>  (94) 
4

>  <r_i_docking_score>  (94) 
-4.07713

>  <r_i_glide_ligand_efficiency>  (94) 
-0.313625

>  <r_i_glide_ligand_efficiency_sa>  (94) 
-0.737438

>  <r_i_glide_ligand_efficiency_ln>  (94) 
-1.14367

>  <r_i_glide_gscore>  (94) 
-4.07713

>  <r_i_glide_lipo>  (94) 
-0.0691473

>  <r_i_glide_hbond>  (94) 
-0.103422

>  <r_i_glide_metal>  (94) 
-0

>  <r_i_glide_rewards>  (94) 
-2.94165

>  <r_i_glide_evdw>  (94) 
-13.1394

>  <r_i_glide_ecoul>  (94) 
-5.81448

>  <r_i_glide_erotb>  (94) 
0.685537

>  <r_i_glide_esite>  (94) 
-0.119308

>  <r_i_glide_emodel>  (94) 
-28.0669

>  <r_i_glide_energy>  (94) 
-18.9539

>  <r_i_glide_einternal>  (94) 
0.517934

>  <r_i_glide_intrahb_reward>  (94) 
-0

>  <i_i_glide_confnum>  (94) 
2

>  <i_i_glide_posenum>  (94) 
1

>  <r_i_glide_eff_state_penalty>  (94) 
0

>  <ligand_id>  (94) 
27

>  <original_smiles>  (94) 
c1cn(CCCn2cnnn2)cn1

>  <smiles>  (94) 
[H]c1nnnn1C([H])([H])C([H])([H])C([H])([H])n1c([H])c([H])[n+]([H])c1[H]

$$$$
27:0:2
     RDKit          3D

 24 25  0  0  1  0  0  0  0  0999 V2000
    2.2236    0.8095    1.8018 C   0  0  0  0  0  0  0  0  0  0  0  0
    0.9156    0.5424    2.0890 C   0  0  0  0  0  0  0  0  0  0  0  0
    0.4874    1.5270    2.9365 N   0  0  0  0  0  0  0  0  0  0  0  0
   -0.8554    1.6636    3.5076 C   0  0  0  0  0  0  0  0  0  0  0  0
   -1.8125    2.3972    2.5587 C   0  0  0  0  0  0  0  0  0  0  0  0
   -3.0669    2.9492    3.2525 C   0  0  0  0  0  0  0  0  0  0  0  0
   -3.6804    4.0058    2.4753 N   0  0  0  0  0  0  0  0  0  0  0  0
   -4.7652    4.0289    1.7154 C   0  0  0  0  0  0  0  0  0  0  0  0
   -4.9828    5.2307    1.2117 N   0  0  0  0  0  0  0  0  0  0  0  0
   -3.9461    5.9830    1.6962 N   0  0  0  0  0  0  0  0  0  0  0  0
   -3.1706    5.2569    2.4731 N   0  0  0  0  0  0  0  0  0  0  0  0
    1.4880    2.3925    3.1707 C   0  0  0  0  0  0  0  0  0  0  0  0
    2.5531    1.9494    2.4852 N   0  0  0  0  0  0  0  0  0  0  0  0
    2.9208    0.2883    1.1600 H   0  0  0  0  0  0  0  0  0  0  0  0
    0.2730   -0.2479    1.7426 H   0  0  0  0  0  0  0  0  0  0  0  0
   -1.2432    0.6650    3.7147 H   0  0  0  0  0  0  0  0  0  0  0  0
   -0.7765    2.1781    4.4670 H   0  0  0  0  0  0  0  0  0  0  0  0
   -1.2816    3.2290    2.1056 H   0  0  0  0  0  0  0  0  0  0  0  0
   -2.1064    1.7425    1.7381 H   0  0  0  0  0  0  0  0  0  0  0  0
   -3.8006    2.1649    3.4089 H   0  0  0  0  0  0  0  0  0  0  0  0
   -2.8376    3.3499    4.2386 H   0  0  0  0  0  0  0  0  0  0  0  0
   -5.3937    3.1688    1.5444 H   0  0  0  0  0  0  0  0  0  0  0  0
    1.4525    3.2745    3.7741 H   0  0  0  0  0  0  0  0  0  0  0  0
    3.4590    2.4035    2.4530 H   0  0  0  0  0  0  0  0  0  0  0  0
  1 13  1  0
  1  2  2  0
  1 14  1  0
  2  3  1  0
  2 15  1  0
  3  4  1  0
  3 12  1  0
  4  5  1  0
  4 16  1  0
  4 17  1  0
  5  6  1  0
  5 18  1  0
  5 19  1  0
  6  7  1  0
  6 20  1  0
  6 21  1  0
  7 11  1  0
  7  8  1  0
  8  9  2  0
  8 22  1  0
  9 10  1  0
 10 11  2  0
 12 13  2  0
 12 23  1  0
 13 24  1  0
M  CHG  1  13   1
M  END
>  <i_m_ct_stereo_status>  (95) 
1

>  <s_m_source_file>  (95) 
/var/tmp/pbs.5076255.sched01/tmpmzpp47sj/0ood7iq68.sdf

>  <i_m_source_file_index>  (95) 
43

>  <i_lp_mmshare_version>  (95) 
48012

>  <i_f3d_flags>  (95) 
0

>  <s_epik_input>  (95) 
W2NIXTFuW2NIXVtjSF1uMVtDSDJdW0NIMl1bQ0gyXW4yW2NIXW5ubjI=

>  <s_epik_cmdline>  (95) 
J2VwaWtfcHl0aG9uJywgJy1waHQnLCAnMi4wJywgJy1waCcsICc3LjAnLCAnLXRuJywgJzgnLCAnLW1hJywgJzIwMCcsICctaW1hZScsICc8aW5maWxlLm1hZT4nLCAnLW9tYWUnLCAnPG91dGZpbGUubWFlPic=

>  <r_lp_tautomer_probability>  (95) 
1

>  <r_epik_Ionization_Penalty>  (95) 
0.34359

>  <r_epik_Ionization_Penalty_Charging>  (95) 
0

>  <r_epik_Ionization_Penalty_Neutral>  (95) 
0.34359

>  <r_epik_State_Penalty>  (95) 
0.339395

>  <r_epik_Charging_Adjusted_Penalty>  (95) 
0.339395

>  <i_epik_Tot_Q>  (95) 
1

>  <i_epik_Tot_abs_Q>  (95) 
1

>  <s_lp_Force_Field>  (95) 
OPLS3e

>  <r_lp_Energy>  (95) 
15.8402

>  <b_lp_Chiralities_Consistent>  (95) 
1

>  <s_lp_Variant>  (95) 
27:0-1

>  <s_i_glide_gridfile>  (95) 
pfpi4k_grid

>  <i_i_glide_lignum>  (95) 
43

>  <i_i_glide_rotatable_bonds>  (95) 
4

>  <r_i_docking_score>  (95) 
-3.82336

>  <r_i_glide_ligand_efficiency>  (95) 
-0.294105

>  <r_i_glide_ligand_efficiency_sa>  (95) 
-0.691538

>  <r_i_glide_ligand_efficiency_ln>  (95) 
-1.07249

>  <r_i_glide_gscore>  (95) 
-3.82336

>  <r_i_glide_lipo>  (95) 
0

>  <r_i_glide_hbond>  (95) 
0

>  <r_i_glide_metal>  (95) 
-0

>  <r_i_glide_rewards>  (95) 
-2.63541

>  <r_i_glide_evdw>  (95) 
-12.5639

>  <r_i_glide_ecoul>  (95) 
-8.69475

>  <r_i_glide_erotb>  (95) 
0.979339

>  <r_i_glide_esite>  (95) 
-0.234879

>  <r_i_glide_emodel>  (95) 
-29.3279

>  <r_i_glide_energy>  (95) 
-21.2586

>  <r_i_glide_einternal>  (95) 
1.68488

>  <r_i_glide_intrahb_reward>  (95) 
-0

>  <i_i_glide_confnum>  (95) 
5

>  <i_i_glide_posenum>  (95) 
14

>  <r_i_glide_eff_state_penalty>  (95) 
0

>  <ligand_id>  (95) 
27

>  <original_smiles>  (95) 
c1cn(CCCn2cnnn2)cn1

>  <smiles>  (95) 
[H]c1nnnn1C([H])([H])C([H])([H])C([H])([H])n1c([H])c([H])[n+]([H])c1[H]

$$$$
27:1:0
     RDKit          3D

 23 24  0  0  1  0  0  0  0  0999 V2000
   -1.3131   -8.1814    2.3189 C   0  0  0  0  0  0  0  0  0  0  0  0
   -0.7231   -9.0552    3.1993 C   0  0  0  0  0  0  0  0  0  0  0  0
    0.3744   -8.4003    3.7372 N   0  0  0  0  0  0  0  0  0  0  0  0
    1.3040   -8.9145    4.7227 C   0  0  0  0  0  0  0  0  0  0  0  0
    0.8018   -8.6511    6.1472 C   0  0  0  0  0  0  0  0  0  0  0  0
    1.8092   -9.0808    7.2239 C   0  0  0  0  0  0  0  0  0  0  0  0
    1.2511   -8.9804    8.5586 N   0  0  0  0  0  0  0  0  0  0  0  0
    1.3011   -9.8330    9.5829 C   0  0  0  0  0  0  0  0  0  0  0  0
    0.6585   -9.3657   10.6429 N   0  0  0  0  0  0  0  0  0  0  0  0
    0.2166   -8.1233   10.2204 N   0  0  0  0  0  0  0  0  0  0  0  0
    0.5776   -7.8815    8.9886 N   0  0  0  0  0  0  0  0  0  0  0  0
    0.3850   -7.1885    3.1643 C   0  0  0  0  0  0  0  0  0  0  0  0
   -0.6014   -6.9816    2.3007 N   0  0  0  0  0  0  0  0  0  0  0  0
   -2.1896   -8.3251    1.7034 H   0  0  0  0  0  0  0  0  0  0  0  0
   -0.9854  -10.0637    3.4865 H   0  0  0  0  0  0  0  0  0  0  0  0
    1.4355   -9.9839    4.5531 H   0  0  0  0  0  0  0  0  0  0  0  0
    2.2751   -8.4449    4.5622 H   0  0  0  0  0  0  0  0  0  0  0  0
    0.5824   -7.5891    6.2606 H   0  0  0  0  0  0  0  0  0  0  0  0
   -0.1412   -9.1780    6.3030 H   0  0  0  0  0  0  0  0  0  0  0  0
    2.1149  -10.1166    7.0660 H   0  0  0  0  0  0  0  0  0  0  0  0
    2.7144   -8.4739    7.1770 H   0  0  0  0  0  0  0  0  0  0  0  0
    1.7771  -10.8007    9.5364 H   0  0  0  0  0  0  0  0  0  0  0  0
    1.1249   -6.4334    3.3925 H   0  0  0  0  0  0  0  0  0  0  0  0
  1 13  1  0
  1  2  2  0
  1 14  1  0
  2  3  1  0
  2 15  1  0
  3  4  1  0
  3 12  1  0
  4  5  1  0
  4 16  1  0
  4 17  1  0
  5  6  1  0
  5 18  1  0
  5 19  1  0
  6  7  1  0
  6 20  1  0
  6 21  1  0
  7 11  1  0
  7  8  1  0
  8  9  2  0
  8 22  1  0
  9 10  1  0
 10 11  2  0
 12 13  2  0
 12 23  1  0
M  END
>  <i_m_ct_stereo_status>  (96) 
1

>  <s_m_source_file>  (96) 
/var/tmp/pbs.5076255.sched01/tmpmzpp47sj/0ood7iq68.sdf

>  <i_m_source_file_index>  (96) 
44

>  <i_lp_mmshare_version>  (96) 
48012

>  <i_f3d_flags>  (96) 
0

>  <s_epik_input>  (96) 
W2NIXTFuW2NIXVtjSF1uMVtDSDJdW0NIMl1bQ0gyXW4yW2NIXW5ubjI=

>  <s_epik_cmdline>  (96) 
J2VwaWtfcHl0aG9uJywgJy1waHQnLCAnMi4wJywgJy1waCcsICc3LjAnLCAnLXRuJywgJzgnLCAnLW1hJywgJzIwMCcsICctaW1hZScsICc8aW5maWxlLm1hZT4nLCAnLW9tYWUnLCAnPG91dGZpbGUubWFlPic=

>  <r_lp_tautomer_probability>  (96) 
1

>  <r_epik_Ionization_Penalty>  (96) 
0.486349

>  <r_epik_Ionization_Penalty_Charging>  (96) 
0.486349

>  <r_epik_Ionization_Penalty_Neutral>  (96) 
1.84862e-09

>  <r_epik_State_Penalty>  (96) 
0.49173

>  <r_epik_Charging_Adjusted_Penalty>  (96) 
0.978078

>  <i_epik_Tot_Q>  (96) 
0

>  <i_epik_Tot_abs_Q>  (96) 
0

>  <s_lp_Force_Field>  (96) 
OPLS3e

>  <r_lp_Energy>  (96) 
8.69407

>  <b_lp_Chiralities_Consistent>  (96) 
1

>  <s_lp_Variant>  (96) 
27:0-2

>  <s_i_glide_gridfile>  (96) 
pfpi4k_grid

>  <i_i_glide_lignum>  (96) 
44

>  <i_i_glide_rotatable_bonds>  (96) 
4

>  <r_i_docking_score>  (96) 
-3.36378

>  <r_i_glide_ligand_efficiency>  (96) 
-0.258752

>  <r_i_glide_ligand_efficiency_sa>  (96) 
-0.608413

>  <r_i_glide_ligand_efficiency_ln>  (96) 
-0.94357

>  <r_i_glide_gscore>  (96) 
-3.36378

>  <r_i_glide_lipo>  (96) 
0

>  <r_i_glide_hbond>  (96) 
-0.16

>  <r_i_glide_metal>  (96) 
-0

>  <r_i_glide_rewards>  (96) 
-2.19413

>  <r_i_glide_evdw>  (96) 
-14.051

>  <r_i_glide_ecoul>  (96) 
-6.6202

>  <r_i_glide_erotb>  (96) 
0.988447

>  <r_i_glide_esite>  (96) 
-0.302518

>  <r_i_glide_emodel>  (96) 
-25.9139

>  <r_i_glide_energy>  (96) 
-20.6712

>  <r_i_glide_einternal>  (96) 
0.621011

>  <r_i_glide_intrahb_reward>  (96) 
-0

>  <i_i_glide_confnum>  (96) 
1

>  <i_i_glide_posenum>  (96) 
21

>  <r_i_glide_eff_state_penalty>  (96) 
0

>  <ligand_id>  (96) 
27

>  <original_smiles>  (96) 
c1cn(CCCn2cnnn2)cn1

>  <smiles>  (96) 
[H]c1nc([H])n(C([H])([H])C([H])([H])C([H])([H])n2nnnc2[H])c1[H]

$$$$
27:1:1
     RDKit          3D

 23 24  0  0  1  0  0  0  0  0999 V2000
    5.6277   -1.1787    1.3110 C   0  0  0  0  0  0  0  0  0  0  0  0
    4.7372   -0.3571    1.9624 C   0  0  0  0  0  0  0  0  0  0  0  0
    3.6113   -0.2704    1.1545 N   0  0  0  0  0  0  0  0  0  0  0  0
    2.4080    0.4920    1.4203 C   0  0  0  0  0  0  0  0  0  0  0  0
    1.5930   -0.1489    2.5495 C   0  0  0  0  0  0  0  0  0  0  0  0
    0.2659    0.5755    2.8362 C   0  0  0  0  0  0  0  0  0  0  0  0
   -0.4470    0.0336    3.9881 N   0  0  0  0  0  0  0  0  0  0  0  0
   -1.3865    0.5840    4.7556 C   0  0  0  0  0  0  0  0  0  0  0  0
   -1.8088   -0.2540    5.6893 N   0  0  0  0  0  0  0  0  0  0  0  0
   -1.0715   -1.3973    5.4514 N   0  0  0  0  0  0  0  0  0  0  0  0
   -0.2638   -1.2364    4.4408 N   0  0  0  0  0  0  0  0  0  0  0  0
    3.8730   -1.0389    0.0867 C   0  0  0  0  0  0  0  0  0  0  0  0
    5.0761   -1.6022    0.1042 N   0  0  0  0  0  0  0  0  0  0  0  0
    6.6151   -1.4977    1.6174 H   0  0  0  0  0  0  0  0  0  0  0  0
    4.8124    0.1579    2.9095 H   0  0  0  0  0  0  0  0  0  0  0  0
    2.6904    1.5134    1.6827 H   0  0  0  0  0  0  0  0  0  0  0  0
    1.8110    0.5447    0.5100 H   0  0  0  0  0  0  0  0  0  0  0  0
    1.3885   -1.1880    2.2856 H   0  0  0  0  0  0  0  0  0  0  0  0
    2.1961   -0.1621    3.4586 H   0  0  0  0  0  0  0  0  0  0  0  0
    0.4604    1.6342    3.0229 H   0  0  0  0  0  0  0  0  0  0  0  0
   -0.3883    0.5301    1.9629 H   0  0  0  0  0  0  0  0  0  0  0  0
   -1.7667    1.5888    4.6313 H   0  0  0  0  0  0  0  0  0  0  0  0
    3.1674   -1.1703   -0.7222 H   0  0  0  0  0  0  0  0  0  0  0  0
  1 13  1  0
  1  2  2  0
  1 14  1  0
  2  3  1  0
  2 15  1  0
  3  4  1  0
  3 12  1  0
  4  5  1  0
  4 16  1  0
  4 17  1  0
  5  6  1  0
  5 18  1  0
  5 19  1  0
  6  7  1  0
  6 20  1  0
  6 21  1  0
  7 11  1  0
  7  8  1  0
  8  9  2  0
  8 22  1  0
  9 10  1  0
 10 11  2  0
 12 13  2  0
 12 23  1  0
M  END
>  <i_m_ct_stereo_status>  (97) 
1

>  <s_m_source_file>  (97) 
/var/tmp/pbs.5076255.sched01/tmpmzpp47sj/0ood7iq68.sdf

>  <i_m_source_file_index>  (97) 
44

>  <i_lp_mmshare_version>  (97) 
48012

>  <i_f3d_flags>  (97) 
0

>  <s_epik_input>  (97) 
W2NIXTFuW2NIXVtjSF1uMVtDSDJdW0NIMl1bQ0gyXW4yW2NIXW5ubjI=

>  <s_epik_cmdline>  (97) 
J2VwaWtfcHl0aG9uJywgJy1waHQnLCAnMi4wJywgJy1waCcsICc3LjAnLCAnLXRuJywgJzgnLCAnLW1hJywgJzIwMCcsICctaW1hZScsICc8aW5maWxlLm1hZT4nLCAnLW9tYWUnLCAnPG91dGZpbGUubWFlPic=

>  <r_lp_tautomer_probability>  (97) 
1

>  <r_epik_Ionization_Penalty>  (97) 
0.486349

>  <r_epik_Ionization_Penalty_Charging>  (97) 
0.486349

>  <r_epik_Ionization_Penalty_Neutral>  (97) 
1.84862e-09

>  <r_epik_State_Penalty>  (97) 
0.49173

>  <r_epik_Charging_Adjusted_Penalty>  (97) 
0.978078

>  <i_epik_Tot_Q>  (97) 
0

>  <i_epik_Tot_abs_Q>  (97) 
0

>  <s_lp_Force_Field>  (97) 
OPLS3e

>  <r_lp_Energy>  (97) 
8.69407

>  <b_lp_Chiralities_Consistent>  (97) 
1

>  <s_lp_Variant>  (97) 
27:0-2

>  <s_i_glide_gridfile>  (97) 
pfpi4k_grid

>  <i_i_glide_lignum>  (97) 
44

>  <i_i_glide_rotatable_bonds>  (97) 
4

>  <r_i_docking_score>  (97) 
-3.16627

>  <r_i_glide_ligand_efficiency>  (97) 
-0.243559

>  <r_i_glide_ligand_efficiency_sa>  (97) 
-0.572689

>  <r_i_glide_ligand_efficiency_ln>  (97) 
-0.888167

>  <r_i_glide_gscore>  (97) 
-3.16627

>  <r_i_glide_lipo>  (97) 
-0.270582

>  <r_i_glide_hbond>  (97) 
0

>  <r_i_glide_metal>  (97) 
-0

>  <r_i_glide_rewards>  (97) 
-2.19413

>  <r_i_glide_evdw>  (97) 
-17.7784

>  <r_i_glide_ecoul>  (97) 
-3.75699

>  <r_i_glide_erotb>  (97) 
0.988447

>  <r_i_glide_esite>  (97) 
-0.237537

>  <r_i_glide_emodel>  (97) 
-26.0728

>  <r_i_glide_energy>  (97) 
-21.5354

>  <r_i_glide_einternal>  (97) 
1.35871

>  <r_i_glide_intrahb_reward>  (97) 
-0

>  <i_i_glide_confnum>  (97) 
1

>  <i_i_glide_posenum>  (97) 
35

>  <r_i_glide_eff_state_penalty>  (97) 
0

>  <ligand_id>  (97) 
27

>  <original_smiles>  (97) 
c1cn(CCCn2cnnn2)cn1

>  <smiles>  (97) 
[H]c1nc([H])n(C([H])([H])C([H])([H])C([H])([H])n2nnnc2[H])c1[H]

$$$$
27:1:2
     RDKit          3D

 23 24  0  0  1  0  0  0  0  0999 V2000
    0.5868   -7.2274    1.7661 C   0  0  0  0  0  0  0  0  0  0  0  0
    0.6212   -6.6320    3.0056 C   0  0  0  0  0  0  0  0  0  0  0  0
    1.4396   -5.5124    2.8873 N   0  0  0  0  0  0  0  0  0  0  0  0
    1.7685   -4.5510    3.9197 C   0  0  0  0  0  0  0  0  0  0  0  0
    0.6302   -3.5411    4.1234 C   0  0  0  0  0  0  0  0  0  0  0  0
    0.9862   -2.4241    5.1119 C   0  0  0  0  0  0  0  0  0  0  0  0
   -0.0702   -1.4339    5.2144 N   0  0  0  0  0  0  0  0  0  0  0  0
   -0.0699   -0.1233    4.9554 C   0  0  0  0  0  0  0  0  0  0  0  0
   -1.2439    0.4247    5.2175 N   0  0  0  0  0  0  0  0  0  0  0  0
   -2.0011   -0.6468    5.6575 N   0  0  0  0  0  0  0  0  0  0  0  0
   -1.3088   -1.7518    5.6697 N   0  0  0  0  0  0  0  0  0  0  0  0
    1.8566   -5.4999    1.6138 C   0  0  0  0  0  0  0  0  0  0  0  0
    1.3417   -6.4718    0.8741 N   0  0  0  0  0  0  0  0  0  0  0  0
    0.0831   -8.1283    1.4432 H   0  0  0  0  0  0  0  0  0  0  0  0
    0.1480   -6.9153    3.9346 H   0  0  0  0  0  0  0  0  0  0  0  0
    1.9673   -5.0929    4.8456 H   0  0  0  0  0  0  0  0  0  0  0  0
    2.6871   -4.0345    3.6366 H   0  0  0  0  0  0  0  0  0  0  0  0
    0.3647   -3.0846    3.1693 H   0  0  0  0  0  0  0  0  0  0  0  0
   -0.2491   -4.0755    4.4793 H   0  0  0  0  0  0  0  0  0  0  0  0
    1.1791   -2.8332    6.1046 H   0  0  0  0  0  0  0  0  0  0  0  0
    1.8957   -1.9200    4.7805 H   0  0  0  0  0  0  0  0  0  0  0  0
    0.7882    0.4244    4.5874 H   0  0  0  0  0  0  0  0  0  0  0  0
    2.5093   -4.7369    1.2087 H   0  0  0  0  0  0  0  0  0  0  0  0
  1 13  1  0
  1  2  2  0
  1 14  1  0
  2  3  1  0
  2 15  1  0
  3  4  1  0
  3 12  1  0
  4  5  1  0
  4 16  1  0
  4 17  1  0
  5  6  1  0
  5 18  1  0
  5 19  1  0
  6  7  1  0
  6 20  1  0
  6 21  1  0
  7 11  1  0
  7  8  1  0
  8  9  2  0
  8 22  1  0
  9 10  1  0
 10 11  2  0
 12 13  2  0
 12 23  1  0
M  END
>  <i_m_ct_stereo_status>  (98) 
1

>  <s_m_source_file>  (98) 
/var/tmp/pbs.5076255.sched01/tmpmzpp47sj/0ood7iq68.sdf

>  <i_m_source_file_index>  (98) 
44

>  <i_lp_mmshare_version>  (98) 
48012

>  <i_f3d_flags>  (98) 
0

>  <s_epik_input>  (98) 
W2NIXTFuW2NIXVtjSF1uMVtDSDJdW0NIMl1bQ0gyXW4yW2NIXW5ubjI=

>  <s_epik_cmdline>  (98) 
J2VwaWtfcHl0aG9uJywgJy1waHQnLCAnMi4wJywgJy1waCcsICc3LjAnLCAnLXRuJywgJzgnLCAnLW1hJywgJzIwMCcsICctaW1hZScsICc8aW5maWxlLm1hZT4nLCAnLW9tYWUnLCAnPG91dGZpbGUubWFlPic=

>  <r_lp_tautomer_probability>  (98) 
1

>  <r_epik_Ionization_Penalty>  (98) 
0.486349

>  <r_epik_Ionization_Penalty_Charging>  (98) 
0.486349

>  <r_epik_Ionization_Penalty_Neutral>  (98) 
1.84862e-09

>  <r_epik_State_Penalty>  (98) 
0.49173

>  <r_epik_Charging_Adjusted_Penalty>  (98) 
0.978078

>  <i_epik_Tot_Q>  (98) 
0

>  <i_epik_Tot_abs_Q>  (98) 
0

>  <s_lp_Force_Field>  (98) 
OPLS3e

>  <r_lp_Energy>  (98) 
8.69407

>  <b_lp_Chiralities_Consistent>  (98) 
1

>  <s_lp_Variant>  (98) 
27:0-2

>  <s_i_glide_gridfile>  (98) 
pfpi4k_grid

>  <i_i_glide_lignum>  (98) 
44

>  <i_i_glide_rotatable_bonds>  (98) 
4

>  <r_i_docking_score>  (98) 
-3.00203

>  <r_i_glide_ligand_efficiency>  (98) 
-0.230925

>  <r_i_glide_ligand_efficiency_sa>  (98) 
-0.542982

>  <r_i_glide_ligand_efficiency_ln>  (98) 
-0.842095

>  <r_i_glide_gscore>  (98) 
-3.00203

>  <r_i_glide_lipo>  (98) 
-0.0186785

>  <r_i_glide_hbond>  (98) 
-0.0476038

>  <r_i_glide_metal>  (98) 
-0

>  <r_i_glide_rewards>  (98) 
-2.19413

>  <r_i_glide_evdw>  (98) 
-14.205

>  <r_i_glide_ecoul>  (98) 
-4.9207

>  <r_i_glide_erotb>  (98) 
0.988447

>  <r_i_glide_esite>  (98) 
-0.281705

>  <r_i_glide_emodel>  (98) 
-23.9345

>  <r_i_glide_energy>  (98) 
-19.1257

>  <r_i_glide_einternal>  (98) 
0.210665

>  <r_i_glide_intrahb_reward>  (98) 
-0

>  <i_i_glide_confnum>  (98) 
1

>  <i_i_glide_posenum>  (98) 
7

>  <r_i_glide_eff_state_penalty>  (98) 
0

>  <ligand_id>  (98) 
27

>  <original_smiles>  (98) 
c1cn(CCCn2cnnn2)cn1

>  <smiles>  (98) 
[H]c1nc([H])n(C([H])([H])C([H])([H])C([H])([H])n2nnnc2[H])c1[H]

$$$$
28:0:0
     RDKit          3D

 56 60  0  0  1  0  0  0  0  0999 V2000
    6.4479   -2.7641    0.1104 C   0  0  0  0  0  0  0  0  0  0  0  0
    5.0380   -3.1197    0.6457 C   0  0  2  0  0  0  0  0  0  0  0  0
    4.5296   -2.0630    1.6630 C   0  0  0  0  0  0  0  0  0  0  0  0
    5.1300   -2.2006    3.0770 C   0  0  1  0  0  0  0  0  0  0  0  0
    4.7029   -1.1473    3.9178 O   0  0  0  0  0  0  0  0  0  0  0  0
    4.9545   -3.6105    3.7160 C   0  0  2  0  0  0  0  0  0  0  0  0
    5.5492   -4.6498    2.7344 C   0  0  1  0  0  0  0  0  0  0  0  0
    5.5399   -6.0745    3.3053 C   0  0  0  0  0  0  0  0  0  0  0  0
    4.2322   -6.4238    3.9616 C   0  0  0  0  0  0  0  0  0  0  0  0
    3.3599   -5.5277    4.4614 C   0  0  0  0  0  0  0  0  0  0  0  0
    2.0571   -6.0147    5.0825 C   0  0  0  0  0  0  0  0  0  0  0  0
    0.8687   -5.2725    4.4844 C   0  0  0  0  0  0  0  0  0  0  0  0
   -0.1365   -5.8601    4.0907 O   0  0  0  0  0  0  0  0  0  0  0  0
    0.9890   -3.7549    4.4302 C   0  0  0  0  0  0  0  0  0  0  0  0
    2.3306   -3.3180    3.8166 C   0  0  0  0  0  0  0  0  0  0  0  0
    3.5903   -3.9977    4.4398 C   0  0  2  0  0  0  0  0  0  0  0  0
    3.7070   -3.5388    5.9186 C   0  0  0  0  0  0  0  0  0  0  0  0
    5.0651   -4.5509    1.2673 C   0  0  1  0  0  0  0  0  0  0  0  0
    3.7389   -5.2269    0.9011 C   0  0  0  0  0  0  0  0  0  0  0  0
    3.2880   -4.4022   -0.2716 C   0  0  0  0  0  0  0  0  0  0  0  0
    3.9807   -3.2703   -0.4514 C   0  0  0  0  0  0  0  0  0  0  0  0
    3.8208   -2.4249   -1.6657 C   0  0  0  0  0  0  0  0  0  0  0  0
    4.3222   -1.1075   -1.7128 C   0  0  0  0  0  0  0  0  0  0  0  0
    4.1622   -0.3440   -2.8770 C   0  0  0  0  0  0  0  0  0  0  0  0
    3.4365   -0.8892   -3.9422 C   0  0  0  0  0  0  0  0  0  0  0  0
    2.9403   -2.1425   -3.9184 N   0  0  0  0  0  0  0  0  0  0  0  0
    3.1122   -2.8831   -2.8025 C   0  0  0  0  0  0  0  0  0  0  0  0
    7.1972   -2.8461    0.9001 H   0  0  0  0  0  0  0  0  0  0  0  0
    6.5301   -1.7502   -0.2818 H   0  0  0  0  0  0  0  0  0  0  0  0
    6.7480   -3.4475   -0.6865 H   0  0  0  0  0  0  0  0  0  0  0  0
    4.7667   -1.0668    1.2934 H   0  0  0  0  0  0  0  0  0  0  0  0
    3.4408   -2.0742    1.7061 H   0  0  0  0  0  0  0  0  0  0  0  0
    6.2023   -2.0396    2.9559 H   0  0  0  0  0  0  0  0  0  0  0  0
    3.7588   -1.2022    4.0068 H   0  0  0  0  0  0  0  0  0  0  0  0
    5.6803   -3.6128    4.5277 H   0  0  0  0  0  0  0  0  0  0  0  0
    6.6093   -4.4049    2.6486 H   0  0  0  0  0  0  0  0  0  0  0  0
    5.7593   -6.8016    2.5205 H   0  0  0  0  0  0  0  0  0  0  0  0
    6.3176   -6.1730    4.0647 H   0  0  0  0  0  0  0  0  0  0  0  0
    4.0176   -7.4804    4.0320 H   0  0  0  0  0  0  0  0  0  0  0  0
    1.9369   -7.0845    4.9087 H   0  0  0  0  0  0  0  0  0  0  0  0
    2.0645   -5.8624    6.1610 H   0  0  0  0  0  0  0  0  0  0  0  0
    0.1654   -3.3421    3.8500 H   0  0  0  0  0  0  0  0  0  0  0  0
    0.8826   -3.3687    5.4423 H   0  0  0  0  0  0  0  0  0  0  0  0
    2.2696   -3.5286    2.7548 H   0  0  0  0  0  0  0  0  0  0  0  0
    2.3826   -2.2334    3.9016 H   0  0  0  0  0  0  0  0  0  0  0  0
    3.8824   -2.4665    6.0040 H   0  0  0  0  0  0  0  0  0  0  0  0
    4.5354   -4.0442    6.4177 H   0  0  0  0  0  0  0  0  0  0  0  0
    2.8157   -3.7596    6.5038 H   0  0  0  0  0  0  0  0  0  0  0  0
    5.8025   -5.1177    0.6951 H   0  0  0  0  0  0  0  0  0  0  0  0
    3.8884   -6.2699    0.6192 H   0  0  0  0  0  0  0  0  0  0  0  0
    2.9874   -5.2035    1.6812 H   0  0  0  0  0  0  0  0  0  0  0  0
    2.4903   -4.7660   -0.8998 H   0  0  0  0  0  0  0  0  0  0  0  0
    4.8310   -0.6621   -0.8688 H   0  0  0  0  0  0  0  0  0  0  0  0
    4.5363    0.6661   -2.9282 H   0  0  0  0  0  0  0  0  0  0  0  0
    3.2260   -0.2975   -4.8243 H   0  0  0  0  0  0  0  0  0  0  0  0
    2.6529   -3.8574   -2.8587 H   0  0  0  0  0  0  0  0  0  0  0  0
  2  1  1  6
  1 28  1  0
  1 29  1  0
  1 30  1  0
  2 18  1  0
  2 21  1  0
  2  3  1  0
  3  4  1  0
  3 31  1  0
  3 32  1  0
  4  5  1  0
  4  6  1  0
  4 33  1  6
  5 34  1  0
  6 16  1  0
  6  7  1  0
  6 35  1  1
  7  8  1  0
  7 18  1  0
  7 36  1  6
  8  9  1  0
  8 37  1  0
  8 38  1  0
  9 10  2  0
  9 39  1  0
 10 16  1  0
 10 11  1  0
 11 12  1  0
 11 40  1  0
 11 41  1  0
 12 13  2  0
 12 14  1  0
 14 15  1  0
 14 42  1  0
 14 43  1  0
 15 16  1  0
 15 44  1  0
 15 45  1  0
 16 17  1  1
 17 46  1  0
 17 47  1  0
 17 48  1  0
 18 19  1  0
 18 49  1  6
 19 20  1  0
 19 50  1  0
 19 51  1  0
 20 21  2  0
 20 52  1  0
 21 22  1  0
 22 27  1  0
 22 23  2  0
 23 24  1  0
 23 53  1  0
 24 25  2  0
 24 54  1  0
 25 26  1  0
 25 55  1  0
 26 27  2  0
 27 56  1  0
M  END
>  <i_m_ct_stereo_status>  (99) 
1

>  <s_m_source_file>  (99) 
/var/tmp/pbs.5076255.sched01/tmpmzpp47sj/0ood7iq68.sdf

>  <i_m_source_file_index>  (99) 
45

>  <i_lp_mmshare_version>  (99) 
48012

>  <i_f3d_flags>  (99) 
0

>  <s_epik_input>  (99) 
W0NIMl0xW0NIMl1DKD1PKVtDSDJdQyg9W0NIXVtDSDJdMilbQ0BAXTEoW0NIM10pW0NASF0oW0NAQEhdKFtDSDJdMylbT0hdKVtDQEBIXTJbQ0BIXShbQ0BdMzRbQ0gzXSlbQ0gyXVtDSF09QzRjNVtjSF1bY0hdW2NIXW5bY0hdNQ==

>  <s_epik_cmdline>  (99) 
J2VwaWtfcHl0aG9uJywgJy1waHQnLCAnMi4wJywgJy1waCcsICc3LjAnLCAnLXRuJywgJzgnLCAnLW1hJywgJzIwMCcsICctaW1hZScsICc8aW5maWxlLm1hZT4nLCAnLW9tYWUnLCAnPG91dGZpbGUubWFlPic=

>  <r_lp_tautomer_probability>  (99) 
0.99995

>  <r_epik_Ionization_Penalty>  (99) 
0.023925

>  <r_epik_Ionization_Penalty_Charging>  (99) 
0

>  <r_epik_Ionization_Penalty_Neutral>  (99) 
0.023925

>  <r_epik_State_Penalty>  (99) 
0.0193913

>  <r_epik_Charging_Adjusted_Penalty>  (99) 
0.0193913

>  <i_epik_Tot_Q>  (99) 
0

>  <i_epik_Tot_abs_Q>  (99) 
0

>  <s_lp_Force_Field>  (99) 
OPLS3e

>  <r_lp_Energy>  (99) 
45.1522

>  <b_lp_Chiralities_Consistent>  (99) 
1

>  <s_lp_Variant>  (99) 
28:0-1

>  <s_i_glide_gridfile>  (99) 
pfpi4k_grid

>  <i_i_glide_lignum>  (99) 
45

>  <i_i_glide_rotatable_bonds>  (99) 
2

>  <r_i_docking_score>  (99) 
-3.20335

>  <r_i_glide_ligand_efficiency>  (99) 
-0.118643

>  <r_i_glide_ligand_efficiency_sa>  (99) 
-0.355928

>  <r_i_glide_ligand_efficiency_ln>  (99) 
-0.745687

>  <r_i_glide_gscore>  (99) 
-3.20335

>  <r_i_glide_lipo>  (99) 
-0.727028

>  <r_i_glide_hbond>  (99) 
-0.0272197

>  <r_i_glide_metal>  (99) 
-0

>  <r_i_glide_rewards>  (99) 
-0.930733

>  <r_i_glide_evdw>  (99) 
-25.9095

>  <r_i_glide_ecoul>  (99) 
-2.40207

>  <r_i_glide_erotb>  (99) 
0.145421

>  <r_i_glide_esite>  (99) 
-0.00800595

>  <r_i_glide_emodel>  (99) 
-33.8048

>  <r_i_glide_energy>  (99) 
-28.3116

>  <r_i_glide_einternal>  (99) 
0.0355892

>  <r_i_glide_intrahb_reward>  (99) 
-0

>  <i_i_glide_confnum>  (99) 
5

>  <i_i_glide_posenum>  (99) 
15

>  <r_i_glide_eff_state_penalty>  (99) 
0

>  <ligand_id>  (99) 
28

>  <original_smiles>  (99) 
CC12CC(O)C3C(CC=C4CC(=O)CCC43C)C1CC=C2c1cccnc1

>  <smiles>  (99) 
[H]OC1([H])C([H])([H])C2(C([H])([H])[H])C(c3c([H])nc([H])c([H])c3[H])=C([H])C([H])([H])C2([H])C2([H])C([H])([H])C([H])=C3C([H])([H])C(=O)C([H])([H])C([H])([H])C3(C([H])([H])[H])C12[H]

$$$$
28:0:1
     RDKit          3D

 56 60  0  0  1  0  0  0  0  0999 V2000
    6.2591   -3.0876    0.4131 C   0  0  0  0  0  0  0  0  0  0  0  0
    4.8354   -3.3745    0.9691 C   0  0  2  0  0  0  0  0  0  0  0  0
    4.3818   -2.2755    1.9720 C   0  0  0  0  0  0  0  0  0  0  0  0
    5.0050   -2.4036    3.3787 C   0  0  1  0  0  0  0  0  0  0  0  0
    4.6083   -1.3293    4.2094 O   0  0  0  0  0  0  0  0  0  0  0  0
    4.8033   -3.7920    4.0517 C   0  0  2  0  0  0  0  0  0  0  0  0
    5.3427   -4.8704    3.0814 C   0  0  1  0  0  0  0  0  0  0  0  0
    5.3053   -6.2802    3.6829 C   0  0  0  0  0  0  0  0  0  0  0  0
    3.9971   -6.5740    4.3751 C   0  0  0  0  0  0  0  0  0  0  0  0
    3.1634   -5.6388    4.8677 C   0  0  0  0  0  0  0  0  0  0  0  0
    1.8584   -6.0727    5.5277 C   0  0  0  0  0  0  0  0  0  0  0  0
    0.6855   -5.3047    4.9401 C   0  0  0  0  0  0  0  0  0  0  0  0
   -0.3471   -5.8707    4.5882 O   0  0  0  0  0  0  0  0  0  0  0  0
    0.8423   -3.7932    4.8537 C   0  0  0  0  0  0  0  0  0  0  0  0
    2.1886   -3.4140    4.2040 C   0  0  0  0  0  0  0  0  0  0  0  0
    3.4417   -4.1216    4.8121 C   0  0  2  0  0  0  0  0  0  0  0  0
    3.6078   -3.6371    6.2790 C   0  0  0  0  0  0  0  0  0  0  0  0
    4.8269   -4.7901    1.6250 C   0  0  1  0  0  0  0  0  0  0  0  0
    3.4738   -5.4362    1.2946 C   0  0  0  0  0  0  0  0  0  0  0  0
    3.0456   -4.6418    0.0978 C   0  0  0  0  0  0  0  0  0  0  0  0
    3.7556   -3.5194   -0.1184 C   0  0  0  0  0  0  0  0  0  0  0  0
    3.5986   -2.6820   -1.3397 C   0  0  0  0  0  0  0  0  0  0  0  0
    2.7247   -3.0648   -2.3942 C   0  0  0  0  0  0  0  0  0  0  0  0
    2.6219   -2.2544   -3.5394 C   0  0  0  0  0  0  0  0  0  0  0  0
    3.3848   -1.0777   -3.6050 C   0  0  0  0  0  0  0  0  0  0  0  0
    4.2112   -0.6848   -2.6153 N   0  0  0  0  0  0  0  0  0  0  0  0
    4.2731   -1.4467   -1.5018 C   0  0  0  0  0  0  0  0  0  0  0  0
    7.0096   -3.2185    1.1993 H   0  0  0  0  0  0  0  0  0  0  0  0
    6.4086   -2.0886    0.0278 H   0  0  0  0  0  0  0  0  0  0  0  0
    6.5091   -3.7935   -0.3834 H   0  0  0  0  0  0  0  0  0  0  0  0
    4.6382   -1.2981    1.5608 H   0  0  0  0  0  0  0  0  0  0  0  0
    3.2980   -2.2521    2.0484 H   0  0  0  0  0  0  0  0  0  0  0  0
    6.0750   -2.2638    3.2386 H   0  0  0  0  0  0  0  0  0  0  0  0
    4.7900   -0.5184    3.7640 H   0  0  0  0  0  0  0  0  0  0  0  0
    5.5516   -3.8015    4.8466 H   0  0  0  0  0  0  0  0  0  0  0  0
    6.4069   -4.6571    2.9751 H   0  0  0  0  0  0  0  0  0  0  0  0
    5.4844   -7.0317    2.9121 H   0  0  0  0  0  0  0  0  0  0  0  0
    6.0992   -6.3961    4.4230 H   0  0  0  0  0  0  0  0  0  0  0  0
    3.7503   -7.6213    4.4761 H   0  0  0  0  0  0  0  0  0  0  0  0
    1.6929   -7.1388    5.3789 H   0  0  0  0  0  0  0  0  0  0  0  0
    1.8950   -5.8940    6.5986 H   0  0  0  0  0  0  0  0  0  0  0  0
    0.0146   -3.3640    4.2882 H   0  0  0  0  0  0  0  0  0  0  0  0
    0.7719   -3.3835    5.8593 H   0  0  0  0  0  0  0  0  0  0  0  0
    2.0964   -3.6468    3.1482 H   0  0  0  0  0  0  0  0  0  0  0  0
    2.2870   -2.3300    4.2625 H   0  0  0  0  0  0  0  0  0  0  0  0
    3.8152   -2.5692    6.3367 H   0  0  0  0  0  0  0  0  0  0  0  0
    4.4304   -4.1563    6.7726 H   0  0  0  0  0  0  0  0  0  0  0  0
    2.7228   -3.8178    6.8884 H   0  0  0  0  0  0  0  0  0  0  0  0
    5.5279   -5.3935    1.0463 H   0  0  0  0  0  0  0  0  0  0  0  0
    3.5862   -6.4966    1.0505 H   0  0  0  0  0  0  0  0  0  0  0  0
    2.7350   -5.3618    2.0884 H   0  0  0  0  0  0  0  0  0  0  0  0
    2.2523   -5.0298   -0.5241 H   0  0  0  0  0  0  0  0  0  0  0  0
    2.1178   -3.9519   -2.3521 H   0  0  0  0  0  0  0  0  0  0  0  0
    1.9266   -2.5129   -4.3192 H   0  0  0  0  0  0  0  0  0  0  0  0
    3.3158   -0.4115   -4.4554 H   0  0  0  0  0  0  0  0  0  0  0  0
    4.8806   -1.0171   -0.7226 H   0  0  0  0  0  0  0  0  0  0  0  0
  2  1  1  6
  1 28  1  0
  1 29  1  0
  1 30  1  0
  2 18  1  0
  2 21  1  0
  2  3  1  0
  3  4  1  0
  3 31  1  0
  3 32  1  0
  4  5  1  0
  4  6  1  0
  4 33  1  6
  5 34  1  0
  6 16  1  0
  6  7  1  0
  6 35  1  1
  7  8  1  0
  7 18  1  0
  7 36  1  6
  8  9  1  0
  8 37  1  0
  8 38  1  0
  9 10  2  0
  9 39  1  0
 10 16  1  0
 10 11  1  0
 11 12  1  0
 11 40  1  0
 11 41  1  0
 12 13  2  0
 12 14  1  0
 14 15  1  0
 14 42  1  0
 14 43  1  0
 15 16  1  0
 15 44  1  0
 15 45  1  0
 16 17  1  1
 17 46  1  0
 17 47  1  0
 17 48  1  0
 18 19  1  0
 18 49  1  6
 19 20  1  0
 19 50  1  0
 19 51  1  0
 20 21  2  0
 20 52  1  0
 21 22  1  0
 22 27  1  0
 22 23  2  0
 23 24  1  0
 23 53  1  0
 24 25  2  0
 24 54  1  0
 25 26  1  0
 25 55  1  0
 26 27  2  0
 27 56  1  0
M  END
>  <i_m_ct_stereo_status>  (100) 
1

>  <s_m_source_file>  (100) 
/var/tmp/pbs.5076255.sched01/tmpmzpp47sj/0ood7iq68.sdf

>  <i_m_source_file_index>  (100) 
45

>  <i_lp_mmshare_version>  (100) 
48012

>  <i_f3d_flags>  (100) 
0

>  <s_epik_input>  (100) 
W0NIMl0xW0NIMl1DKD1PKVtDSDJdQyg9W0NIXVtDSDJdMilbQ0BAXTEoW0NIM10pW0NASF0oW0NAQEhdKFtDSDJdMylbT0hdKVtDQEBIXTJbQ0BIXShbQ0BdMzRbQ0gzXSlbQ0gyXVtDSF09QzRjNVtjSF1bY0hdW2NIXW5bY0hdNQ==

>  <s_epik_cmdline>  (100) 
J2VwaWtfcHl0aG9uJywgJy1waHQnLCAnMi4wJywgJy1waCcsICc3LjAnLCAnLXRuJywgJzgnLCAnLW1hJywgJzIwMCcsICctaW1hZScsICc8aW5maWxlLm1hZT4nLCAnLW9tYWUnLCAnPG91dGZpbGUubWFlPic=

>  <r_lp_tautomer_probability>  (100) 
0.99995

>  <r_epik_Ionization_Penalty>  (100) 
0.023925

>  <r_epik_Ionization_Penalty_Charging>  (100) 
0

>  <r_epik_Ionization_Penalty_Neutral>  (100) 
0.023925

>  <r_epik_State_Penalty>  (100) 
0.0193913

>  <r_epik_Charging_Adjusted_Penalty>  (100) 
0.0193913

>  <i_epik_Tot_Q>  (100) 
0

>  <i_epik_Tot_abs_Q>  (100) 
0

>  <s_lp_Force_Field>  (100) 
OPLS3e

>  <r_lp_Energy>  (100) 
45.1522

>  <b_lp_Chiralities_Consistent>  (100) 
1

>  <s_lp_Variant>  (100) 
28:0-1

>  <s_i_glide_gridfile>  (100) 
pfpi4k_grid

>  <i_i_glide_lignum>  (100) 
45

>  <i_i_glide_rotatable_bonds>  (100) 
2

>  <r_i_docking_score>  (100) 
-3.14074

>  <r_i_glide_ligand_efficiency>  (100) 
-0.116324

>  <r_i_glide_ligand_efficiency_sa>  (100) 
-0.348971

>  <r_i_glide_ligand_efficiency_ln>  (100) 
-0.731113

>  <r_i_glide_gscore>  (100) 
-3.14074

>  <r_i_glide_lipo>  (100) 
-0.736406

>  <r_i_glide_hbond>  (100) 
0

>  <r_i_glide_metal>  (100) 
-0

>  <r_i_glide_rewards>  (100) 
-0.930733

>  <r_i_glide_evdw>  (100) 
-26.5623

>  <r_i_glide_ecoul>  (100) 
-1.89148

>  <r_i_glide_erotb>  (100) 
0.145421

>  <r_i_glide_esite>  (100) 
-0.00718611

>  <r_i_glide_emodel>  (100) 
-33.3574

>  <r_i_glide_energy>  (100) 
-28.4538

>  <r_i_glide_einternal>  (100) 
0.680259

>  <r_i_glide_intrahb_reward>  (100) 
-0

>  <i_i_glide_confnum>  (100) 
5

>  <i_i_glide_posenum>  (100) 
4

>  <r_i_glide_eff_state_penalty>  (100) 
0

>  <ligand_id>  (100) 
28

>  <original_smiles>  (100) 
CC12CC(O)C3C(CC=C4CC(=O)CCC43C)C1CC=C2c1cccnc1

>  <smiles>  (100) 
[H]OC1([H])C([H])([H])C2(C([H])([H])[H])C(c3c([H])nc([H])c([H])c3[H])=C([H])C([H])([H])C2([H])C2([H])C([H])([H])C([H])=C3C([H])([H])C(=O)C([H])([H])C([H])([H])C3(C([H])([H])[H])C12[H]

$$$$
28:0:2
     RDKit          3D

 56 60  0  0  1  0  0  0  0  0999 V2000
    6.1155   -2.8846    0.0578 C   0  0  0  0  0  0  0  0  0  0  0  0
    4.7544   -2.6599    0.7578 C   0  0  2  0  0  0  0  0  0  0  0  0
    4.6947   -1.2620    1.4363 C   0  0  0  0  0  0  0  0  0  0  0  0
    5.4082   -1.1886    2.7998 C   0  0  1  0  0  0  0  0  0  0  0  0
    5.3923    0.1290    3.3138 O   0  0  0  0  0  0  0  0  0  0  0  0
    4.9327   -2.2506    3.8292 C   0  0  2  0  0  0  0  0  0  0  0  0
    5.0882   -3.6442    3.1765 C   0  0  1  0  0  0  0  0  0  0  0  0
    4.7659   -4.7859    4.1462 C   0  0  0  0  0  0  0  0  0  0  0  0
    3.5001   -4.5323    4.9260 C   0  0  0  0  0  0  0  0  0  0  0  0
    2.9756   -3.3165    5.1651 C   0  0  0  0  0  0  0  0  0  0  0  0
    1.6731   -3.2008    5.9494 C   0  0  0  0  0  0  0  0  0  0  0  0
    0.6761   -2.3210    5.2073 C   0  0  0  0  0  0  0  0  0  0  0  0
   -0.5093   -2.6321    5.0942 O   0  0  0  0  0  0  0  0  0  0  0  0
    1.1979   -0.9879    4.6981 C   0  0  0  0  0  0  0  0  0  0  0  0
    2.5243   -1.1643    3.9356 C   0  0  0  0  0  0  0  0  0  0  0  0
    3.6150   -1.9943    4.6843 C   0  0  2  0  0  0  0  0  0  0  0  0
    4.0411   -1.2075    5.9541 C   0  0  0  0  0  0  0  0  0  0  0  0
    4.4743   -3.8151    1.7700 C   0  0  1  0  0  0  0  0  0  0  0  0
    2.9812   -4.1513    1.6649 C   0  0  0  0  0  0  0  0  0  0  0  0
    2.6598   -3.6169    0.3014 C   0  0  0  0  0  0  0  0  0  0  0  0
    3.5806   -2.7892   -0.2088 C   0  0  0  0  0  0  0  0  0  0  0  0
    3.5419   -2.3283   -1.6163 C   0  0  0  0  0  0  0  0  0  0  0  0
    2.7684   -2.9866   -2.6052 C   0  0  0  0  0  0  0  0  0  0  0  0
    2.7532   -2.4695   -3.9132 C   0  0  0  0  0  0  0  0  0  0  0  0
    3.4721   -1.2879   -4.1772 C   0  0  0  0  0  0  0  0  0  0  0  0
    4.2117   -0.6523   -3.2535 N   0  0  0  0  0  0  0  0  0  0  0  0
    4.2180   -1.1524   -2.0016 C   0  0  0  0  0  0  0  0  0  0  0  0
    6.9234   -2.9395    0.7859 H   0  0  0  0  0  0  0  0  0  0  0  0
    6.3697   -2.0863   -0.6364 H   0  0  0  0  0  0  0  0  0  0  0  0
    6.1226   -3.8181   -0.5085 H   0  0  0  0  0  0  0  0  0  0  0  0
    5.1620   -0.5220    0.7885 H   0  0  0  0  0  0  0  0  0  0  0  0
    3.6615   -0.9324    1.5202 H   0  0  0  0  0  0  0  0  0  0  0  0
    6.4580   -1.3800    2.5926 H   0  0  0  0  0  0  0  0  0  0  0  0
    4.4914    0.3922    3.4213 H   0  0  0  0  0  0  0  0  0  0  0  0
    5.7259   -2.2563    4.5758 H   0  0  0  0  0  0  0  0  0  0  0  0
    6.1537   -3.7545    2.9711 H   0  0  0  0  0  0  0  0  0  0  0  0
    4.6791   -5.7333    3.6093 H   0  0  0  0  0  0  0  0  0  0  0  0
    5.5773   -4.9087    4.8648 H   0  0  0  0  0  0  0  0  0  0  0  0
    3.0170   -5.4153    5.3213 H   0  0  0  0  0  0  0  0  0  0  0  0
    1.2371   -4.1865    6.1073 H   0  0  0  0  0  0  0  0  0  0  0  0
    1.8616   -2.7649    6.9287 H   0  0  0  0  0  0  0  0  0  0  0  0
    0.4499   -0.5169    4.0593 H   0  0  0  0  0  0  0  0  0  0  0  0
    1.3293   -0.3281    5.5545 H   0  0  0  0  0  0  0  0  0  0  0  0
    2.2723   -1.6328    2.9898 H   0  0  0  0  0  0  0  0  0  0  0  0
    2.8840   -0.1667    3.6902 H   0  0  0  0  0  0  0  0  0  0  0  0
    4.5124   -0.2558    5.7125 H   0  0  0  0  0  0  0  0  0  0  0  0
    4.7537   -1.7799    6.5495 H   0  0  0  0  0  0  0  0  0  0  0  0
    3.2045   -0.9830    6.6136 H   0  0  0  0  0  0  0  0  0  0  0  0
    4.9529   -4.7046    1.3532 H   0  0  0  0  0  0  0  0  0  0  0  0
    2.8030   -5.2255    1.7250 H   0  0  0  0  0  0  0  0  0  0  0  0
    2.3623   -3.6653    2.4121 H   0  0  0  0  0  0  0  0  0  0  0  0
    1.7798   -3.9355   -0.2220 H   0  0  0  0  0  0  0  0  0  0  0  0
    2.1892   -3.8681   -2.3842 H   0  0  0  0  0  0  0  0  0  0  0  0
    2.1732   -2.9536   -4.6843 H   0  0  0  0  0  0  0  0  0  0  0  0
    3.4816   -0.8574   -5.1667 H   0  0  0  0  0  0  0  0  0  0  0  0
    4.8059   -0.5834   -1.3053 H   0  0  0  0  0  0  0  0  0  0  0  0
  2  1  1  6
  1 28  1  0
  1 29  1  0
  1 30  1  0
  2 18  1  0
  2 21  1  0
  2  3  1  0
  3  4  1  0
  3 31  1  0
  3 32  1  0
  4  5  1  0
  4  6  1  0
  4 33  1  6
  5 34  1  0
  6 16  1  0
  6  7  1  0
  6 35  1  1
  7  8  1  0
  7 18  1  0
  7 36  1  6
  8  9  1  0
  8 37  1  0
  8 38  1  0
  9 10  2  0
  9 39  1  0
 10 16  1  0
 10 11  1  0
 11 12  1  0
 11 40  1  0
 11 41  1  0
 12 13  2  0
 12 14  1  0
 14 15  1  0
 14 42  1  0
 14 43  1  0
 15 16  1  0
 15 44  1  0
 15 45  1  0
 16 17  1  1
 17 46  1  0
 17 47  1  0
 17 48  1  0
 18 19  1  0
 18 49  1  6
 19 20  1  0
 19 50  1  0
 19 51  1  0
 20 21  2  0
 20 52  1  0
 21 22  1  0
 22 27  1  0
 22 23  2  0
 23 24  1  0
 23 53  1  0
 24 25  2  0
 24 54  1  0
 25 26  1  0
 25 55  1  0
 26 27  2  0
 27 56  1  0
M  END
>  <i_m_ct_stereo_status>  (101) 
1

>  <s_m_source_file>  (101) 
/var/tmp/pbs.5076255.sched01/tmpmzpp47sj/0ood7iq68.sdf

>  <i_m_source_file_index>  (101) 
45

>  <i_lp_mmshare_version>  (101) 
48012

>  <i_f3d_flags>  (101) 
0

>  <s_epik_input>  (101) 
W0NIMl0xW0NIMl1DKD1PKVtDSDJdQyg9W0NIXVtDSDJdMilbQ0BAXTEoW0NIM10pW0NASF0oW0NAQEhdKFtDSDJdMylbT0hdKVtDQEBIXTJbQ0BIXShbQ0BdMzRbQ0gzXSlbQ0gyXVtDSF09QzRjNVtjSF1bY0hdW2NIXW5bY0hdNQ==

>  <s_epik_cmdline>  (101) 
J2VwaWtfcHl0aG9uJywgJy1waHQnLCAnMi4wJywgJy1waCcsICc3LjAnLCAnLXRuJywgJzgnLCAnLW1hJywgJzIwMCcsICctaW1hZScsICc8aW5maWxlLm1hZT4nLCAnLW9tYWUnLCAnPG91dGZpbGUubWFlPic=

>  <r_lp_tautomer_probability>  (101) 
0.99995

>  <r_epik_Ionization_Penalty>  (101) 
0.023925

>  <r_epik_Ionization_Penalty_Charging>  (101) 
0

>  <r_epik_Ionization_Penalty_Neutral>  (101) 
0.023925

>  <r_epik_State_Penalty>  (101) 
0.0193913

>  <r_epik_Charging_Adjusted_Penalty>  (101) 
0.0193913

>  <i_epik_Tot_Q>  (101) 
0

>  <i_epik_Tot_abs_Q>  (101) 
0

>  <s_lp_Force_Field>  (101) 
OPLS3e

>  <r_lp_Energy>  (101) 
45.1522

>  <b_lp_Chiralities_Consistent>  (101) 
1

>  <s_lp_Variant>  (101) 
28:0-1

>  <s_i_glide_gridfile>  (101) 
pfpi4k_grid

>  <i_i_glide_lignum>  (101) 
45

>  <i_i_glide_rotatable_bonds>  (101) 
2

>  <r_i_docking_score>  (101) 
-2.88327

>  <r_i_glide_ligand_efficiency>  (101) 
-0.106788

>  <r_i_glide_ligand_efficiency_sa>  (101) 
-0.320364

>  <r_i_glide_ligand_efficiency_ln>  (101) 
-0.671178

>  <r_i_glide_gscore>  (101) 
-2.88327

>  <r_i_glide_lipo>  (101) 
-0.473276

>  <r_i_glide_hbond>  (101) 
-0.0659569

>  <r_i_glide_metal>  (101) 
-0

>  <r_i_glide_rewards>  (101) 
-0.930733

>  <r_i_glide_evdw>  (101) 
-26.8283

>  <r_i_glide_ecoul>  (101) 
-1.43666

>  <r_i_glide_erotb>  (101) 
0.145421

>  <r_i_glide_esite>  (101) 
-0.00181312

>  <r_i_glide_emodel>  (101) 
-33.1772

>  <r_i_glide_energy>  (101) 
-28.265

>  <r_i_glide_einternal>  (101) 
0.215272

>  <r_i_glide_intrahb_reward>  (101) 
-0

>  <i_i_glide_confnum>  (101) 
5

>  <i_i_glide_posenum>  (101) 
11

>  <r_i_glide_eff_state_penalty>  (101) 
0

>  <ligand_id>  (101) 
28

>  <original_smiles>  (101) 
CC12CC(O)C3C(CC=C4CC(=O)CCC43C)C1CC=C2c1cccnc1

>  <smiles>  (101) 
[H]OC1([H])C([H])([H])C2(C([H])([H])[H])C(c3c([H])nc([H])c([H])c3[H])=C([H])C([H])([H])C2([H])C2([H])C([H])([H])C([H])=C3C([H])([H])C(=O)C([H])([H])C([H])([H])C3(C([H])([H])[H])C12[H]

$$$$
28:1:0
     RDKit          3D

 57 61  0  0  1  0  0  0  0  0999 V2000
    6.2421   -2.6428   -0.1061 C   0  0  0  0  0  0  0  0  0  0  0  0
    4.8663   -2.9575    0.5430 C   0  0  2  0  0  0  0  0  0  0  0  0
    4.4368   -1.8477    1.5443 C   0  0  0  0  0  0  0  0  0  0  0  0
    5.1337   -1.9245    2.9152 C   0  0  1  0  0  0  0  0  0  0  0  0
    4.7720   -0.8237    3.7212 O   0  0  0  0  0  0  0  0  0  0  0  0
    4.9954   -3.2983    3.6298 C   0  0  2  0  0  0  0  0  0  0  0  0
    5.5065   -4.3894    2.6562 C   0  0  1  0  0  0  0  0  0  0  0  0
    5.5356   -5.7828    3.2967 C   0  0  0  0  0  0  0  0  0  0  0  0
    4.2772   -6.0853    4.0633 C   0  0  0  0  0  0  0  0  0  0  0  0
    3.4461   -5.1562    4.5752 C   0  0  0  0  0  0  0  0  0  0  0  0
    2.1926   -5.5974    5.3181 C   0  0  0  0  0  0  0  0  0  0  0  0
    0.9677   -4.8730    4.7863 C   0  0  0  0  0  0  0  0  0  0  0  0
   -0.0681   -5.4757    4.5087 O   0  0  0  0  0  0  0  0  0  0  0  0
    1.0882   -3.3602    4.6433 C   0  0  0  0  0  0  0  0  0  0  0  0
    2.3860   -2.9685    3.9097 C   0  0  0  0  0  0  0  0  0  0  0  0
    3.6866   -3.6316    4.4674 C   0  0  2  0  0  0  0  0  0  0  0  0
    3.9208   -3.1060    5.9110 C   0  0  0  0  0  0  0  0  0  0  0  0
    4.9220   -4.3593    1.2257 C   0  0  1  0  0  0  0  0  0  0  0  0
    3.5660   -5.0362    0.9870 C   0  0  0  0  0  0  0  0  0  0  0  0
    3.0574   -4.2751   -0.2014 C   0  0  0  0  0  0  0  0  0  0  0  0
    3.7405   -3.1534   -0.4769 C   0  0  0  0  0  0  0  0  0  0  0  0
    3.5425   -2.3754   -1.7259 C   0  0  0  0  0  0  0  0  0  0  0  0
    4.0583   -1.0654   -1.8541 C   0  0  0  0  0  0  0  0  0  0  0  0
    3.8875   -0.3482   -3.0498 C   0  0  0  0  0  0  0  0  0  0  0  0
    3.1362   -0.9198   -4.0862 C   0  0  0  0  0  0  0  0  0  0  0  0
    2.6154   -2.1573   -3.9206 N   0  0  0  0  0  0  0  0  0  0  0  0
    2.7947   -2.8994   -2.8094 C   0  0  0  0  0  0  0  0  0  0  0  0
    7.0366   -2.6911    0.6392 H   0  0  0  0  0  0  0  0  0  0  0  0
    6.3011   -1.6499   -0.5530 H   0  0  0  0  0  0  0  0  0  0  0  0
    6.4806   -3.3712   -0.8858 H   0  0  0  0  0  0  0  0  0  0  0  0
    4.6501   -0.8725    1.1075 H   0  0  0  0  0  0  0  0  0  0  0  0
    3.3536   -1.8512    1.6652 H   0  0  0  0  0  0  0  0  0  0  0  0
    6.1935   -1.7712    2.7210 H   0  0  0  0  0  0  0  0  0  0  0  0
    3.8377   -0.8649    3.8756 H   0  0  0  0  0  0  0  0  0  0  0  0
    5.7856   -3.2685    4.3813 H   0  0  0  0  0  0  0  0  0  0  0  0
    6.5578   -4.1585    2.4818 H   0  0  0  0  0  0  0  0  0  0  0  0
    5.6913   -6.5502    2.5378 H   0  0  0  0  0  0  0  0  0  0  0  0
    6.3647   -5.8560    3.9990 H   0  0  0  0  0  0  0  0  0  0  0  0
    4.0558   -7.1347    4.2038 H   0  0  0  0  0  0  0  0  0  0  0  0
    2.0420   -6.6705    5.2029 H   0  0  0  0  0  0  0  0  0  0  0  0
    2.2809   -5.3966    6.3840 H   0  0  0  0  0  0  0  0  0  0  0  0
    0.2210   -2.9630    4.1159 H   0  0  0  0  0  0  0  0  0  0  0  0
    1.0654   -2.9237    5.6402 H   0  0  0  0  0  0  0  0  0  0  0  0
    2.2411   -3.2317    2.8669 H   0  0  0  0  0  0  0  0  0  0  0  0
    2.4553   -1.8806    3.9360 H   0  0  0  0  0  0  0  0  0  0  0  0
    4.1102   -2.0318    5.9313 H   0  0  0  0  0  0  0  0  0  0  0  0
    4.7815   -3.5981    6.3695 H   0  0  0  0  0  0  0  0  0  0  0  0
    3.0738   -3.2919    6.5720 H   0  0  0  0  0  0  0  0  0  0  0  0
    5.6111   -4.9618    0.6281 H   0  0  0  0  0  0  0  0  0  0  0  0
    3.6859   -6.0987    0.7594 H   0  0  0  0  0  0  0  0  0  0  0  0
    2.8671   -4.9532    1.8138 H   0  0  0  0  0  0  0  0  0  0  0  0
    2.2509   -4.6885   -0.7852 H   0  0  0  0  0  0  0  0  0  0  0  0
    4.5651   -0.5757   -1.0387 H   0  0  0  0  0  0  0  0  0  0  0  0
    4.2728    0.6561   -3.1353 H   0  0  0  0  0  0  0  0  0  0  0  0
    2.8956   -0.4154   -5.0135 H   0  0  0  0  0  0  0  0  0  0  0  0
    2.3016   -3.8556   -2.8301 H   0  0  0  0  0  0  0  0  0  0  0  0
    2.0416   -2.5289   -4.6755 H   0  0  0  0  0  0  0  0  0  0  0  0
  2  1  1  6
  1 28  1  0
  1 29  1  0
  1 30  1  0
  2 18  1  0
  2 21  1  0
  2  3  1  0
  3  4  1  0
  3 31  1  0
  3 32  1  0
  4  5  1  0
  4  6  1  0
  4 33  1  6
  5 34  1  0
  6 16  1  0
  6  7  1  0
  6 35  1  1
  7  8  1  0
  7 18  1  0
  7 36  1  6
  8  9  1  0
  8 37  1  0
  8 38  1  0
  9 10  2  0
  9 39  1  0
 10 16  1  0
 10 11  1  0
 11 12  1  0
 11 40  1  0
 11 41  1  0
 12 13  2  0
 12 14  1  0
 14 15  1  0
 14 42  1  0
 14 43  1  0
 15 16  1  0
 15 44  1  0
 15 45  1  0
 16 17  1  1
 17 46  1  0
 17 47  1  0
 17 48  1  0
 18 19  1  0
 18 49  1  6
 19 20  1  0
 19 50  1  0
 19 51  1  0
 20 21  2  0
 20 52  1  0
 21 22  1  0
 22 27  1  0
 22 23  2  0
 23 24  1  0
 23 53  1  0
 24 25  2  0
 24 54  1  0
 25 26  1  0
 25 55  1  0
 26 27  2  0
 26 57  1  0
 27 56  1  0
M  CHG  1  26   1
M  END
>  <i_m_ct_stereo_status>  (102) 
1

>  <s_m_source_file>  (102) 
/var/tmp/pbs.5076255.sched01/tmpmzpp47sj/0ood7iq68.sdf

>  <i_m_source_file_index>  (102) 
46

>  <i_lp_mmshare_version>  (102) 
48012

>  <i_f3d_flags>  (102) 
0

>  <s_epik_input>  (102) 
W0NIMl0xW0NIMl1DKD1PKVtDSDJdQyg9W0NIXVtDSDJdMilbQ0BAXTEoW0NIM10pW0NASF0oW0NAQEhdKFtDSDJdMylbT0hdKVtDQEBIXTJbQ0BIXShbQ0BdMzRbQ0gzXSlbQ0gyXVtDSF09QzRjNVtjSF1bY0hdW2NIXW5bY0hdNQ==

>  <s_epik_cmdline>  (102) 
J2VwaWtfcHl0aG9uJywgJy1waHQnLCAnMi4wJywgJy1waCcsICc3LjAnLCAnLXRuJywgJzgnLCAnLW1hJywgJzIwMCcsICctaW1hZScsICc8aW5maWxlLm1hZT4nLCAnLW9tYWUnLCAnPG91dGZpbGUubWFlPic=

>  <r_lp_tautomer_probability>  (102) 
0.99995

>  <r_epik_Ionization_Penalty>  (102) 
1.91346

>  <r_epik_Ionization_Penalty_Charging>  (102) 
1.91346

>  <r_epik_Ionization_Penalty_Neutral>  (102) 
1.87714e-07

>  <r_epik_State_Penalty>  (102) 
2.03567

>  <r_epik_Charging_Adjusted_Penalty>  (102) 
3.94913

>  <i_epik_Tot_Q>  (102) 
1

>  <i_epik_Tot_abs_Q>  (102) 
1

>  <s_lp_Force_Field>  (102) 
OPLS3e

>  <r_lp_Energy>  (102) 
49.1459

>  <b_lp_Chiralities_Consistent>  (102) 
1

>  <s_lp_Variant>  (102) 
28:0-2

>  <s_i_glide_gridfile>  (102) 
pfpi4k_grid

>  <i_i_glide_lignum>  (102) 
46

>  <i_i_glide_rotatable_bonds>  (102) 
2

>  <r_i_docking_score>  (102) 
-3.60962

>  <r_i_glide_ligand_efficiency>  (102) 
-0.13369

>  <r_i_glide_ligand_efficiency_sa>  (102) 
-0.401069

>  <r_i_glide_ligand_efficiency_ln>  (102) 
-0.84026

>  <r_i_glide_gscore>  (102) 
-3.60962

>  <r_i_glide_lipo>  (102) 
-0.61186

>  <r_i_glide_hbond>  (102) 
0

>  <r_i_glide_metal>  (102) 
-0

>  <r_i_glide_rewards>  (102) 
-0.92386

>  <r_i_glide_evdw>  (102) 
-25.3362

>  <r_i_glide_ecoul>  (102) 
-6.32857

>  <r_i_glide_erotb>  (102) 
0.144704

>  <r_i_glide_esite>  (102) 
-0.00250588

>  <r_i_glide_emodel>  (102) 
-38.9872

>  <r_i_glide_energy>  (102) 
-31.6648

>  <r_i_glide_einternal>  (102) 
0.072811

>  <r_i_glide_intrahb_reward>  (102) 
-0

>  <i_i_glide_confnum>  (102) 
1

>  <i_i_glide_posenum>  (102) 
15

>  <r_i_glide_eff_state_penalty>  (102) 
0

>  <ligand_id>  (102) 
28

>  <original_smiles>  (102) 
CC12CC(O)C3C(CC=C4CC(=O)CCC43C)C1CC=C2c1cccnc1

>  <smiles>  (102) 
[H]OC1([H])C([H])([H])C2(C([H])([H])[H])C(c3c([H])c([H])c([H])[n+]([H])c3[H])=C([H])C([H])([H])C2([H])C2([H])C([H])([H])C([H])=C3C([H])([H])C(=O)C([H])([H])C([H])([H])C3(C([H])([H])[H])C12[H]

$$$$
28:1:1
     RDKit          3D

 57 61  0  0  1  0  0  0  0  0999 V2000
    6.2040   -2.6754   -0.1354 C   0  0  0  0  0  0  0  0  0  0  0  0
    4.8328   -2.9879    0.5258 C   0  0  2  0  0  0  0  0  0  0  0  0
    4.4019   -1.8637    1.5070 C   0  0  0  0  0  0  0  0  0  0  0  0
    5.1049   -1.9106    2.8787 C   0  0  1  0  0  0  0  0  0  0  0  0
    4.7102   -0.8119    3.6797 O   0  0  0  0  0  0  0  0  0  0  0  0
    4.9807   -3.2713    3.6163 C   0  0  2  0  0  0  0  0  0  0  0  0
    5.4983   -4.3762    2.6616 C   0  0  1  0  0  0  0  0  0  0  0  0
    5.5400   -5.7582    3.3271 C   0  0  0  0  0  0  0  0  0  0  0  0
    4.2840   -6.0586    4.1062 C   0  0  0  0  0  0  0  0  0  0  0  0
    3.4489   -5.1281    4.5988 C   0  0  0  0  0  0  0  0  0  0  0  0
    2.1988   -5.5658    5.3568 C   0  0  0  0  0  0  0  0  0  0  0  0
    0.9683   -4.8567    4.8150 C   0  0  0  0  0  0  0  0  0  0  0  0
   -0.0675   -5.4664    4.5558 O   0  0  0  0  0  0  0  0  0  0  0  0
    1.0771   -3.3479    4.6475 C   0  0  0  0  0  0  0  0  0  0  0  0
    2.3680   -2.9612    3.9044 C   0  0  0  0  0  0  0  0  0  0  0  0
    3.6757   -3.6036    4.4665 C   0  0  2  0  0  0  0  0  0  0  0  0
    3.9124   -3.0534    5.9022 C   0  0  0  0  0  0  0  0  0  0  0  0
    4.9030   -4.3755    1.2334 C   0  0  1  0  0  0  0  0  0  0  0  0
    3.5561   -5.0728    1.0151 C   0  0  0  0  0  0  0  0  0  0  0  0
    3.0322   -4.3387   -0.1810 C   0  0  0  0  0  0  0  0  0  0  0  0
    3.7026   -3.2165   -0.4829 C   0  0  0  0  0  0  0  0  0  0  0  0
    3.4815   -2.4613   -1.7452 C   0  0  0  0  0  0  0  0  0  0  0  0
    4.0067   -1.1579   -1.9080 C   0  0  0  0  0  0  0  0  0  0  0  0
    3.8086   -0.4608   -3.1181 C   0  0  0  0  0  0  0  0  0  0  0  0
    3.0208   -1.0454   -4.1177 C   0  0  0  0  0  0  0  0  0  0  0  0
    2.5033   -2.2734   -3.9188 N   0  0  0  0  0  0  0  0  0  0  0  0
    2.7031   -2.9983   -2.7984 C   0  0  0  0  0  0  0  0  0  0  0  0
    7.0035   -2.7061    0.6078 H   0  0  0  0  0  0  0  0  0  0  0  0
    6.2593   -1.6907   -0.5969 H   0  0  0  0  0  0  0  0  0  0  0  0
    6.4435   -3.4149   -0.9034 H   0  0  0  0  0  0  0  0  0  0  0  0
    4.5994   -0.8965    1.0476 H   0  0  0  0  0  0  0  0  0  0  0  0
    3.3186   -1.8739    1.6406 H   0  0  0  0  0  0  0  0  0  0  0  0
    6.1647   -1.7449    2.6770 H   0  0  0  0  0  0  0  0  0  0  0  0
    4.7831   -0.0201    3.1690 H   0  0  0  0  0  0  0  0  0  0  0  0
    5.7701   -3.2238    4.3667 H   0  0  0  0  0  0  0  0  0  0  0  0
    6.5457   -4.1392    2.4793 H   0  0  0  0  0  0  0  0  0  0  0  0
    5.6972   -6.5384    2.5798 H   0  0  0  0  0  0  0  0  0  0  0  0
    6.3719   -5.8159    4.0243 H   0  0  0  0  0  0  0  0  0  0  0  0
    4.0728   -7.1066    4.2627 H   0  0  0  0  0  0  0  0  0  0  0  0
    2.0553   -6.6438    5.2595 H   0  0  0  0  0  0  0  0  0  0  0  0
    2.2895   -5.3440    6.4162 H   0  0  0  0  0  0  0  0  0  0  0  0
    0.2039   -2.9666    4.1178 H   0  0  0  0  0  0  0  0  0  0  0  0
    1.0522   -2.8952    5.6388 H   0  0  0  0  0  0  0  0  0  0  0  0
    2.2228   -3.2423    2.8687 H   0  0  0  0  0  0  0  0  0  0  0  0
    2.4381   -1.8709    3.9115 H   0  0  0  0  0  0  0  0  0  0  0  0
    4.0934   -1.9769    5.8997 H   0  0  0  0  0  0  0  0  0  0  0  0
    4.7793   -3.5301    6.3663 H   0  0  0  0  0  0  0  0  0  0  0  0
    3.0696   -3.2322    6.5679 H   0  0  0  0  0  0  0  0  0  0  0  0
    5.5967   -4.9836    0.6443 H   0  0  0  0  0  0  0  0  0  0  0  0
    3.6839   -6.1393    0.8068 H   0  0  0  0  0  0  0  0  0  0  0  0
    2.8581   -4.9777    1.8426 H   0  0  0  0  0  0  0  0  0  0  0  0
    2.2273   -4.7752   -0.7498 H   0  0  0  0  0  0  0  0  0  0  0  0
    4.5388   -0.6550   -1.1228 H   0  0  0  0  0  0  0  0  0  0  0  0
    4.2064    0.5356   -3.2373 H   0  0  0  0  0  0  0  0  0  0  0  0
    2.7728   -0.5633   -5.0558 H   0  0  0  0  0  0  0  0  0  0  0  0
    2.2042   -3.9601   -2.7915 H   0  0  0  0  0  0  0  0  0  0  0  0
    1.9054   -2.6583   -4.6509 H   0  0  0  0  0  0  0  0  0  0  0  0
  2  1  1  6
  1 28  1  0
  1 29  1  0
  1 30  1  0
  2 18  1  0
  2 21  1  0
  2  3  1  0
  3  4  1  0
  3 31  1  0
  3 32  1  0
  4  5  1  0
  4  6  1  0
  4 33  1  6
  5 34  1  0
  6 16  1  0
  6  7  1  0
  6 35  1  1
  7  8  1  0
  7 18  1  0
  7 36  1  6
  8  9  1  0
  8 37  1  0
  8 38  1  0
  9 10  2  0
  9 39  1  0
 10 16  1  0
 10 11  1  0
 11 12  1  0
 11 40  1  0
 11 41  1  0
 12 13  2  0
 12 14  1  0
 14 15  1  0
 14 42  1  0
 14 43  1  0
 15 16  1  0
 15 44  1  0
 15 45  1  0
 16 17  1  1
 17 46  1  0
 17 47  1  0
 17 48  1  0
 18 19  1  0
 18 49  1  6
 19 20  1  0
 19 50  1  0
 19 51  1  0
 20 21  2  0
 20 52  1  0
 21 22  1  0
 22 27  1  0
 22 23  2  0
 23 24  1  0
 23 53  1  0
 24 25  2  0
 24 54  1  0
 25 26  1  0
 25 55  1  0
 26 27  2  0
 26 57  1  0
 27 56  1  0
M  CHG  1  26   1
M  END
>  <i_m_ct_stereo_status>  (103) 
1

>  <s_m_source_file>  (103) 
/var/tmp/pbs.5076255.sched01/tmpmzpp47sj/0ood7iq68.sdf

>  <i_m_source_file_index>  (103) 
46

>  <i_lp_mmshare_version>  (103) 
48012

>  <i_f3d_flags>  (103) 
0

>  <s_epik_input>  (103) 
W0NIMl0xW0NIMl1DKD1PKVtDSDJdQyg9W0NIXVtDSDJdMilbQ0BAXTEoW0NIM10pW0NASF0oW0NAQEhdKFtDSDJdMylbT0hdKVtDQEBIXTJbQ0BIXShbQ0BdMzRbQ0gzXSlbQ0gyXVtDSF09QzRjNVtjSF1bY0hdW2NIXW5bY0hdNQ==

>  <s_epik_cmdline>  (103) 
J2VwaWtfcHl0aG9uJywgJy1waHQnLCAnMi4wJywgJy1waCcsICc3LjAnLCAnLXRuJywgJzgnLCAnLW1hJywgJzIwMCcsICctaW1hZScsICc8aW5maWxlLm1hZT4nLCAnLW9tYWUnLCAnPG91dGZpbGUubWFlPic=

>  <r_lp_tautomer_probability>  (103) 
0.99995

>  <r_epik_Ionization_Penalty>  (103) 
1.91346

>  <r_epik_Ionization_Penalty_Charging>  (103) 
1.91346

>  <r_epik_Ionization_Penalty_Neutral>  (103) 
1.87714e-07

>  <r_epik_State_Penalty>  (103) 
2.03567

>  <r_epik_Charging_Adjusted_Penalty>  (103) 
3.94913

>  <i_epik_Tot_Q>  (103) 
1

>  <i_epik_Tot_abs_Q>  (103) 
1

>  <s_lp_Force_Field>  (103) 
OPLS3e

>  <r_lp_Energy>  (103) 
49.1459

>  <b_lp_Chiralities_Consistent>  (103) 
1

>  <s_lp_Variant>  (103) 
28:0-2

>  <s_i_glide_gridfile>  (103) 
pfpi4k_grid

>  <i_i_glide_lignum>  (103) 
46

>  <i_i_glide_rotatable_bonds>  (103) 
2

>  <r_i_docking_score>  (103) 
-3.52995

>  <r_i_glide_ligand_efficiency>  (103) 
-0.130739

>  <r_i_glide_ligand_efficiency_sa>  (103) 
-0.392217

>  <r_i_glide_ligand_efficiency_ln>  (103) 
-0.821714

>  <r_i_glide_gscore>  (103) 
-3.52995

>  <r_i_glide_lipo>  (103) 
-0.558492

>  <r_i_glide_hbond>  (103) 
0

>  <r_i_glide_metal>  (103) 
-0

>  <r_i_glide_rewards>  (103) 
-0.92386

>  <r_i_glide_evdw>  (103) 
-25.14

>  <r_i_glide_ecoul>  (103) 
-6.21972

>  <r_i_glide_erotb>  (103) 
0.144704

>  <r_i_glide_esite>  (103) 
-0.00234614

>  <r_i_glide_emodel>  (103) 
-38.318

>  <r_i_glide_energy>  (103) 
-31.3597

>  <r_i_glide_einternal>  (103) 
0.438091

>  <r_i_glide_intrahb_reward>  (103) 
-0

>  <i_i_glide_confnum>  (103) 
6

>  <i_i_glide_posenum>  (103) 
29

>  <r_i_glide_eff_state_penalty>  (103) 
0

>  <ligand_id>  (103) 
28

>  <original_smiles>  (103) 
CC12CC(O)C3C(CC=C4CC(=O)CCC43C)C1CC=C2c1cccnc1

>  <smiles>  (103) 
[H]OC1([H])C([H])([H])C2(C([H])([H])[H])C(c3c([H])c([H])c([H])[n+]([H])c3[H])=C([H])C([H])([H])C2([H])C2([H])C([H])([H])C([H])=C3C([H])([H])C(=O)C([H])([H])C([H])([H])C3(C([H])([H])[H])C12[H]

$$$$
28:1:2
     RDKit          3D

 57 61  0  0  1  0  0  0  0  0999 V2000
    6.2585   -3.0545    0.4226 C   0  0  0  0  0  0  0  0  0  0  0  0
    4.8400   -3.3614    0.9764 C   0  0  2  0  0  0  0  0  0  0  0  0
    4.3807   -2.2782    1.9906 C   0  0  0  0  0  0  0  0  0  0  0  0
    5.0014   -2.4148    3.3941 C   0  0  1  0  0  0  0  0  0  0  0  0
    4.6016   -1.3463    4.2243 O   0  0  0  0  0  0  0  0  0  0  0  0
    4.8070   -3.8116    4.0546 C   0  0  2  0  0  0  0  0  0  0  0  0
    5.3530   -4.8764    3.0744 C   0  0  1  0  0  0  0  0  0  0  0  0
    5.3171   -6.2961    3.6608 C   0  0  0  0  0  0  0  0  0  0  0  0
    4.0094   -6.5965    4.3441 C   0  0  0  0  0  0  0  0  0  0  0  0
    3.1738   -5.6755    4.8524 C   0  0  0  0  0  0  0  0  0  0  0  0
    1.8712   -6.1144    5.5062 C   0  0  0  0  0  0  0  0  0  0  0  0
    0.6926   -5.3424    4.9326 C   0  0  0  0  0  0  0  0  0  0  0  0
   -0.3398   -5.9002    4.5801 O   0  0  0  0  0  0  0  0  0  0  0  0
    0.8504   -3.8272    4.8647 C   0  0  0  0  0  0  0  0  0  0  0  0
    2.1908   -3.4413    4.2126 C   0  0  0  0  0  0  0  0  0  0  0  0
    3.4485   -4.1492    4.8109 C   0  0  2  0  0  0  0  0  0  0  0  0
    3.6129   -3.6845    6.2827 C   0  0  0  0  0  0  0  0  0  0  0  0
    4.8419   -4.7833    1.6160 C   0  0  1  0  0  0  0  0  0  0  0  0
    3.4928   -5.4307    1.2825 C   0  0  0  0  0  0  0  0  0  0  0  0
    3.0544   -4.6300    0.0927 C   0  0  0  0  0  0  0  0  0  0  0  0
    3.7646   -3.5028   -0.1068 C   0  0  0  0  0  0  0  0  0  0  0  0
    3.5970   -2.6567   -1.3238 C   0  0  0  0  0  0  0  0  0  0  0  0
    2.7686   -3.0581   -2.4022 C   0  0  0  0  0  0  0  0  0  0  0  0
    2.6208   -2.2334   -3.5315 C   0  0  0  0  0  0  0  0  0  0  0  0
    3.3099   -1.0107   -3.5830 C   0  0  0  0  0  0  0  0  0  0  0  0
    4.0873   -0.6459   -2.5393 N   0  0  0  0  0  0  0  0  0  0  0  0
    4.2206   -1.3955   -1.4222 C   0  0  0  0  0  0  0  0  0  0  0  0
    7.0102   -3.1583    1.2032 H   0  0  0  0  0  0  0  0  0  0  0  0
    6.3784   -2.0465    0.0261 H   0  0  0  0  0  0  0  0  0  0  0  0
    6.5253   -3.7516   -0.3720 H   0  0  0  0  0  0  0  0  0  0  0  0
    4.6306   -1.2913    1.6010 H   0  0  0  0  0  0  0  0  0  0  0  0
    3.2951   -2.2617    2.0687 H   0  0  0  0  0  0  0  0  0  0  0  0
    6.0715   -2.2712    3.2561 H   0  0  0  0  0  0  0  0  0  0  0  0
    5.0716   -1.4147    5.0502 H   0  0  0  0  0  0  0  0  0  0  0  0
    5.5570   -3.8296    4.8494 H   0  0  0  0  0  0  0  0  0  0  0  0
    6.4173   -4.6595    2.9720 H   0  0  0  0  0  0  0  0  0  0  0  0
    5.4999   -7.0359    2.8810 H   0  0  0  0  0  0  0  0  0  0  0  0
    6.1101   -6.4132    4.4008 H   0  0  0  0  0  0  0  0  0  0  0  0
    3.7668   -7.6473    4.4372 H   0  0  0  0  0  0  0  0  0  0  0  0
    1.7079   -7.1819    5.3439 H   0  0  0  0  0  0  0  0  0  0  0  0
    1.9112   -5.9555    6.5820 H   0  0  0  0  0  0  0  0  0  0  0  0
    0.0187   -3.3974    4.3070 H   0  0  0  0  0  0  0  0  0  0  0  0
    0.7815   -3.4308    5.8766 H   0  0  0  0  0  0  0  0  0  0  0  0
    2.0961   -3.6630    3.1551 H   0  0  0  0  0  0  0  0  0  0  0  0
    2.2873   -2.3575    4.2810 H   0  0  0  0  0  0  0  0  0  0  0  0
    3.8133   -2.6160    6.3552 H   0  0  0  0  0  0  0  0  0  0  0  0
    4.4389   -4.2063    6.7697 H   0  0  0  0  0  0  0  0  0  0  0  0
    2.7300   -3.8771    6.8910 H   0  0  0  0  0  0  0  0  0  0  0  0
    5.5475   -5.3776    1.0327 H   0  0  0  0  0  0  0  0  0  0  0  0
    3.6034   -6.4904    1.0289 H   0  0  0  0  0  0  0  0  0  0  0  0
    2.7487   -5.3600    2.0716 H   0  0  0  0  0  0  0  0  0  0  0  0
    2.2710   -5.0172   -0.5318 H   0  0  0  0  0  0  0  0  0  0  0  0
    2.2188   -3.9869   -2.3945 H   0  0  0  0  0  0  0  0  0  0  0  0
    1.9478   -2.5281   -4.3268 H   0  0  0  0  0  0  0  0  0  0  0  0
    3.2145   -0.2856   -4.3835 H   0  0  0  0  0  0  0  0  0  0  0  0
    4.8032   -0.9251   -0.6436 H   0  0  0  0  0  0  0  0  0  0  0  0
    4.5319    0.2688   -2.5640 H   0  0  0  0  0  0  0  0  0  0  0  0
  2  1  1  6
  1 28  1  0
  1 29  1  0
  1 30  1  0
  2 18  1  0
  2 21  1  0
  2  3  1  0
  3  4  1  0
  3 31  1  0
  3 32  1  0
  4  5  1  0
  4  6  1  0
  4 33  1  6
  5 34  1  0
  6 16  1  0
  6  7  1  0
  6 35  1  1
  7  8  1  0
  7 18  1  0
  7 36  1  6
  8  9  1  0
  8 37  1  0
  8 38  1  0
  9 10  2  0
  9 39  1  0
 10 16  1  0
 10 11  1  0
 11 12  1  0
 11 40  1  0
 11 41  1  0
 12 13  2  0
 12 14  1  0
 14 15  1  0
 14 42  1  0
 14 43  1  0
 15 16  1  0
 15 44  1  0
 15 45  1  0
 16 17  1  1
 17 46  1  0
 17 47  1  0
 17 48  1  0
 18 19  1  0
 18 49  1  6
 19 20  1  0
 19 50  1  0
 19 51  1  0
 20 21  2  0
 20 52  1  0
 21 22  1  0
 22 27  1  0
 22 23  2  0
 23 24  1  0
 23 53  1  0
 24 25  2  0
 24 54  1  0
 25 26  1  0
 25 55  1  0
 26 27  2  0
 26 57  1  0
 27 56  1  0
M  CHG  1  26   1
M  END
>  <i_m_ct_stereo_status>  (104) 
1

>  <s_m_source_file>  (104) 
/var/tmp/pbs.5076255.sched01/tmpmzpp47sj/0ood7iq68.sdf

>  <i_m_source_file_index>  (104) 
46

>  <i_lp_mmshare_version>  (104) 
48012

>  <i_f3d_flags>  (104) 
0

>  <s_epik_input>  (104) 
W0NIMl0xW0NIMl1DKD1PKVtDSDJdQyg9W0NIXVtDSDJdMilbQ0BAXTEoW0NIM10pW0NASF0oW0NAQEhdKFtDSDJdMylbT0hdKVtDQEBIXTJbQ0BIXShbQ0BdMzRbQ0gzXSlbQ0gyXVtDSF09QzRjNVtjSF1bY0hdW2NIXW5bY0hdNQ==

>  <s_epik_cmdline>  (104) 
J2VwaWtfcHl0aG9uJywgJy1waHQnLCAnMi4wJywgJy1waCcsICc3LjAnLCAnLXRuJywgJzgnLCAnLW1hJywgJzIwMCcsICctaW1hZScsICc8aW5maWxlLm1hZT4nLCAnLW9tYWUnLCAnPG91dGZpbGUubWFlPic=

>  <r_lp_tautomer_probability>  (104) 
0.99995

>  <r_epik_Ionization_Penalty>  (104) 
1.91346

>  <r_epik_Ionization_Penalty_Charging>  (104) 
1.91346

>  <r_epik_Ionization_Penalty_Neutral>  (104) 
1.87714e-07

>  <r_epik_State_Penalty>  (104) 
2.03567

>  <r_epik_Charging_Adjusted_Penalty>  (104) 
3.94913

>  <i_epik_Tot_Q>  (104) 
1

>  <i_epik_Tot_abs_Q>  (104) 
1

>  <s_lp_Force_Field>  (104) 
OPLS3e

>  <r_lp_Energy>  (104) 
49.1459

>  <b_lp_Chiralities_Consistent>  (104) 
1

>  <s_lp_Variant>  (104) 
28:0-2

>  <s_i_glide_gridfile>  (104) 
pfpi4k_grid

>  <i_i_glide_lignum>  (104) 
46

>  <i_i_glide_rotatable_bonds>  (104) 
2

>  <r_i_docking_score>  (104) 
-3.52338

>  <r_i_glide_ligand_efficiency>  (104) 
-0.130495

>  <r_i_glide_ligand_efficiency_sa>  (104) 
-0.391486

>  <r_i_glide_ligand_efficiency_ln>  (104) 
-0.820184

>  <r_i_glide_gscore>  (104) 
-3.52338

>  <r_i_glide_lipo>  (104) 
-0.720503

>  <r_i_glide_hbond>  (104) 
0

>  <r_i_glide_metal>  (104) 
-0

>  <r_i_glide_rewards>  (104) 
-0.92386

>  <r_i_glide_evdw>  (104) 
-24.2139

>  <r_i_glide_ecoul>  (104) 
-5.37091

>  <r_i_glide_erotb>  (104) 
0.144704

>  <r_i_glide_esite>  (104) 
-0.00738425

>  <r_i_glide_emodel>  (104) 
-36.4601

>  <r_i_glide_energy>  (104) 
-29.5848

>  <r_i_glide_einternal>  (104) 
0.484064

>  <r_i_glide_intrahb_reward>  (104) 
-0

>  <i_i_glide_confnum>  (104) 
1

>  <i_i_glide_posenum>  (104) 
5

>  <r_i_glide_eff_state_penalty>  (104) 
0

>  <ligand_id>  (104) 
28

>  <original_smiles>  (104) 
CC12CC(O)C3C(CC=C4CC(=O)CCC43C)C1CC=C2c1cccnc1

>  <smiles>  (104) 
[H]OC1([H])C([H])([H])C2(C([H])([H])[H])C(c3c([H])c([H])c([H])[n+]([H])c3[H])=C([H])C([H])([H])C2([H])C2([H])C([H])([H])C([H])=C3C([H])([H])C(=O)C([H])([H])C([H])([H])C3(C([H])([H])[H])C12[H]

$$$$
29:0:0
     RDKit          3D

 33 36  0  0  1  0  0  0  0  0999 V2000
    2.7147   -4.6007    0.2366 C   0  0  0  0  0  0  0  0  0  0  0  0
    3.8378   -3.9092    0.2000 N   0  0  0  0  0  0  0  0  0  0  0  0
    5.0324   -4.4940    0.4321 C   0  0  0  0  0  0  0  0  0  0  0  0
    6.2674   -3.7847    0.2177 N   0  0  0  0  0  0  0  0  0  0  0  0
    7.5164   -4.2653    0.4783 N   0  0  0  0  0  0  0  0  0  0  0  0
    8.3576   -3.3495    0.1493 N   0  0  0  0  0  0  0  0  0  0  0  0
    7.7183   -2.2353   -0.3551 N   0  0  0  0  0  0  0  0  0  0  0  0
    6.4214   -2.5538   -0.3210 C   0  0  0  0  0  0  0  0  0  0  0  0
    5.3587   -1.6038   -0.8293 C   0  0  0  0  0  0  0  0  0  0  0  0
    5.0349   -1.7729   -2.2484 N   0  0  0  0  0  0  0  0  0  0  0  0
    4.0328   -0.8143   -2.6982 C   0  0  0  0  0  0  0  0  0  0  0  0
    3.5110   -1.4295   -4.0054 C   0  0  0  0  0  0  0  0  0  0  0  0
    3.7542   -2.9326   -3.8789 C   0  0  0  0  0  0  0  0  0  0  0  0
    4.3721   -3.0422   -2.5142 C   0  0  0  0  0  0  0  0  0  0  0  0
    5.0204   -5.8490    0.8761 C   0  0  0  0  0  0  0  0  0  0  0  0
    6.0540   -6.7819    1.2963 C   0  0  0  0  0  0  0  0  0  0  0  0
    5.5322   -7.9808    1.7009 C   0  0  0  0  0  0  0  0  0  0  0  0
    3.8060   -8.1140    1.5534 S   0  0  0  0  0  0  0  0  0  0  0  0
    3.7248   -6.4743    0.9214 C   0  0  0  0  0  0  0  0  0  0  0  0
    2.5472   -5.8735    0.5634 N   0  0  0  0  0  0  0  0  0  0  0  0
    1.8391   -4.0945   -0.1460 H   0  0  0  0  0  0  0  0  0  0  0  0
    4.4716   -1.6405   -0.1959 H   0  0  0  0  0  0  0  0  0  0  0  0
    5.7345   -0.5911   -0.6833 H   0  0  0  0  0  0  0  0  0  0  0  0
    3.2229   -0.7408   -1.9669 H   0  0  0  0  0  0  0  0  0  0  0  0
    4.4513    0.1842   -2.8389 H   0  0  0  0  0  0  0  0  0  0  0  0
    2.4536   -1.1952   -4.1596 H   0  0  0  0  0  0  0  0  0  0  0  0
    4.0782   -1.0484   -4.8539 H   0  0  0  0  0  0  0  0  0  0  0  0
    2.8216   -3.5036   -3.8913 H   0  0  0  0  0  0  0  0  0  0  0  0
    4.4231   -3.3306   -4.6424 H   0  0  0  0  0  0  0  0  0  0  0  0
    5.0239   -3.9058   -2.3964 H   0  0  0  0  0  0  0  0  0  0  0  0
    3.5098   -3.1327   -1.8630 H   0  0  0  0  0  0  0  0  0  0  0  0
    7.1085   -6.5565    1.3475 H   0  0  0  0  0  0  0  0  0  0  0  0
    6.0813   -8.8216    2.1054 H   0  0  0  0  0  0  0  0  0  0  0  0
  1 20  2  0
  1  2  1  0
  1 21  1  0
  2  3  2  0
  3  4  1  0
  3 15  1  0
  4  8  1  0
  4  5  1  0
  5  6  2  0
  6  7  1  0
  7  8  2  0
  8  9  1  0
  9 10  1  0
  9 22  1  0
  9 23  1  0
 10 14  1  0
 10 11  1  0
 11 12  1  0
 11 24  1  0
 11 25  1  0
 12 13  1  0
 12 26  1  0
 12 27  1  0
 13 14  1  0
 13 28  1  0
 13 29  1  0
 14 30  1  0
 14 31  1  0
 15 19  2  0
 15 16  1  0
 16 17  2  0
 16 32  1  0
 17 18  1  0
 17 33  1  0
 18 19  1  0
 19 20  1  0
M  END
>  <i_m_ct_stereo_status>  (105) 
1

>  <s_m_source_file>  (105) 
/var/tmp/pbs.5076255.sched01/tmp9vbryffn/46pprzbbw9.sdf

>  <i_m_source_file_index>  (105) 
1

>  <i_lp_mmshare_version>  (105) 
48012

>  <i_f3d_flags>  (105) 
0

>  <s_epik_input>  (105) 
W2NIXTFbY0hdc2MoYzEyKW5bY0hdbmMyLW4zbm5uYzNbQ0gyXU40W0NIMl1bQ0gyXVtDSDJdW0NIMl00

>  <s_epik_cmdline>  (105) 
J2VwaWtfcHl0aG9uJywgJy1waHQnLCAnMi4wJywgJy1waCcsICc3LjAnLCAnLXRuJywgJzgnLCAnLW1hJywgJzIwMCcsICctaW1hZScsICc8aW5maWxlLm1hZT4nLCAnLW9tYWUnLCAnPG91dGZpbGUubWFlPic=

>  <r_lp_tautomer_probability>  (105) 
1

>  <r_epik_Ionization_Penalty>  (105) 
0.30776

>  <r_epik_Ionization_Penalty_Charging>  (105) 
0

>  <r_epik_Ionization_Penalty_Neutral>  (105) 
0.30776

>  <r_epik_State_Penalty>  (105) 
0.301623

>  <r_epik_Charging_Adjusted_Penalty>  (105) 
0.301623

>  <i_epik_Tot_Q>  (105) 
0

>  <i_epik_Tot_abs_Q>  (105) 
0

>  <s_lp_Force_Field>  (105) 
OPLS3e

>  <r_lp_Energy>  (105) 
28.0035

>  <b_lp_Chiralities_Consistent>  (105) 
1

>  <s_lp_Variant>  (105) 
29:0-1

>  <s_i_glide_gridfile>  (105) 
pfpi4k_grid

>  <i_i_glide_lignum>  (105) 
1

>  <i_i_glide_rotatable_bonds>  (105) 
3

>  <r_i_docking_score>  (105) 
-3.77999

>  <r_i_glide_ligand_efficiency>  (105) 
-0.189

>  <r_i_glide_ligand_efficiency_sa>  (105) 
-0.513024

>  <r_i_glide_ligand_efficiency_ln>  (105) 
-0.946007

>  <r_i_glide_gscore>  (105) 
-3.77999

>  <r_i_glide_lipo>  (105) 
-0.53788

>  <r_i_glide_hbond>  (105) 
0

>  <r_i_glide_metal>  (105) 
-0

>  <r_i_glide_rewards>  (105) 
-1.64292

>  <r_i_glide_evdw>  (105) 
-33.0518

>  <r_i_glide_ecoul>  (105) 
-3.50524

>  <r_i_glide_erotb>  (105) 
0.660369

>  <r_i_glide_esite>  (105) 
-0.0811835

>  <r_i_glide_emodel>  (105) 
-43.2753

>  <r_i_glide_energy>  (105) 
-36.557

>  <r_i_glide_einternal>  (105) 
1.30167

>  <r_i_glide_intrahb_reward>  (105) 
-0

>  <i_i_glide_confnum>  (105) 
1

>  <i_i_glide_posenum>  (105) 
13

>  <r_i_glide_eff_state_penalty>  (105) 
0

>  <ligand_id>  (105) 
29

>  <original_smiles>  (105) 
c1nc(-n2nnnc2CN2CCCC2)c2ccsc2n1

>  <smiles>  (105) 
[H]c1nc(-n2nnnc2C([H])([H])N2C([H])([H])C([H])([H])C([H])([H])C2([H])[H])c2c([H])c([H])sc2n1

$$$$
29:0:1
     RDKit          3D

 33 36  0  0  1  0  0  0  0  0999 V2000
    1.2284   -2.3960    3.7833 C   0  0  0  0  0  0  0  0  0  0  0  0
    2.2774   -2.3540    2.9581 N   0  0  0  0  0  0  0  0  0  0  0  0
    2.6183   -1.1819    2.3702 C   0  0  0  0  0  0  0  0  0  0  0  0
    3.8210   -1.0728    1.6267 N   0  0  0  0  0  0  0  0  0  0  0  0
    4.8721   -0.2993    1.9743 N   0  0  0  0  0  0  0  0  0  0  0  0
    5.8010   -0.5364    1.0914 N   0  0  0  0  0  0  0  0  0  0  0  0
    5.3759   -1.4399    0.1402 N   0  0  0  0  0  0  0  0  0  0  0  0
    4.1353   -1.7521    0.5094 C   0  0  0  0  0  0  0  0  0  0  0  0
    3.2300   -2.7103   -0.2155 C   0  0  0  0  0  0  0  0  0  0  0  0
    3.3380   -2.6198   -1.6774 N   0  0  0  0  0  0  0  0  0  0  0  0
    2.2265   -3.2553   -2.3699 C   0  0  0  0  0  0  0  0  0  0  0  0
    2.7033   -3.3527   -3.8159 C   0  0  0  0  0  0  0  0  0  0  0  0
    4.2195   -3.3795   -3.7221 C   0  0  0  0  0  0  0  0  0  0  0  0
    4.5089   -3.2968   -2.2272 C   0  0  0  0  0  0  0  0  0  0  0  0
    1.8253   -0.0256    2.6161 C   0  0  0  0  0  0  0  0  0  0  0  0
    1.9132    1.3560    2.1912 C   0  0  0  0  0  0  0  0  0  0  0  0
    0.8722    2.0992    2.6858 C   0  0  0  0  0  0  0  0  0  0  0  0
   -0.2304    1.2246    3.6997 S   0  0  0  0  0  0  0  0  0  0  0  0
    0.7095   -0.2424    3.4806 C   0  0  0  0  0  0  0  0  0  0  0  0
    0.3868   -1.4151    4.1029 N   0  0  0  0  0  0  0  0  0  0  0  0
    1.0281   -3.3514    4.2497 H   0  0  0  0  0  0  0  0  0  0  0  0
    3.4647   -3.7227    0.1186 H   0  0  0  0  0  0  0  0  0  0  0  0
    2.2010   -2.5180    0.0933 H   0  0  0  0  0  0  0  0  0  0  0  0
    2.0388   -4.2499   -1.9569 H   0  0  0  0  0  0  0  0  0  0  0  0
    1.3085   -2.6784   -2.3009 H   0  0  0  0  0  0  0  0  0  0  0  0
    2.3001   -4.2327   -4.3171 H   0  0  0  0  0  0  0  0  0  0  0  0
    2.3802   -2.4661   -4.3572 H   0  0  0  0  0  0  0  0  0  0  0  0
    4.6582   -4.2785   -4.1581 H   0  0  0  0  0  0  0  0  0  0  0  0
    4.6240   -2.5076   -4.2348 H   0  0  0  0  0  0  0  0  0  0  0  0
    5.4424   -2.7685   -2.0416 H   0  0  0  0  0  0  0  0  0  0  0  0
    4.5898   -4.3032   -1.8125 H   0  0  0  0  0  0  0  0  0  0  0  0
    2.6946    1.7374    1.5477 H   0  0  0  0  0  0  0  0  0  0  0  0
    0.6579    3.1406    2.4864 H   0  0  0  0  0  0  0  0  0  0  0  0
  1 20  2  0
  1  2  1  0
  1 21  1  0
  2  3  2  0
  3  4  1  0
  3 15  1  0
  4  8  1  0
  4  5  1  0
  5  6  2  0
  6  7  1  0
  7  8  2  0
  8  9  1  0
  9 10  1  0
  9 22  1  0
  9 23  1  0
 10 14  1  0
 10 11  1  0
 11 12  1  0
 11 24  1  0
 11 25  1  0
 12 13  1  0
 12 26  1  0
 12 27  1  0
 13 14  1  0
 13 28  1  0
 13 29  1  0
 14 30  1  0
 14 31  1  0
 15 19  2  0
 15 16  1  0
 16 17  2  0
 16 32  1  0
 17 18  1  0
 17 33  1  0
 18 19  1  0
 19 20  1  0
M  END
>  <i_m_ct_stereo_status>  (106) 
1

>  <s_m_source_file>  (106) 
/var/tmp/pbs.5076255.sched01/tmp9vbryffn/46pprzbbw9.sdf

>  <i_m_source_file_index>  (106) 
1

>  <i_lp_mmshare_version>  (106) 
48012

>  <i_f3d_flags>  (106) 
0

>  <s_epik_input>  (106) 
W2NIXTFbY0hdc2MoYzEyKW5bY0hdbmMyLW4zbm5uYzNbQ0gyXU40W0NIMl1bQ0gyXVtDSDJdW0NIMl00

>  <s_epik_cmdline>  (106) 
J2VwaWtfcHl0aG9uJywgJy1waHQnLCAnMi4wJywgJy1waCcsICc3LjAnLCAnLXRuJywgJzgnLCAnLW1hJywgJzIwMCcsICctaW1hZScsICc8aW5maWxlLm1hZT4nLCAnLW9tYWUnLCAnPG91dGZpbGUubWFlPic=

>  <r_lp_tautomer_probability>  (106) 
1

>  <r_epik_Ionization_Penalty>  (106) 
0.30776

>  <r_epik_Ionization_Penalty_Charging>  (106) 
0

>  <r_epik_Ionization_Penalty_Neutral>  (106) 
0.30776

>  <r_epik_State_Penalty>  (106) 
0.301623

>  <r_epik_Charging_Adjusted_Penalty>  (106) 
0.301623

>  <i_epik_Tot_Q>  (106) 
0

>  <i_epik_Tot_abs_Q>  (106) 
0

>  <s_lp_Force_Field>  (106) 
OPLS3e

>  <r_lp_Energy>  (106) 
28.0035

>  <b_lp_Chiralities_Consistent>  (106) 
1

>  <s_lp_Variant>  (106) 
29:0-1

>  <s_i_glide_gridfile>  (106) 
pfpi4k_grid

>  <i_i_glide_lignum>  (106) 
1

>  <i_i_glide_rotatable_bonds>  (106) 
3

>  <r_i_docking_score>  (106) 
-3.24726

>  <r_i_glide_ligand_efficiency>  (106) 
-0.162363

>  <r_i_glide_ligand_efficiency_sa>  (106) 
-0.440721

>  <r_i_glide_ligand_efficiency_ln>  (106) 
-0.812682

>  <r_i_glide_gscore>  (106) 
-3.24726

>  <r_i_glide_lipo>  (106) 
-0.511609

>  <r_i_glide_hbond>  (106) 
0

>  <r_i_glide_metal>  (106) 
-0

>  <r_i_glide_rewards>  (106) 
-1.50359

>  <r_i_glide_evdw>  (106) 
-27.6961

>  <r_i_glide_ecoul>  (106) 
-3.14222

>  <r_i_glide_erotb>  (106) 
0.660369

>  <r_i_glide_esite>  (106) 
-0.0362855

>  <r_i_glide_emodel>  (106) 
-37.0268

>  <r_i_glide_energy>  (106) 
-30.8384

>  <r_i_glide_einternal>  (106) 
2.16374

>  <r_i_glide_intrahb_reward>  (106) 
-0

>  <i_i_glide_confnum>  (106) 
3

>  <i_i_glide_posenum>  (106) 
30

>  <r_i_glide_eff_state_penalty>  (106) 
0

>  <ligand_id>  (106) 
29

>  <original_smiles>  (106) 
c1nc(-n2nnnc2CN2CCCC2)c2ccsc2n1

>  <smiles>  (106) 
[H]c1nc(-n2nnnc2C([H])([H])N2C([H])([H])C([H])([H])C([H])([H])C2([H])[H])c2c([H])c([H])sc2n1

$$$$
29:0:2
     RDKit          3D

 33 36  0  0  1  0  0  0  0  0999 V2000
    3.4856   -5.9725    0.9817 C   0  0  0  0  0  0  0  0  0  0  0  0
    4.5890   -5.3892    0.5158 N   0  0  0  0  0  0  0  0  0  0  0  0
    4.8800   -4.1203    0.8813 C   0  0  0  0  0  0  0  0  0  0  0  0
    6.0940   -3.5405    0.4425 N   0  0  0  0  0  0  0  0  0  0  0  0
    7.3211   -4.0692    0.6578 N   0  0  0  0  0  0  0  0  0  0  0  0
    8.1686   -3.2921    0.0486 N   0  0  0  0  0  0  0  0  0  0  0  0
    7.5142   -2.2569   -0.5927 N   0  0  0  0  0  0  0  0  0  0  0  0
    6.2273   -2.4436   -0.3221 C   0  0  0  0  0  0  0  0  0  0  0  0
    5.1224   -1.5644   -0.8475 C   0  0  0  0  0  0  0  0  0  0  0  0
    4.8592   -1.7583   -2.2709 N   0  0  0  0  0  0  0  0  0  0  0  0
    3.8648   -0.8187   -2.7795 C   0  0  0  0  0  0  0  0  0  0  0  0
    3.4202   -1.4454   -4.1004 C   0  0  0  0  0  0  0  0  0  0  0  0
    3.6776   -2.9391   -3.9193 C   0  0  0  0  0  0  0  0  0  0  0  0
    4.2562   -3.0601   -2.5152 C   0  0  0  0  0  0  0  0  0  0  0  0
    4.0027   -3.4294    1.7651 C   0  0  0  0  0  0  0  0  0  0  0  0
    4.0212   -2.1118    2.3728 C   0  0  0  0  0  0  0  0  0  0  0  0
    2.9192   -1.9126    3.1713 C   0  0  0  0  0  0  0  0  0  0  0  0
    1.8476   -3.2747    3.2841 S   0  0  0  0  0  0  0  0  0  0  0  0
    2.8584   -4.1859    2.1731 C   0  0  0  0  0  0  0  0  0  0  0  0
    2.5588   -5.4616    1.7947 N   0  0  0  0  0  0  0  0  0  0  0  0
    3.3264   -6.9902    0.6564 H   0  0  0  0  0  0  0  0  0  0  0  0
    4.2037   -1.6864   -0.2731 H   0  0  0  0  0  0  0  0  0  0  0  0
    5.4434   -0.5333   -0.7045 H   0  0  0  0  0  0  0  0  0  0  0  0
    3.0140   -0.7570   -2.0983 H   0  0  0  0  0  0  0  0  0  0  0  0
    4.2636    0.1876   -2.9130 H   0  0  0  0  0  0  0  0  0  0  0  0
    2.3722   -1.2340   -4.3173 H   0  0  0  0  0  0  0  0  0  0  0  0
    4.0099   -1.0542   -4.9302 H   0  0  0  0  0  0  0  0  0  0  0  0
    2.7695   -3.5339   -4.0264 H   0  0  0  0  0  0  0  0  0  0  0  0
    4.3996   -3.2971   -4.6513 H   0  0  0  0  0  0  0  0  0  0  0  0
    4.9798   -3.8720   -2.4309 H   0  0  0  0  0  0  0  0  0  0  0  0
    3.4502   -3.2373   -1.8021 H   0  0  0  0  0  0  0  0  0  0  0  0
    4.7979   -1.3779    2.2108 H   0  0  0  0  0  0  0  0  0  0  0  0
    2.6684   -1.0179    3.7207 H   0  0  0  0  0  0  0  0  0  0  0  0
  1 20  2  0
  1  2  1  0
  1 21  1  0
  2  3  2  0
  3  4  1  0
  3 15  1  0
  4  8  1  0
  4  5  1  0
  5  6  2  0
  6  7  1  0
  7  8  2  0
  8  9  1  0
  9 10  1  0
  9 22  1  0
  9 23  1  0
 10 14  1  0
 10 11  1  0
 11 12  1  0
 11 24  1  0
 11 25  1  0
 12 13  1  0
 12 26  1  0
 12 27  1  0
 13 14  1  0
 13 28  1  0
 13 29  1  0
 14 30  1  0
 14 31  1  0
 15 19  2  0
 15 16  1  0
 16 17  2  0
 16 32  1  0
 17 18  1  0
 17 33  1  0
 18 19  1  0
 19 20  1  0
M  END
>  <i_m_ct_stereo_status>  (107) 
1

>  <s_m_source_file>  (107) 
/var/tmp/pbs.5076255.sched01/tmp9vbryffn/46pprzbbw9.sdf

>  <i_m_source_file_index>  (107) 
1

>  <i_lp_mmshare_version>  (107) 
48012

>  <i_f3d_flags>  (107) 
0

>  <s_epik_input>  (107) 
W2NIXTFbY0hdc2MoYzEyKW5bY0hdbmMyLW4zbm5uYzNbQ0gyXU40W0NIMl1bQ0gyXVtDSDJdW0NIMl00

>  <s_epik_cmdline>  (107) 
J2VwaWtfcHl0aG9uJywgJy1waHQnLCAnMi4wJywgJy1waCcsICc3LjAnLCAnLXRuJywgJzgnLCAnLW1hJywgJzIwMCcsICctaW1hZScsICc8aW5maWxlLm1hZT4nLCAnLW9tYWUnLCAnPG91dGZpbGUubWFlPic=

>  <r_lp_tautomer_probability>  (107) 
1

>  <r_epik_Ionization_Penalty>  (107) 
0.30776

>  <r_epik_Ionization_Penalty_Charging>  (107) 
0

>  <r_epik_Ionization_Penalty_Neutral>  (107) 
0.30776

>  <r_epik_State_Penalty>  (107) 
0.301623

>  <r_epik_Charging_Adjusted_Penalty>  (107) 
0.301623

>  <i_epik_Tot_Q>  (107) 
0

>  <i_epik_Tot_abs_Q>  (107) 
0

>  <s_lp_Force_Field>  (107) 
OPLS3e

>  <r_lp_Energy>  (107) 
28.0035

>  <b_lp_Chiralities_Consistent>  (107) 
1

>  <s_lp_Variant>  (107) 
29:0-1

>  <s_i_glide_gridfile>  (107) 
pfpi4k_grid

>  <i_i_glide_lignum>  (107) 
1

>  <i_i_glide_rotatable_bonds>  (107) 
3

>  <r_i_docking_score>  (107) 
-3.20818

>  <r_i_glide_ligand_efficiency>  (107) 
-0.160409

>  <r_i_glide_ligand_efficiency_sa>  (107) 
-0.435417

>  <r_i_glide_ligand_efficiency_ln>  (107) 
-0.802902

>  <r_i_glide_gscore>  (107) 
-3.20818

>  <r_i_glide_lipo>  (107) 
-0.144723

>  <r_i_glide_hbond>  (107) 
0

>  <r_i_glide_metal>  (107) 
-0

>  <r_i_glide_rewards>  (107) 
-1.63402

>  <r_i_glide_evdw>  (107) 
-30.2252

>  <r_i_glide_ecoul>  (107) 
-3.38943

>  <r_i_glide_erotb>  (107) 
0.660369

>  <r_i_glide_esite>  (107) 
-0.0701346

>  <r_i_glide_emodel>  (107) 
-40.273

>  <r_i_glide_energy>  (107) 
-33.6146

>  <r_i_glide_einternal>  (107) 
1.31087

>  <r_i_glide_intrahb_reward>  (107) 
-0

>  <i_i_glide_confnum>  (107) 
1

>  <i_i_glide_posenum>  (107) 
1

>  <r_i_glide_eff_state_penalty>  (107) 
0

>  <ligand_id>  (107) 
29

>  <original_smiles>  (107) 
c1nc(-n2nnnc2CN2CCCC2)c2ccsc2n1

>  <smiles>  (107) 
[H]c1nc(-n2nnnc2C([H])([H])N2C([H])([H])C([H])([H])C([H])([H])C2([H])[H])c2c([H])c([H])sc2n1

$$$$
29:1:0
     RDKit          3D

 34 37  0  0  1  0  0  0  0  0999 V2000
    1.3413   -2.6721    3.7462 C   0  0  0  0  0  0  0  0  0  0  0  0
    2.3985   -2.5063    2.9508 N   0  0  0  0  0  0  0  0  0  0  0  0
    2.6184   -1.2882    2.4056 C   0  0  0  0  0  0  0  0  0  0  0  0
    3.8046   -1.0778    1.6835 N   0  0  0  0  0  0  0  0  0  0  0  0
    4.8013   -0.2811    2.1026 N   0  0  0  0  0  0  0  0  0  0  0  0
    5.7839   -0.4639    1.2676 N   0  0  0  0  0  0  0  0  0  0  0  0
    5.4723   -1.4065    0.3124 N   0  0  0  0  0  0  0  0  0  0  0  0
    4.2076   -1.7234    0.5725 C   0  0  0  0  0  0  0  0  0  0  0  0
    3.3852   -2.6807   -0.2439 C   0  0  0  0  0  0  0  0  0  0  0  0
    3.0900   -2.0622   -1.5769 N   0  0  0  0  0  0  0  0  0  0  0  0
    4.1939   -1.3366   -2.2562 C   0  0  0  0  0  0  0  0  0  0  0  0
    3.7776   -1.1805   -3.7052 C   0  0  0  0  0  0  0  0  0  0  0  0
    2.7618   -2.2996   -3.9218 C   0  0  0  0  0  0  0  0  0  0  0  0
    2.6416   -3.0397   -2.5911 C   0  0  0  0  0  0  0  0  0  0  0  0
    1.7086   -0.2243    2.6275 C   0  0  0  0  0  0  0  0  0  0  0  0
    1.6475    1.1555    2.1938 C   0  0  0  0  0  0  0  0  0  0  0  0
    0.5285    1.7733    2.6671 C   0  0  0  0  0  0  0  0  0  0  0  0
   -0.4966    0.7891    3.6686 S   0  0  0  0  0  0  0  0  0  0  0  0
    0.6043   -0.5642    3.4691 C   0  0  0  0  0  0  0  0  0  0  0  0
    0.4115   -1.7761    4.0692 N   0  0  0  0  0  0  0  0  0  0  0  0
    1.2274   -3.6569    4.1820 H   0  0  0  0  0  0  0  0  0  0  0  0
    3.9521   -3.6021   -0.3348 H   0  0  0  0  0  0  0  0  0  0  0  0
    2.4512   -2.9326    0.2511 H   0  0  0  0  0  0  0  0  0  0  0  0
    4.4215   -0.3562   -1.8319 H   0  0  0  0  0  0  0  0  0  0  0  0
    5.0895   -1.9625   -2.2413 H   0  0  0  0  0  0  0  0  0  0  0  0
    3.3152   -0.2043   -3.8571 H   0  0  0  0  0  0  0  0  0  0  0  0
    4.6303   -1.2393   -4.3811 H   0  0  0  0  0  0  0  0  0  0  0  0
    1.8120   -1.8668   -4.2285 H   0  0  0  0  0  0  0  0  0  0  0  0
    3.0642   -2.9845   -4.7061 H   0  0  0  0  0  0  0  0  0  0  0  0
    3.3406   -3.8775   -2.6125 H   0  0  0  0  0  0  0  0  0  0  0  0
    1.6368   -3.4325   -2.4103 H   0  0  0  0  0  0  0  0  0  0  0  0
    2.4004    1.6341    1.5718 H   0  0  0  0  0  0  0  0  0  0  0  0
    0.2250    2.7942    2.4835 H   0  0  0  0  0  0  0  0  0  0  0  0
    2.3133   -1.4081   -1.4525 H   0  0  0  0  0  0  0  0  0  0  0  0
  1 20  2  0
  1  2  1  0
  1 21  1  0
  2  3  2  0
  3  4  1  0
  3 15  1  0
  4  8  1  0
  4  5  1  0
  5  6  2  0
  6  7  1  0
  7  8  2  0
  8  9  1  0
  9 10  1  0
  9 22  1  0
  9 23  1  0
 10 14  1  0
 10 11  1  0
 10 34  1  0
 11 12  1  0
 11 24  1  0
 11 25  1  0
 12 13  1  0
 12 26  1  0
 12 27  1  0
 13 14  1  0
 13 28  1  0
 13 29  1  0
 14 30  1  0
 14 31  1  0
 15 19  2  0
 15 16  1  0
 16 17  2  0
 16 32  1  0
 17 18  1  0
 17 33  1  0
 18 19  1  0
 19 20  1  0
M  CHG  1  10   1
M  END
>  <i_m_ct_stereo_status>  (108) 
1

>  <s_m_source_file>  (108) 
/var/tmp/pbs.5076255.sched01/tmp9vbryffn/46pprzbbw9.sdf

>  <i_m_source_file_index>  (108) 
2

>  <i_lp_mmshare_version>  (108) 
48012

>  <i_f3d_flags>  (108) 
0

>  <s_epik_input>  (108) 
W2NIXTFbY0hdc2MoYzEyKW5bY0hdbmMyLW4zbm5uYzNbQ0gyXU40W0NIMl1bQ0gyXVtDSDJdW0NIMl00

>  <s_epik_cmdline>  (108) 
J2VwaWtfcHl0aG9uJywgJy1waHQnLCAnMi4wJywgJy1waCcsICc3LjAnLCAnLXRuJywgJzgnLCAnLW1hJywgJzIwMCcsICctaW1hZScsICc8aW5maWxlLm1hZT4nLCAnLW9tYWUnLCAnPG91dGZpbGUubWFlPic=

>  <r_lp_tautomer_probability>  (108) 
1

>  <r_epik_Ionization_Penalty>  (108) 
0.535317

>  <r_epik_Ionization_Penalty_Charging>  (108) 
0.535316

>  <r_epik_Ionization_Penalty_Neutral>  (108) 
3.3374e-07

>  <r_epik_State_Penalty>  (108) 
0.544444

>  <r_epik_Charging_Adjusted_Penalty>  (108) 
1.07976

>  <i_epik_Tot_Q>  (108) 
1

>  <i_epik_Tot_abs_Q>  (108) 
1

>  <s_lp_Force_Field>  (108) 
OPLS3e

>  <r_lp_Energy>  (108) 
32.1173

>  <b_lp_Chiralities_Consistent>  (108) 
1

>  <s_lp_Variant>  (108) 
29:0-2

>  <s_i_glide_gridfile>  (108) 
pfpi4k_grid

>  <i_i_glide_lignum>  (108) 
2

>  <i_i_glide_rotatable_bonds>  (108) 
3

>  <r_i_docking_score>  (108) 
-4.06757

>  <r_i_glide_ligand_efficiency>  (108) 
-0.203378

>  <r_i_glide_ligand_efficiency_sa>  (108) 
-0.552054

>  <r_i_glide_ligand_efficiency_ln>  (108) 
-1.01798

>  <r_i_glide_gscore>  (108) 
-4.06757

>  <r_i_glide_lipo>  (108) 
-0.350059

>  <r_i_glide_hbond>  (108) 
-0.2

>  <r_i_glide_metal>  (108) 
-0

>  <r_i_glide_rewards>  (108) 
-1.49239

>  <r_i_glide_evdw>  (108) 
-28.1947

>  <r_i_glide_ecoul>  (108) 
-7.68292

>  <r_i_glide_erotb>  (108) 
0.656353

>  <r_i_glide_esite>  (108) 
-0.119296

>  <r_i_glide_emodel>  (108) 
-44.2221

>  <r_i_glide_energy>  (108) 
-35.8776

>  <r_i_glide_einternal>  (108) 
4.04981

>  <r_i_glide_intrahb_reward>  (108) 
-0

>  <i_i_glide_confnum>  (108) 
5

>  <i_i_glide_posenum>  (108) 
31

>  <r_i_glide_eff_state_penalty>  (108) 
0

>  <ligand_id>  (108) 
29

>  <original_smiles>  (108) 
c1nc(-n2nnnc2CN2CCCC2)c2ccsc2n1

>  <smiles>  (108) 
[H]c1nc(-n2nnnc2C([H])([H])[N+]2([H])C([H])([H])C([H])([H])C([H])([H])C2([H])[H])c2c([H])c([H])sc2n1

$$$$
29:1:1
     RDKit          3D

 34 37  0  0  1  0  0  0  0  0999 V2000
    5.1836   -0.6438    1.5994 C   0  0  0  0  0  0  0  0  0  0  0  0
    4.5535   -1.7395    1.1874 N   0  0  0  0  0  0  0  0  0  0  0  0
    4.0615   -2.6289    2.0818 C   0  0  0  0  0  0  0  0  0  0  0  0
    3.3546   -3.7875    1.6331 N   0  0  0  0  0  0  0  0  0  0  0  0
    2.4076   -4.4448    2.3467 N   0  0  0  0  0  0  0  0  0  0  0  0
    2.0195   -5.4477    1.6212 N   0  0  0  0  0  0  0  0  0  0  0  0
    2.6585   -5.4505    0.4002 N   0  0  0  0  0  0  0  0  0  0  0  0
    3.4944   -4.4204    0.4457 C   0  0  0  0  0  0  0  0  0  0  0  0
    4.4828   -4.1305   -0.6530 C   0  0  0  0  0  0  0  0  0  0  0  0
    4.0084   -2.8947   -1.3356 N   0  0  0  0  0  0  0  0  0  0  0  0
    5.0794   -2.1388   -2.0064 C   0  0  0  0  0  0  0  0  0  0  0  0
    4.3574   -1.1182   -2.8859 C   0  0  0  0  0  0  0  0  0  0  0  0
    2.9728   -1.7227   -3.1281 C   0  0  0  0  0  0  0  0  0  0  0  0
    2.9526   -3.0480   -2.3555 C   0  0  0  0  0  0  0  0  0  0  0  0
    4.2134   -2.3492    3.4735 C   0  0  0  0  0  0  0  0  0  0  0  0
    3.8275   -3.0242    4.7035 C   0  0  0  0  0  0  0  0  0  0  0  0
    4.1991   -2.3137    5.8153 C   0  0  0  0  0  0  0  0  0  0  0  0
    5.0153   -0.8203    5.4879 S   0  0  0  0  0  0  0  0  0  0  0  0
    4.9063   -1.1235    3.7607 C   0  0  0  0  0  0  0  0  0  0  0  0
    5.4155   -0.2582    2.8440 N   0  0  0  0  0  0  0  0  0  0  0  0
    5.5405    0.0121    0.8192 H   0  0  0  0  0  0  0  0  0  0  0  0
    5.4813   -4.0180   -0.2252 H   0  0  0  0  0  0  0  0  0  0  0  0
    4.5363   -4.9702   -1.3458 H   0  0  0  0  0  0  0  0  0  0  0  0
    5.7783   -1.6787   -1.3042 H   0  0  0  0  0  0  0  0  0  0  0  0
    5.6418   -2.8296   -2.6341 H   0  0  0  0  0  0  0  0  0  0  0  0
    4.2765   -0.1620   -2.3639 H   0  0  0  0  0  0  0  0  0  0  0  0
    4.8997   -0.9480   -3.8148 H   0  0  0  0  0  0  0  0  0  0  0  0
    2.2197   -1.0496   -2.7223 H   0  0  0  0  0  0  0  0  0  0  0  0
    2.7527   -1.8630   -4.1872 H   0  0  0  0  0  0  0  0  0  0  0  0
    3.2390   -3.8467   -3.0404 H   0  0  0  0  0  0  0  0  0  0  0  0
    1.9718   -3.2941   -1.9383 H   0  0  0  0  0  0  0  0  0  0  0  0
    3.3038   -3.9714    4.7436 H   0  0  0  0  0  0  0  0  0  0  0  0
    4.0387   -2.5902    6.8448 H   0  0  0  0  0  0  0  0  0  0  0  0
    3.6539   -2.2561   -0.6325 H   0  0  0  0  0  0  0  0  0  0  0  0
  1 20  2  0
  1  2  1  0
  1 21  1  0
  2  3  2  0
  3  4  1  0
  3 15  1  0
  4  8  1  0
  4  5  1  0
  5  6  2  0
  6  7  1  0
  7  8  2  0
  8  9  1  0
  9 10  1  0
  9 22  1  0
  9 23  1  0
 10 14  1  0
 10 11  1  0
 10 34  1  0
 11 12  1  0
 11 24  1  0
 11 25  1  0
 12 13  1  0
 12 26  1  0
 12 27  1  0
 13 14  1  0
 13 28  1  0
 13 29  1  0
 14 30  1  0
 14 31  1  0
 15 19  2  0
 15 16  1  0
 16 17  2  0
 16 32  1  0
 17 18  1  0
 17 33  1  0
 18 19  1  0
 19 20  1  0
M  CHG  1  10   1
M  END
>  <i_m_ct_stereo_status>  (109) 
1

>  <s_m_source_file>  (109) 
/var/tmp/pbs.5076255.sched01/tmp9vbryffn/46pprzbbw9.sdf

>  <i_m_source_file_index>  (109) 
2

>  <i_lp_mmshare_version>  (109) 
48012

>  <i_f3d_flags>  (109) 
0

>  <s_epik_input>  (109) 
W2NIXTFbY0hdc2MoYzEyKW5bY0hdbmMyLW4zbm5uYzNbQ0gyXU40W0NIMl1bQ0gyXVtDSDJdW0NIMl00

>  <s_epik_cmdline>  (109) 
J2VwaWtfcHl0aG9uJywgJy1waHQnLCAnMi4wJywgJy1waCcsICc3LjAnLCAnLXRuJywgJzgnLCAnLW1hJywgJzIwMCcsICctaW1hZScsICc8aW5maWxlLm1hZT4nLCAnLW9tYWUnLCAnPG91dGZpbGUubWFlPic=

>  <r_lp_tautomer_probability>  (109) 
1

>  <r_epik_Ionization_Penalty>  (109) 
0.535317

>  <r_epik_Ionization_Penalty_Charging>  (109) 
0.535316

>  <r_epik_Ionization_Penalty_Neutral>  (109) 
3.3374e-07

>  <r_epik_State_Penalty>  (109) 
0.544444

>  <r_epik_Charging_Adjusted_Penalty>  (109) 
1.07976

>  <i_epik_Tot_Q>  (109) 
1

>  <i_epik_Tot_abs_Q>  (109) 
1

>  <s_lp_Force_Field>  (109) 
OPLS3e

>  <r_lp_Energy>  (109) 
32.1173

>  <b_lp_Chiralities_Consistent>  (109) 
1

>  <s_lp_Variant>  (109) 
29:0-2

>  <s_i_glide_gridfile>  (109) 
pfpi4k_grid

>  <i_i_glide_lignum>  (109) 
2

>  <i_i_glide_rotatable_bonds>  (109) 
3

>  <r_i_docking_score>  (109) 
-3.53015

>  <r_i_glide_ligand_efficiency>  (109) 
-0.176507

>  <r_i_glide_ligand_efficiency_sa>  (109) 
-0.479115

>  <r_i_glide_ligand_efficiency_ln>  (109) 
-0.883479

>  <r_i_glide_gscore>  (109) 
-3.53015

>  <r_i_glide_lipo>  (109) 
-0.118601

>  <r_i_glide_hbond>  (109) 
-0.0675831

>  <r_i_glide_metal>  (109) 
-0

>  <r_i_glide_rewards>  (109) 
-2.14526

>  <r_i_glide_evdw>  (109) 
-22.6996

>  <r_i_glide_ecoul>  (109) 
-4.02463

>  <r_i_glide_erotb>  (109) 
0.656353

>  <r_i_glide_esite>  (109) 
-0.116376

>  <r_i_glide_emodel>  (109) 
-40.4397

>  <r_i_glide_energy>  (109) 
-26.7242

>  <r_i_glide_einternal>  (109) 
1.01498

>  <r_i_glide_intrahb_reward>  (109) 
-0.5

>  <i_i_glide_confnum>  (109) 
6

>  <i_i_glide_posenum>  (109) 
17

>  <r_i_glide_eff_state_penalty>  (109) 
0

>  <ligand_id>  (109) 
29

>  <original_smiles>  (109) 
c1nc(-n2nnnc2CN2CCCC2)c2ccsc2n1

>  <smiles>  (109) 
[H]c1nc(-n2nnnc2C([H])([H])[N+]2([H])C([H])([H])C([H])([H])C([H])([H])C2([H])[H])c2c([H])c([H])sc2n1

$$$$
29:1:2
     RDKit          3D

 34 37  0  0  1  0  0  0  0  0999 V2000
    2.4647   -3.5143    2.3128 C   0  0  0  0  0  0  0  0  0  0  0  0
    3.5589   -3.0424    1.7182 N   0  0  0  0  0  0  0  0  0  0  0  0
    4.4379   -3.8956    1.1445 C   0  0  0  0  0  0  0  0  0  0  0  0
    5.6173   -3.4081    0.5243 N   0  0  0  0  0  0  0  0  0  0  0  0
    6.8539   -3.9311    0.6950 N   0  0  0  0  0  0  0  0  0  0  0  0
    7.6574   -3.2252   -0.0488 N   0  0  0  0  0  0  0  0  0  0  0  0
    6.9666   -2.2396   -0.7337 N   0  0  0  0  0  0  0  0  0  0  0  0
    5.7054   -2.3722   -0.3330 C   0  0  0  0  0  0  0  0  0  0  0  0
    4.5991   -1.4541   -0.7833 C   0  0  0  0  0  0  0  0  0  0  0  0
    4.3786   -1.7551   -2.2190 N   0  0  0  0  0  0  0  0  0  0  0  0
    3.5755   -2.9654   -2.4728 C   0  0  0  0  0  0  0  0  0  0  0  0
    3.1213   -2.8311   -3.9237 C   0  0  0  0  0  0  0  0  0  0  0  0
    3.1921   -1.3283   -4.2391 C   0  0  0  0  0  0  0  0  0  0  0  0
    3.6746   -0.6825   -2.9453 C   0  0  0  0  0  0  0  0  0  0  0  0
    4.1819   -5.2954    1.2004 C   0  0  0  0  0  0  0  0  0  0  0  0
    4.8966   -6.4679    0.7349 C   0  0  0  0  0  0  0  0  0  0  0  0
    4.2224   -7.6240    1.0353 C   0  0  0  0  0  0  0  0  0  0  0  0
    2.7182   -7.3929    1.8691 S   0  0  0  0  0  0  0  0  0  0  0  0
    2.9607   -5.6508    1.8584 C   0  0  0  0  0  0  0  0  0  0  0  0
    2.0729   -4.7840    2.4242 N   0  0  0  0  0  0  0  0  0  0  0  0
    1.7969   -2.7768    2.7366 H   0  0  0  0  0  0  0  0  0  0  0  0
    3.6733   -1.5488   -0.2234 H   0  0  0  0  0  0  0  0  0  0  0  0
    4.9428   -0.4286   -0.6539 H   0  0  0  0  0  0  0  0  0  0  0  0
    4.1175   -3.8925   -2.2750 H   0  0  0  0  0  0  0  0  0  0  0  0
    2.6927   -2.9449   -1.8331 H   0  0  0  0  0  0  0  0  0  0  0  0
    3.7975   -3.3789   -4.5784 H   0  0  0  0  0  0  0  0  0  0  0  0
    2.1218   -3.2420   -4.0700 H   0  0  0  0  0  0  0  0  0  0  0  0
    3.8955   -1.1308   -5.0468 H   0  0  0  0  0  0  0  0  0  0  0  0
    2.2269   -0.9217   -4.5477 H   0  0  0  0  0  0  0  0  0  0  0  0
    2.7987   -0.3978   -2.3616 H   0  0  0  0  0  0  0  0  0  0  0  0
    4.2771    0.2139   -3.1084 H   0  0  0  0  0  0  0  0  0  0  0  0
    5.8493   -6.4234    0.2243 H   0  0  0  0  0  0  0  0  0  0  0  0
    4.5263   -8.6343    0.8095 H   0  0  0  0  0  0  0  0  0  0  0  0
    5.2715   -1.8835   -2.6751 H   0  0  0  0  0  0  0  0  0  0  0  0
  1 20  2  0
  1  2  1  0
  1 21  1  0
  2  3  2  0
  3  4  1  0
  3 15  1  0
  4  8  1  0
  4  5  1  0
  5  6  2  0
  6  7  1  0
  7  8  2  0
  8  9  1  0
  9 10  1  0
  9 22  1  0
  9 23  1  0
 10 14  1  0
 10 11  1  0
 10 34  1  0
 11 12  1  0
 11 24  1  0
 11 25  1  0
 12 13  1  0
 12 26  1  0
 12 27  1  0
 13 14  1  0
 13 28  1  0
 13 29  1  0
 14 30  1  0
 14 31  1  0
 15 19  2  0
 15 16  1  0
 16 17  2  0
 16 32  1  0
 17 18  1  0
 17 33  1  0
 18 19  1  0
 19 20  1  0
M  CHG  1  10   1
M  END
>  <i_m_ct_stereo_status>  (110) 
1

>  <s_m_source_file>  (110) 
/var/tmp/pbs.5076255.sched01/tmp9vbryffn/46pprzbbw9.sdf

>  <i_m_source_file_index>  (110) 
2

>  <i_lp_mmshare_version>  (110) 
48012

>  <i_f3d_flags>  (110) 
0

>  <s_epik_input>  (110) 
W2NIXTFbY0hdc2MoYzEyKW5bY0hdbmMyLW4zbm5uYzNbQ0gyXU40W0NIMl1bQ0gyXVtDSDJdW0NIMl00

>  <s_epik_cmdline>  (110) 
J2VwaWtfcHl0aG9uJywgJy1waHQnLCAnMi4wJywgJy1waCcsICc3LjAnLCAnLXRuJywgJzgnLCAnLW1hJywgJzIwMCcsICctaW1hZScsICc8aW5maWxlLm1hZT4nLCAnLW9tYWUnLCAnPG91dGZpbGUubWFlPic=

>  <r_lp_tautomer_probability>  (110) 
1

>  <r_epik_Ionization_Penalty>  (110) 
0.535317

>  <r_epik_Ionization_Penalty_Charging>  (110) 
0.535316

>  <r_epik_Ionization_Penalty_Neutral>  (110) 
3.3374e-07

>  <r_epik_State_Penalty>  (110) 
0.544444

>  <r_epik_Charging_Adjusted_Penalty>  (110) 
1.07976

>  <i_epik_Tot_Q>  (110) 
1

>  <i_epik_Tot_abs_Q>  (110) 
1

>  <s_lp_Force_Field>  (110) 
OPLS3e

>  <r_lp_Energy>  (110) 
32.1173

>  <b_lp_Chiralities_Consistent>  (110) 
1

>  <s_lp_Variant>  (110) 
29:0-2

>  <s_i_glide_gridfile>  (110) 
pfpi4k_grid

>  <i_i_glide_lignum>  (110) 
2

>  <i_i_glide_rotatable_bonds>  (110) 
3

>  <r_i_docking_score>  (110) 
-3.51784

>  <r_i_glide_ligand_efficiency>  (110) 
-0.175892

>  <r_i_glide_ligand_efficiency_sa>  (110) 
-0.477444

>  <r_i_glide_ligand_efficiency_ln>  (110) 
-0.880399

>  <r_i_glide_gscore>  (110) 
-3.51784

>  <r_i_glide_lipo>  (110) 
-0.390853

>  <r_i_glide_hbond>  (110) 
0

>  <r_i_glide_metal>  (110) 
-0

>  <r_i_glide_rewards>  (110) 
-1.54955

>  <r_i_glide_evdw>  (110) 
-28.1399

>  <r_i_glide_ecoul>  (110) 
-4.88588

>  <r_i_glide_erotb>  (110) 
0.656353

>  <r_i_glide_esite>  (110) 
-0.0939148

>  <r_i_glide_emodel>  (110) 
-41.9067

>  <r_i_glide_energy>  (110) 
-33.0258

>  <r_i_glide_einternal>  (110) 
1.10494

>  <r_i_glide_intrahb_reward>  (110) 
-0

>  <i_i_glide_confnum>  (110) 
1

>  <i_i_glide_posenum>  (110) 
2

>  <r_i_glide_eff_state_penalty>  (110) 
0

>  <ligand_id>  (110) 
29

>  <original_smiles>  (110) 
c1nc(-n2nnnc2CN2CCCC2)c2ccsc2n1

>  <smiles>  (110) 
[H]c1nc(-n2nnnc2C([H])([H])[N+]2([H])C([H])([H])C([H])([H])C([H])([H])C2([H])[H])c2c([H])c([H])sc2n1

$$$$
30:0:0
     RDKit          3D

 43 46  0  0  1  0  0  0  0  0999 V2000
   -1.2458   -9.0657    2.5998 C   0  0  0  0  0  0  0  0  0  0  0  0
   -0.6016   -7.9293    3.2271 N   0  0  0  0  0  0  0  0  0  0  0  0
   -1.2773   -7.2292    4.1703 N   0  0  0  0  0  0  0  0  0  0  0  0
   -0.4956   -6.2767    4.5779 N   0  0  0  0  0  0  0  0  0  0  0  0
    0.7187   -6.3633    3.9045 C   0  0  0  0  0  0  0  0  0  0  0  0
    0.6617   -7.4150    3.0322 C   0  0  0  0  0  0  0  0  0  0  0  0
    1.6689   -7.9460    2.0630 C   0  0  0  0  0  0  0  0  0  0  0  0
    2.6893   -6.9577    1.7570 N   0  0  0  0  0  0  0  0  0  0  0  0
    2.4803   -5.9263    0.8586 C   0  0  0  0  0  0  0  0  0  0  0  0
    1.4270   -5.6837    0.2655 O   0  0  0  0  0  0  0  0  0  0  0  0
    3.6285   -5.2499    0.7271 O   0  0  0  0  0  0  0  0  0  0  0  0
    3.7800   -4.2025   -0.2291 C   0  0  2  0  0  0  0  0  0  0  0  0
    5.1712   -4.3275   -0.8890 C   0  0  2  0  0  0  0  0  0  0  0  0
    6.2869   -4.1436    0.1660 C   0  0  0  0  0  0  0  0  0  0  0  0
    6.1454   -2.7546    0.8234 C   0  0  1  0  0  0  0  0  0  0  0  0
    6.2932   -1.6637   -0.2535 C   0  0  0  0  0  0  0  0  0  0  0  0
    5.1947   -1.8463   -1.3249 C   0  0  1  0  0  0  0  0  0  0  0  0
    5.3136   -3.2411   -1.9772 C   0  0  0  0  0  0  0  0  0  0  0  0
    3.8086   -1.7200   -0.6566 C   0  0  0  0  0  0  0  0  0  0  0  0
    3.6529   -2.8092    0.4315 C   0  0  2  0  0  0  0  0  0  0  0  0
    4.7608   -2.6287    1.4950 C   0  0  0  0  0  0  0  0  0  0  0  0
   -0.7343   -9.3345    1.6780 H   0  0  0  0  0  0  0  0  0  0  0  0
   -2.2842   -8.8218    2.3638 H   0  0  0  0  0  0  0  0  0  0  0  0
   -1.2156   -9.9164    3.2840 H   0  0  0  0  0  0  0  0  0  0  0  0
    1.5259   -5.6707    4.0851 H   0  0  0  0  0  0  0  0  0  0  0  0
    2.1407   -8.8349    2.4800 H   0  0  0  0  0  0  0  0  0  0  0  0
    1.1851   -8.2512    1.1349 H   0  0  0  0  0  0  0  0  0  0  0  0
    3.6092   -7.0334    2.1680 H   0  0  0  0  0  0  0  0  0  0  0  0
    3.0276   -4.2955   -1.0121 H   0  0  0  0  0  0  0  0  0  0  0  0
    5.2491   -5.3132   -1.3461 H   0  0  0  0  0  0  0  0  0  0  0  0
    6.2277   -4.9245    0.9241 H   0  0  0  0  0  0  0  0  0  0  0  0
    7.2686   -4.2463   -0.2979 H   0  0  0  0  0  0  0  0  0  0  0  0
    6.9275   -2.6310    1.5721 H   0  0  0  0  0  0  0  0  0  0  0  0
    6.2099   -0.6755    0.2024 H   0  0  0  0  0  0  0  0  0  0  0  0
    7.2853   -1.7309   -0.6978 H   0  0  0  0  0  0  0  0  0  0  0  0
    5.3017   -1.0770   -2.0901 H   0  0  0  0  0  0  0  0  0  0  0  0
    6.2660   -3.3427   -2.4980 H   0  0  0  0  0  0  0  0  0  0  0  0
    4.5343   -3.3684   -2.7293 H   0  0  0  0  0  0  0  0  0  0  0  0
    3.6935   -0.7293   -0.2184 H   0  0  0  0  0  0  0  0  0  0  0  0
    3.0196   -1.8125   -1.4043 H   0  0  0  0  0  0  0  0  0  0  0  0
    2.6710   -2.7099    0.8966 H   0  0  0  0  0  0  0  0  0  0  0  0
    4.6595   -3.3758    2.2826 H   0  0  0  0  0  0  0  0  0  0  0  0
    4.6621   -1.6574    1.9802 H   0  0  0  0  0  0  0  0  0  0  0  0
  1  2  1  0
  1 22  1  0
  1 23  1  0
  1 24  1  0
  2  6  1  0
  2  3  1  0
  3  4  2  0
  4  5  1  0
  5  6  2  0
  5 25  1  0
  6  7  1  0
  7  8  1  0
  7 26  1  0
  7 27  1  0
  8  9  1  0
  8 28  1  0
  9 10  2  0
  9 11  1  0
 11 12  1  0
 12 20  1  0
 12 13  1  0
 12 29  1  6
 13 18  1  0
 13 14  1  0
 13 30  1  6
 14 15  1  0
 14 31  1  0
 14 32  1  0
 15 21  1  0
 15 16  1  0
 15 33  1  1
 16 17  1  0
 16 34  1  0
 16 35  1  0
 17 18  1  0
 17 19  1  0
 17 36  1  6
 18 37  1  0
 18 38  1  0
 19 20  1  0
 19 39  1  0
 19 40  1  0
 20 21  1  0
 20 41  1  1
 21 42  1  0
 21 43  1  0
M  END
>  <i_m_ct_stereo_status>  (111) 
1

>  <s_m_source_file>  (111) 
/var/tmp/pbs.5076255.sched01/tmp9vbryffn/46pprzbbw9.sdf

>  <i_m_source_file_index>  (111) 
3

>  <i_lp_mmshare_version>  (111) 
48012

>  <i_f3d_flags>  (111) 
0

>  <s_epik_input>  (111) 
W0NIM11uMW5uW2NIXWMxW0NIMl1bTkhdQyg9TylPW0NASF0oW0NAQEhdMjMpW0NASF00W0NIMl1bQ0BASF0oW0NIMl0zKVtDSDJdW0NAQEhdKFtDSDJdMilbQ0gyXTQ=

>  <s_epik_cmdline>  (111) 
J2VwaWtfcHl0aG9uJywgJy1waHQnLCAnMi4wJywgJy1waCcsICc3LjAnLCAnLXRuJywgJzgnLCAnLW1hJywgJzIwMCcsICctaW1hZScsICc8aW5maWxlLm1hZT4nLCAnLW9tYWUnLCAnPG91dGZpbGUubWFlPic=

>  <r_lp_tautomer_probability>  (111) 
1

>  <r_epik_Ionization_Penalty>  (111) 
9.3722e-06

>  <r_epik_Ionization_Penalty_Charging>  (111) 
0

>  <r_epik_Ionization_Penalty_Neutral>  (111) 
9.3722e-06

>  <r_epik_State_Penalty>  (111) 
-0

>  <r_epik_Charging_Adjusted_Penalty>  (111) 
0

>  <i_epik_Tot_Q>  (111) 
0

>  <i_epik_Tot_abs_Q>  (111) 
0

>  <s_epik_Chemistry_Notes>  (111) 
This compound has an ester and may undergo hydrolysis at high or low pH.

>  <s_lp_Force_Field>  (111) 
OPLS3e

>  <r_lp_Energy>  (111) 
2.38391

>  <b_lp_Chiralities_Consistent>  (111) 
1

>  <s_lp_Variant>  (111) 
30:0-1

>  <s_i_glide_gridfile>  (111) 
pfpi4k_grid

>  <i_i_glide_lignum>  (111) 
3

>  <i_i_glide_rotatable_bonds>  (111) 
5

>  <r_i_docking_score>  (111) 
-3.25485

>  <r_i_glide_ligand_efficiency>  (111) 
-0.154993

>  <r_i_glide_ligand_efficiency_sa>  (111) 
-0.427613

>  <r_i_glide_ligand_efficiency_ln>  (111) 
-0.804755

>  <r_i_glide_gscore>  (111) 
-3.25485

>  <r_i_glide_lipo>  (111) 
-0.452074

>  <r_i_glide_hbond>  (111) 
-0.138325

>  <r_i_glide_metal>  (111) 
-0

>  <r_i_glide_rewards>  (111) 
-1.42936

>  <r_i_glide_evdw>  (111) 
-23.8947

>  <r_i_glide_ecoul>  (111) 
-4.86984

>  <r_i_glide_erotb>  (111) 
0.864613

>  <r_i_glide_esite>  (111) 
-0.174495

>  <r_i_glide_emodel>  (111) 
-35.1161

>  <r_i_glide_energy>  (111) 
-28.7645

>  <r_i_glide_einternal>  (111) 
1.05848

>  <r_i_glide_intrahb_reward>  (111) 
-0

>  <i_i_glide_confnum>  (111) 
1

>  <i_i_glide_posenum>  (111) 
1

>  <r_i_glide_eff_state_penalty>  (111) 
0

>  <ligand_id>  (111) 
30

>  <original_smiles>  (111) 
Cn1nncc1CNC(=O)OC1C2CC3CC(C2)CC1C3

>  <smiles>  (111) 
[H]c1nnn(C([H])([H])[H])c1C([H])([H])N([H])C(=O)OC1([H])C2([H])C([H])([H])C3([H])C([H])([H])C([H])(C2([H])[H])C([H])([H])C1([H])C3([H])[H]

$$$$
30:0:1
     RDKit          3D

 43 46  0  0  1  0  0  0  0  0999 V2000
   -1.4423    2.0816    2.8132 C   0  0  0  0  0  0  0  0  0  0  0  0
   -0.7431    0.9338    3.3551 N   0  0  0  0  0  0  0  0  0  0  0  0
   -1.3558    0.1565    4.2801 N   0  0  0  0  0  0  0  0  0  0  0  0
   -0.5433   -0.8198    4.5706 N   0  0  0  0  0  0  0  0  0  0  0  0
    0.6191   -0.6703    3.8226 C   0  0  0  0  0  0  0  0  0  0  0  0
    0.5093    0.4505    3.0427 C   0  0  0  0  0  0  0  0  0  0  0  0
    1.4387    1.0739    2.0399 C   0  0  0  0  0  0  0  0  0  0  0  0
    2.2135    0.0849    1.3328 N   0  0  0  0  0  0  0  0  0  0  0  0
    3.3970   -0.4707    1.8065 C   0  0  0  0  0  0  0  0  0  0  0  0
    3.9639   -0.1760    2.8564 O   0  0  0  0  0  0  0  0  0  0  0  0
    3.8469   -1.4444    0.9773 O   0  0  0  0  0  0  0  0  0  0  0  0
    3.4478   -1.5672   -0.3924 C   0  0  2  0  0  0  0  0  0  0  0  0
    2.9891   -3.0030   -0.7195 C   0  0  2  0  0  0  0  0  0  0  0  0
    4.1504   -3.9941   -0.4996 C   0  0  0  0  0  0  0  0  0  0  0  0
    5.3399   -3.5833   -1.3989 C   0  0  1  0  0  0  0  0  0  0  0  0
    4.9114   -3.6235   -2.8827 C   0  0  0  0  0  0  0  0  0  0  0  0
    3.7350   -2.6463   -3.1056 C   0  0  1  0  0  0  0  0  0  0  0  0
    2.5447   -3.0313   -2.1996 C   0  0  0  0  0  0  0  0  0  0  0  0
    4.1952   -1.2161   -2.7548 C   0  0  0  0  0  0  0  0  0  0  0  0
    4.6413   -1.1802   -1.2781 C   0  0  2  0  0  0  0  0  0  0  0  0
    5.8083   -2.1577   -1.0467 C   0  0  0  0  0  0  0  0  0  0  0  0
   -0.7366    2.7537    2.3232 H   0  0  0  0  0  0  0  0  0  0  0  0
   -1.9325    2.6272    3.6226 H   0  0  0  0  0  0  0  0  0  0  0  0
   -2.1856    1.7480    2.0815 H   0  0  0  0  0  0  0  0  0  0  0  0
    1.4316   -1.3686    3.8868 H   0  0  0  0  0  0  0  0  0  0  0  0
    0.8581    1.5945    1.2821 H   0  0  0  0  0  0  0  0  0  0  0  0
    2.0799    1.8176    2.5160 H   0  0  0  0  0  0  0  0  0  0  0  0
    1.7874   -0.3436    0.5044 H   0  0  0  0  0  0  0  0  0  0  0  0
    2.6374   -0.8938   -0.6575 H   0  0  0  0  0  0  0  0  0  0  0  0
    2.1485   -3.2702   -0.0804 H   0  0  0  0  0  0  0  0  0  0  0  0
    4.4509   -3.9925    0.5490 H   0  0  0  0  0  0  0  0  0  0  0  0
    3.8271   -5.0125   -0.7211 H   0  0  0  0  0  0  0  0  0  0  0  0
    6.1720   -4.2573   -1.2287 H   0  0  0  0  0  0  0  0  0  0  0  0
    5.7521   -3.3486   -3.5208 H   0  0  0  0  0  0  0  0  0  0  0  0
    4.6218   -4.6350   -3.1652 H   0  0  0  0  0  0  0  0  0  0  0  0
    3.4179   -2.6801   -4.1478 H   0  0  0  0  0  0  0  0  0  0  0  0
    2.1382   -4.0028   -2.4700 H   0  0  0  0  0  0  0  0  0  0  0  0
    1.7362   -2.3203   -2.3549 H   0  0  0  0  0  0  0  0  0  0  0  0
    5.0159   -0.9107   -3.3998 H   0  0  0  0  0  0  0  0  0  0  0  0
    3.3858   -0.5030   -2.9223 H   0  0  0  0  0  0  0  0  0  0  0  0
    4.9513   -0.1783   -1.0075 H   0  0  0  0  0  0  0  0  0  0  0  0
    6.1399   -2.1129   -0.0073 H   0  0  0  0  0  0  0  0  0  0  0  0
    6.6626   -1.8717   -1.6589 H   0  0  0  0  0  0  0  0  0  0  0  0
  1  2  1  0
  1 22  1  0
  1 23  1  0
  1 24  1  0
  2  6  1  0
  2  3  1  0
  3  4  2  0
  4  5  1  0
  5  6  2  0
  5 25  1  0
  6  7  1  0
  7  8  1  0
  7 26  1  0
  7 27  1  0
  8  9  1  0
  8 28  1  0
  9 10  2  0
  9 11  1  0
 11 12  1  0
 12 20  1  0
 12 13  1  0
 12 29  1  1
 13 18  1  0
 13 14  1  0
 13 30  1  1
 14 15  1  0
 14 31  1  0
 14 32  1  0
 15 21  1  0
 15 16  1  0
 15 33  1  6
 16 17  1  0
 16 34  1  0
 16 35  1  0
 17 18  1  0
 17 19  1  0
 17 36  1  6
 18 37  1  0
 18 38  1  0
 19 20  1  0
 19 39  1  0
 19 40  1  0
 20 21  1  0
 20 41  1  1
 21 42  1  0
 21 43  1  0
M  END
>  <i_m_ct_stereo_status>  (112) 
1

>  <s_m_source_file>  (112) 
/var/tmp/pbs.5076255.sched01/tmp9vbryffn/46pprzbbw9.sdf

>  <i_m_source_file_index>  (112) 
3

>  <i_lp_mmshare_version>  (112) 
48012

>  <i_f3d_flags>  (112) 
0

>  <s_epik_input>  (112) 
W0NIM11uMW5uW2NIXWMxW0NIMl1bTkhdQyg9TylPW0NASF0oW0NAQEhdMjMpW0NASF00W0NIMl1bQ0BASF0oW0NIMl0zKVtDSDJdW0NAQEhdKFtDSDJdMilbQ0gyXTQ=

>  <s_epik_cmdline>  (112) 
J2VwaWtfcHl0aG9uJywgJy1waHQnLCAnMi4wJywgJy1waCcsICc3LjAnLCAnLXRuJywgJzgnLCAnLW1hJywgJzIwMCcsICctaW1hZScsICc8aW5maWxlLm1hZT4nLCAnLW9tYWUnLCAnPG91dGZpbGUubWFlPic=

>  <r_lp_tautomer_probability>  (112) 
1

>  <r_epik_Ionization_Penalty>  (112) 
9.3722e-06

>  <r_epik_Ionization_Penalty_Charging>  (112) 
0

>  <r_epik_Ionization_Penalty_Neutral>  (112) 
9.3722e-06

>  <r_epik_State_Penalty>  (112) 
-0

>  <r_epik_Charging_Adjusted_Penalty>  (112) 
0

>  <i_epik_Tot_Q>  (112) 
0

>  <i_epik_Tot_abs_Q>  (112) 
0

>  <s_epik_Chemistry_Notes>  (112) 
This compound has an ester and may undergo hydrolysis at high or low pH.

>  <s_lp_Force_Field>  (112) 
OPLS3e

>  <r_lp_Energy>  (112) 
2.38391

>  <b_lp_Chiralities_Consistent>  (112) 
1

>  <s_lp_Variant>  (112) 
30:0-1

>  <s_i_glide_gridfile>  (112) 
pfpi4k_grid

>  <i_i_glide_lignum>  (112) 
3

>  <i_i_glide_rotatable_bonds>  (112) 
5

>  <r_i_docking_score>  (112) 
-3.04662

>  <r_i_glide_ligand_efficiency>  (112) 
-0.145077

>  <r_i_glide_ligand_efficiency_sa>  (112) 
-0.400257

>  <r_i_glide_ligand_efficiency_ln>  (112) 
-0.75327

>  <r_i_glide_gscore>  (112) 
-3.04662

>  <r_i_glide_lipo>  (112) 
-0.256924

>  <r_i_glide_hbond>  (112) 
-0.16

>  <r_i_glide_metal>  (112) 
-0

>  <r_i_glide_rewards>  (112) 
-1.42936

>  <r_i_glide_evdw>  (112) 
-25.1203

>  <r_i_glide_ecoul>  (112) 
-4.25865

>  <r_i_glide_erotb>  (112) 
0.864613

>  <r_i_glide_esite>  (112) 
-0.17014

>  <r_i_glide_emodel>  (112) 
-33.6877

>  <r_i_glide_energy>  (112) 
-29.3789

>  <r_i_glide_einternal>  (112) 
3.61723

>  <r_i_glide_intrahb_reward>  (112) 
-0

>  <i_i_glide_confnum>  (112) 
2

>  <i_i_glide_posenum>  (112) 
2

>  <r_i_glide_eff_state_penalty>  (112) 
0

>  <ligand_id>  (112) 
30

>  <original_smiles>  (112) 
Cn1nncc1CNC(=O)OC1C2CC3CC(C2)CC1C3

>  <smiles>  (112) 
[H]c1nnn(C([H])([H])[H])c1C([H])([H])N([H])C(=O)OC1([H])C2([H])C([H])([H])C3([H])C([H])([H])C([H])(C2([H])[H])C([H])([H])C1([H])C3([H])[H]

$$$$
30:0:2
     RDKit          3D

 43 46  0  0  1  0  0  0  0  0999 V2000
   -2.0456    2.3170    4.1073 C   0  0  0  0  0  0  0  0  0  0  0  0
   -1.3483    1.0557    4.2572 N   0  0  0  0  0  0  0  0  0  0  0  0
   -1.7896    0.1675    5.1809 N   0  0  0  0  0  0  0  0  0  0  0  0
   -1.0303   -0.8785    5.1086 N   0  0  0  0  0  0  0  0  0  0  0  0
   -0.0621   -0.6594    4.1297 C   0  0  0  0  0  0  0  0  0  0  0  0
   -0.2583    0.5713    3.5655 C   0  0  0  0  0  0  0  0  0  0  0  0
    0.4571    1.3034    2.4648 C   0  0  0  0  0  0  0  0  0  0  0  0
    1.3240    0.4247    1.6881 N   0  0  0  0  0  0  0  0  0  0  0  0
    2.5477   -0.0225    2.1473 C   0  0  0  0  0  0  0  0  0  0  0  0
    3.1005    0.3006    3.1990 O   0  0  0  0  0  0  0  0  0  0  0  0
    3.0239   -0.9070    1.2671 O   0  0  0  0  0  0  0  0  0  0  0  0
    4.3034   -1.5113    1.4287 C   0  0  2  0  0  0  0  0  0  0  0  0
    5.3009   -0.8304    0.4665 C   0  0  2  0  0  0  0  0  0  0  0  0
    4.8511   -1.0419   -0.9992 C   0  0  0  0  0  0  0  0  0  0  0  0
    4.7789   -2.5487   -1.3093 C   0  0  1  0  0  0  0  0  0  0  0  0
    6.1717   -3.1773   -1.1158 C   0  0  0  0  0  0  0  0  0  0  0  0
    6.6304   -2.9662    0.3452 C   0  0  1  0  0  0  0  0  0  0  0  0
    6.6925   -1.4599    0.6799 C   0  0  0  0  0  0  0  0  0  0  0  0
    5.6259   -3.6494    1.2965 C   0  0  0  0  0  0  0  0  0  0  0  0
    4.2243   -3.0229    1.1054 C   0  0  2  0  0  0  0  0  0  0  0  0
    3.7700   -3.2291   -0.3584 C   0  0  0  0  0  0  0  0  0  0  0  0
   -1.4172    3.0271    3.5659 H   0  0  0  0  0  0  0  0  0  0  0  0
   -2.2820    2.7273    5.0923 H   0  0  0  0  0  0  0  0  0  0  0  0
   -2.9702    2.1534    3.5479 H   0  0  0  0  0  0  0  0  0  0  0  0
    0.6858   -1.4007    3.9012 H   0  0  0  0  0  0  0  0  0  0  0  0
   -0.2675    1.7574    1.7904 H   0  0  0  0  0  0  0  0  0  0  0  0
    1.0386    2.1258    2.8848 H   0  0  0  0  0  0  0  0  0  0  0  0
    1.0214    0.0713    0.7779 H   0  0  0  0  0  0  0  0  0  0  0  0
    4.6605   -1.4081    2.4539 H   0  0  0  0  0  0  0  0  0  0  0  0
    5.3463    0.2363    0.6889 H   0  0  0  0  0  0  0  0  0  0  0  0
    3.8708   -0.5996   -1.1689 H   0  0  0  0  0  0  0  0  0  0  0  0
    5.5326   -0.5413   -1.6846 H   0  0  0  0  0  0  0  0  0  0  0  0
    4.4544   -2.6898   -2.3402 H   0  0  0  0  0  0  0  0  0  0  0  0
    6.1196   -4.2420   -1.3374 H   0  0  0  0  0  0  0  0  0  0  0  0
    6.8872   -2.7443   -1.8174 H   0  0  0  0  0  0  0  0  0  0  0  0
    7.6187   -3.4065    0.4764 H   0  0  0  0  0  0  0  0  0  0  0  0
    7.4445   -0.9606    0.0771 H   0  0  0  0  0  0  0  0  0  0  0  0
    7.0087   -1.3157    1.7122 H   0  0  0  0  0  0  0  0  0  0  0  0
    5.5926   -4.7198    1.0962 H   0  0  0  0  0  0  0  0  0  0  0  0
    5.9577   -3.5406    2.3294 H   0  0  0  0  0  0  0  0  0  0  0  0
    3.5193   -3.5073    1.7831 H   0  0  0  0  0  0  0  0  0  0  0  0
    2.7721   -2.8148   -0.5101 H   0  0  0  0  0  0  0  0  0  0  0  0
    3.6936   -4.2934   -0.5843 H   0  0  0  0  0  0  0  0  0  0  0  0
  1  2  1  0
  1 22  1  0
  1 23  1  0
  1 24  1  0
  2  6  1  0
  2  3  1  0
  3  4  2  0
  4  5  1  0
  5  6  2  0
  5 25  1  0
  6  7  1  0
  7  8  1  0
  7 26  1  0
  7 27  1  0
  8  9  1  0
  8 28  1  0
  9 10  2  0
  9 11  1  0
 11 12  1  0
 12 20  1  0
 12 13  1  0
 12 29  1  1
 13 18  1  0
 13 14  1  0
 13 30  1  1
 14 15  1  0
 14 31  1  0
 14 32  1  0
 15 21  1  0
 15 16  1  0
 15 33  1  6
 16 17  1  0
 16 34  1  0
 16 35  1  0
 17 18  1  0
 17 19  1  0
 17 36  1  6
 18 37  1  0
 18 38  1  0
 19 20  1  0
 19 39  1  0
 19 40  1  0
 20 21  1  0
 20 41  1  1
 21 42  1  0
 21 43  1  0
M  END
>  <i_m_ct_stereo_status>  (113) 
1

>  <s_m_source_file>  (113) 
/var/tmp/pbs.5076255.sched01/tmp9vbryffn/46pprzbbw9.sdf

>  <i_m_source_file_index>  (113) 
3

>  <i_lp_mmshare_version>  (113) 
48012

>  <i_f3d_flags>  (113) 
0

>  <s_epik_input>  (113) 
W0NIM11uMW5uW2NIXWMxW0NIMl1bTkhdQyg9TylPW0NASF0oW0NAQEhdMjMpW0NASF00W0NIMl1bQ0BASF0oW0NIMl0zKVtDSDJdW0NAQEhdKFtDSDJdMilbQ0gyXTQ=

>  <s_epik_cmdline>  (113) 
J2VwaWtfcHl0aG9uJywgJy1waHQnLCAnMi4wJywgJy1waCcsICc3LjAnLCAnLXRuJywgJzgnLCAnLW1hJywgJzIwMCcsICctaW1hZScsICc8aW5maWxlLm1hZT4nLCAnLW9tYWUnLCAnPG91dGZpbGUubWFlPic=

>  <r_lp_tautomer_probability>  (113) 
1

>  <r_epik_Ionization_Penalty>  (113) 
9.3722e-06

>  <r_epik_Ionization_Penalty_Charging>  (113) 
0

>  <r_epik_Ionization_Penalty_Neutral>  (113) 
9.3722e-06

>  <r_epik_State_Penalty>  (113) 
-0

>  <r_epik_Charging_Adjusted_Penalty>  (113) 
0

>  <i_epik_Tot_Q>  (113) 
0

>  <i_epik_Tot_abs_Q>  (113) 
0

>  <s_epik_Chemistry_Notes>  (113) 
This compound has an ester and may undergo hydrolysis at high or low pH.

>  <s_lp_Force_Field>  (113) 
OPLS3e

>  <r_lp_Energy>  (113) 
2.38391

>  <b_lp_Chiralities_Consistent>  (113) 
1

>  <s_lp_Variant>  (113) 
30:0-1

>  <s_i_glide_gridfile>  (113) 
pfpi4k_grid

>  <i_i_glide_lignum>  (113) 
3

>  <i_i_glide_rotatable_bonds>  (113) 
5

>  <r_i_docking_score>  (113) 
-3.03536

>  <r_i_glide_ligand_efficiency>  (113) 
-0.144541

>  <r_i_glide_ligand_efficiency_sa>  (113) 
-0.398777

>  <r_i_glide_ligand_efficiency_ln>  (113) 
-0.750486

>  <r_i_glide_gscore>  (113) 
-3.03536

>  <r_i_glide_lipo>  (113) 
-0.411431

>  <r_i_glide_hbond>  (113) 
-0.16

>  <r_i_glide_metal>  (113) 
-0

>  <r_i_glide_rewards>  (113) 
-1.42936

>  <r_i_glide_evdw>  (113) 
-24.5452

>  <r_i_glide_ecoul>  (113) 
-3.05889

>  <r_i_glide_erotb>  (113) 
0.864613

>  <r_i_glide_esite>  (113) 
-0.213085

>  <r_i_glide_emodel>  (113) 
-33.7191

>  <r_i_glide_energy>  (113) 
-27.6041

>  <r_i_glide_einternal>  (113) 
0.43807

>  <r_i_glide_intrahb_reward>  (113) 
-0

>  <i_i_glide_confnum>  (113) 
1

>  <i_i_glide_posenum>  (113) 
21

>  <r_i_glide_eff_state_penalty>  (113) 
0

>  <ligand_id>  (113) 
30

>  <original_smiles>  (113) 
Cn1nncc1CNC(=O)OC1C2CC3CC(C2)CC1C3

>  <smiles>  (113) 
[H]c1nnn(C([H])([H])[H])c1C([H])([H])N([H])C(=O)OC1([H])C2([H])C([H])([H])C3([H])C([H])([H])C([H])(C2([H])[H])C([H])([H])C1([H])C3([H])[H]

$$$$
31:0:0
     RDKit          3D

 54 58  0  0  1  0  0  0  0  0999 V2000
    3.4589   -0.3342   -3.8961 C   0  0  0  0  0  0  0  0  0  0  0  0
    3.9330   -1.2811   -3.0514 C   0  0  0  0  0  0  0  0  0  0  0  0
    4.6942   -0.9412   -1.7892 C   0  0  0  0  0  0  0  0  0  0  0  0
    4.6784   -2.1130   -0.7733 C   0  0  2  0  0  0  0  0  0  0  0  0
    5.4445   -3.2903   -1.4427 C   0  0  0  0  0  0  0  0  0  0  0  0
    5.0258   -3.5334   -2.9099 C   0  0  0  0  0  0  0  0  0  0  0  0
    3.7596   -2.7548   -3.3230 C   0  0  1  0  0  0  0  0  0  0  0  0
    2.4746   -3.2868   -2.6543 C   0  0  0  0  0  0  0  0  0  0  0  0
    2.5653   -3.5870   -1.1401 C   0  0  0  0  0  0  0  0  0  0  0  0
    3.2256   -2.4737   -0.3201 C   0  0  1  0  0  0  0  0  0  0  0  0
    3.1705   -2.5828    1.2553 C   0  0  2  0  0  0  0  0  0  0  0  0
    3.4816   -4.0244    1.7287 C   0  0  0  0  0  0  0  0  0  0  0  0
    1.8155   -2.2294    1.8689 C   0  0  0  0  0  0  0  0  0  0  0  0
    1.3855   -1.0156    2.2370 C   0  0  0  0  0  0  0  0  0  0  0  0
    2.2420    0.1583    2.1155 C   0  0  0  0  0  0  0  0  0  0  0  0
    1.9722    1.2728    2.5979 O   0  0  0  0  0  0  0  0  0  0  0  0
    3.5647   -0.0458    1.4052 C   0  0  0  0  0  0  0  0  0  0  0  0
    4.1859   -1.4863    1.6139 C   0  0  2  0  0  0  0  0  0  0  0  0
    5.2858   -1.8033    0.5973 C   0  0  2  0  0  0  0  0  0  0  0  0
    6.3492   -0.7913    0.8812 C   0  0  0  0  0  0  0  0  0  0  0  0
    6.1868   -0.6577    2.4202 C   0  0  0  0  0  0  0  0  0  0  0  0
    5.0060   -1.4727    2.9270 C   0  0  1  0  0  0  0  0  0  0  0  0
    4.4345   -0.8574    4.2136 C   0  0  0  0  0  0  0  0  0  0  0  0
    5.4255   -2.7613    3.3114 O   0  0  0  0  0  0  0  0  0  0  0  0
    2.9193   -0.6025   -4.7891 H   0  0  0  0  0  0  0  0  0  0  0  0
    3.5957    0.7117   -3.6809 H   0  0  0  0  0  0  0  0  0  0  0  0
    5.7222   -0.7078   -2.0684 H   0  0  0  0  0  0  0  0  0  0  0  0
    4.2783   -0.0296   -1.3744 H   0  0  0  0  0  0  0  0  0  0  0  0
    6.5212   -3.0864   -1.4277 H   0  0  0  0  0  0  0  0  0  0  0  0
    5.3128   -4.2106   -0.8677 H   0  0  0  0  0  0  0  0  0  0  0  0
    5.8516   -3.2048   -3.5402 H   0  0  0  0  0  0  0  0  0  0  0  0
    4.9044   -4.6002   -3.1000 H   0  0  0  0  0  0  0  0  0  0  0  0
    3.6220   -2.8732   -4.3992 H   0  0  0  0  0  0  0  0  0  0  0  0
    1.6469   -2.6052   -2.8473 H   0  0  0  0  0  0  0  0  0  0  0  0
    2.1965   -4.2042   -3.1715 H   0  0  0  0  0  0  0  0  0  0  0  0
    1.5550   -3.7374   -0.7717 H   0  0  0  0  0  0  0  0  0  0  0  0
    3.0764   -4.5367   -0.9782 H   0  0  0  0  0  0  0  0  0  0  0  0
    2.6817   -1.5818   -0.5588 H   0  0  0  0  0  0  0  0  0  0  0  0
    4.4562   -4.3929    1.4076 H   0  0  0  0  0  0  0  0  0  0  0  0
    2.7413   -4.7207    1.3487 H   0  0  0  0  0  0  0  0  0  0  0  0
    3.4232   -4.1114    2.8126 H   0  0  0  0  0  0  0  0  0  0  0  0
    1.1968   -3.0684    2.1169 H   0  0  0  0  0  0  0  0  0  0  0  0
    0.3986   -0.8730    2.6618 H   0  0  0  0  0  0  0  0  0  0  0  0
    3.3630    0.1524    0.3676 H   0  0  0  0  0  0  0  0  0  0  0  0
    4.2275    0.7468    1.7435 H   0  0  0  0  0  0  0  0  0  0  0  0
    5.7631   -2.7442    0.8874 H   0  0  0  0  0  0  0  0  0  0  0  0
    7.3334   -1.1569    0.5836 H   0  0  0  0  0  0  0  0  0  0  0  0
    6.1661    0.1673    0.3905 H   0  0  0  0  0  0  0  0  0  0  0  0
    7.0899   -0.9177    2.8653 H   0  0  0  0  0  0  0  0  0  0  0  0
    6.0524    0.4045    2.7074 H   0  0  0  0  0  0  0  0  0  0  0  0
    4.2354    0.2066    4.1184 H   0  0  0  0  0  0  0  0  0  0  0  0
    5.1591   -0.9496    5.0261 H   0  0  0  0  0  0  0  0  0  0  0  0
    3.5208   -1.3598    4.5284 H   0  0  0  0  0  0  0  0  0  0  0  0
    4.6917   -3.2541    3.6133 H   0  0  0  0  0  0  0  0  0  0  0  0
  1  2  2  0
  1 25  1  0
  1 26  1  0
  2  7  1  0
  2  3  1  0
  4  3  1  6
  3 27  1  0
  3 28  1  0
  4 10  1  0
  4 19  1  0
  4  5  1  0
  5  6  1  0
  5 29  1  0
  5 30  1  0
  6  7  1  0
  6 31  1  0
  6 32  1  0
  7  8  1  0
  7 33  1  6
  8  9  1  0
  8 34  1  0
  8 35  1  0
  9 10  1  0
  9 36  1  0
  9 37  1  0
 10 11  1  0
 10 38  1  1
 11 18  1  0
 11 12  1  6
 11 13  1  0
 12 39  1  0
 12 40  1  0
 12 41  1  0
 13 14  2  0
 13 42  1  0
 14 15  1  0
 14 43  1  0
 15 16  2  0
 15 17  1  0
 18 17  1  6
 17 44  1  0
 17 45  1  0
 18 22  1  0
 18 19  1  0
 19 20  1  0
 19 46  1  1
 20 21  1  0
 20 47  1  0
 20 48  1  0
 21 22  1  0
 21 49  1  0
 21 50  1  0
 22 23  1  0
 22 24  1  1
 23 51  1  0
 23 52  1  0
 23 53  1  0
 24 54  1  0
M  END
>  <i_m_ct_stereo_status>  (114) 
1

>  <s_m_source_file>  (114) 
/var/tmp/pbs.5076255.sched01/tmp9vbryffn/46pprzbbw9.sdf

>  <i_m_source_file_index>  (114) 
4

>  <i_lp_mmshare_version>  (114) 
48012

>  <i_f3d_flags>  (114) 
0

>  <s_epik_input>  (114) 
W0NIMl09QyhbQ0gyXTEpW0NAQEhdKFtDSDJdW0NIMl0yKVtDSDJdW0NIMl1bQ0BIXShbQ0BdMTIzKVtDQEBdNChbQ0gzXSlbQ0BdNShbQ0gyXUMoPU8pW0NIXT1bQ0hdNClbQ0BASF0zW0NIMl1bQ0gyXVtDQF01KFtDSDNdKVtPSF0=

>  <s_epik_cmdline>  (114) 
J2VwaWtfcHl0aG9uJywgJy1waHQnLCAnMi4wJywgJy1waCcsICc3LjAnLCAnLXRuJywgJzgnLCAnLW1hJywgJzIwMCcsICctaW1hZScsICc8aW5maWxlLm1hZT4nLCAnLW9tYWUnLCAnPG91dGZpbGUubWFlPic=

>  <r_lp_tautomer_probability>  (114) 
1

>  <r_epik_Ionization_Penalty>  (114) 
1.94771e-07

>  <r_epik_Ionization_Penalty_Charging>  (114) 
0

>  <r_epik_Ionization_Penalty_Neutral>  (114) 
1.94771e-07

>  <r_epik_State_Penalty>  (114) 
-0

>  <r_epik_Charging_Adjusted_Penalty>  (114) 
0

>  <i_epik_Tot_Q>  (114) 
0

>  <i_epik_Tot_abs_Q>  (114) 
0

>  <s_lp_Force_Field>  (114) 
OPLS3e

>  <r_lp_Energy>  (114) 
70.4114

>  <b_lp_Chiralities_Consistent>  (114) 
1

>  <s_lp_Variant>  (114) 
31:0-1

>  <s_i_glide_gridfile>  (114) 
pfpi4k_grid

>  <i_i_glide_lignum>  (114) 
4

>  <i_i_glide_rotatable_bonds>  (114) 
1

>  <r_i_docking_score>  (114) 
-3.54568

>  <r_i_glide_ligand_efficiency>  (114) 
-0.147737

>  <r_i_glide_ligand_efficiency_sa>  (114) 
-0.426147

>  <r_i_glide_ligand_efficiency_ln>  (114) 
-0.848645

>  <r_i_glide_gscore>  (114) 
-3.54568

>  <r_i_glide_lipo>  (114) 
-1.07976

>  <r_i_glide_hbond>  (114) 
0

>  <r_i_glide_metal>  (114) 
-0

>  <r_i_glide_rewards>  (114) 
-1.18314

>  <r_i_glide_evdw>  (114) 
-20.4125

>  <r_i_glide_ecoul>  (114) 
-1.55018

>  <r_i_glide_erotb>  (114) 
0

>  <r_i_glide_esite>  (114) 
-0.0296265

>  <r_i_glide_emodel>  (114) 
-21.1543

>  <r_i_glide_energy>  (114) 
-21.9627

>  <r_i_glide_einternal>  (114) 
0.00250082

>  <r_i_glide_intrahb_reward>  (114) 
-0

>  <i_i_glide_confnum>  (114) 
1

>  <i_i_glide_posenum>  (114) 
13

>  <r_i_glide_eff_state_penalty>  (114) 
0

>  <ligand_id>  (114) 
31

>  <original_smiles>  (114) 
C=C1CC23CCC1CCC2C1(C)C=CC(=O)CC12C3CCC2(C)O

>  <smiles>  (114) 
[H]OC1(C([H])([H])[H])C([H])([H])C([H])([H])C2([H])C34C([H])([H])C(=C([H])[H])C([H])(C([H])([H])C([H])([H])C3([H])C3(C([H])([H])[H])C([H])=C([H])C(=O)C([H])([H])C213)C([H])([H])C4([H])[H]

$$$$
31:0:1
     RDKit          3D

 54 58  0  0  1  0  0  0  0  0999 V2000
    3.5410   -0.1954   -3.8314 C   0  0  0  0  0  0  0  0  0  0  0  0
    4.1020   -1.0869   -3.0091 C   0  0  0  0  0  0  0  0  0  0  0  0
    4.7580   -0.7172   -1.6982 C   0  0  0  0  0  0  0  0  0  0  0  0
    4.8491   -1.9286   -0.7409 C   0  0  2  0  0  0  0  0  0  0  0  0
    5.8116   -2.9516   -1.4184 C   0  0  0  0  0  0  0  0  0  0  0  0
    5.5018   -3.1769   -2.9117 C   0  0  0  0  0  0  0  0  0  0  0  0
    4.1628   -2.5619   -3.3559 C   0  0  1  0  0  0  0  0  0  0  0  0
    2.9375   -3.2977   -2.7794 C   0  0  0  0  0  0  0  0  0  0  0  0
    3.0073   -3.6592   -1.2647 C   0  0  0  0  0  0  0  0  0  0  0  0
    3.4489   -2.4952   -0.3741 C   0  0  1  0  0  0  0  0  0  0  0  0
    3.3952   -2.7204    1.1806 C   0  0  2  0  0  0  0  0  0  0  0  0
    3.9178   -4.1170    1.6021 C   0  0  0  0  0  0  0  0  0  0  0  0
    2.0051   -2.6195    1.7507 C   0  0  0  0  0  0  0  0  0  0  0  0
    1.4156   -1.4897    2.2123 C   0  0  0  0  0  0  0  0  0  0  0  0
    2.0699   -0.1864    2.1665 C   0  0  0  0  0  0  0  0  0  0  0  0
    1.6050    0.8329    2.6651 O   0  0  0  0  0  0  0  0  0  0  0  0
    3.4206   -0.1543    1.4809 C   0  0  0  0  0  0  0  0  0  0  0  0
    4.2128   -1.5058    1.6553 C   0  0  2  0  0  0  0  0  0  0  0  0
    5.3492   -1.6485    0.6677 C   0  0  2  0  0  0  0  0  0  0  0  0
    6.2110   -0.5237    1.0227 C   0  0  0  0  0  0  0  0  0  0  0  0
    6.1476   -0.4914    2.5734 C   0  0  0  0  0  0  0  0  0  0  0  0
    4.9828   -1.4437    3.0040 C   0  0  1  0  0  0  0  0  0  0  0  0
    4.2928   -0.9652    4.2909 C   0  0  0  0  0  0  0  0  0  0  0  0
    5.5209   -2.6825    3.3639 O   0  0  0  0  0  0  0  0  0  0  0  0
    3.0736   -0.4877   -4.7639 H   0  0  0  0  0  0  0  0  0  0  0  0
    3.5216    0.8516   -3.5708 H   0  0  0  0  0  0  0  0  0  0  0  0
    5.7563   -0.3515   -1.9228 H   0  0  0  0  0  0  0  0  0  0  0  0
    4.2294    0.1263   -1.2596 H   0  0  0  0  0  0  0  0  0  0  0  0
    6.8369   -2.5810   -1.3495 H   0  0  0  0  0  0  0  0  0  0  0  0
    5.8196   -3.9062   -0.8878 H   0  0  0  0  0  0  0  0  0  0  0  0
    6.2869   -2.7070   -3.4921 H   0  0  0  0  0  0  0  0  0  0  0  0
    5.5358   -4.2436   -3.1508 H   0  0  0  0  0  0  0  0  0  0  0  0
    4.0946   -2.6316   -4.4378 H   0  0  0  0  0  0  0  0  0  0  0  0
    2.0357   -2.6999   -2.9627 H   0  0  0  0  0  0  0  0  0  0  0  0
    2.8002   -4.1899   -3.3746 H   0  0  0  0  0  0  0  0  0  0  0  0
    2.0202   -3.9939   -0.9493 H   0  0  0  0  0  0  0  0  0  0  0  0
    3.6747   -4.5107   -1.1191 H   0  0  0  0  0  0  0  0  0  0  0  0
    2.7345   -1.7095   -0.5903 H   0  0  0  0  0  0  0  0  0  0  0  0
    4.9470   -4.3279    1.3122 H   0  0  0  0  0  0  0  0  0  0  0  0
    3.2959   -4.8939    1.1692 H   0  0  0  0  0  0  0  0  0  0  0  0
    3.8361   -4.2546    2.6837 H   0  0  0  0  0  0  0  0  0  0  0  0
    1.5033   -3.5668    1.8018 H   0  0  0  0  0  0  0  0  0  0  0  0
    0.4103   -1.5252    2.5798 H   0  0  0  0  0  0  0  0  0  0  0  0
    3.2150    0.0773    0.4444 H   0  0  0  0  0  0  0  0  0  0  0  0
    3.9599    0.7053    1.8833 H   0  0  0  0  0  0  0  0  0  0  0  0
    5.9436   -2.5236    0.9353 H   0  0  0  0  0  0  0  0  0  0  0  0
    7.2300   -0.7547    0.7014 H   0  0  0  0  0  0  0  0  0  0  0  0
    5.8875    0.4102    0.5644 H   0  0  0  0  0  0  0  0  0  0  0  0
    7.1083   -0.6617    2.9913 H   0  0  0  0  0  0  0  0  0  0  0  0
    5.8748    0.5207    2.8874 H   0  0  0  0  0  0  0  0  0  0  0  0
    3.9347    0.0601    4.2334 H   0  0  0  0  0  0  0  0  0  0  0  0
    4.9830   -0.9944    5.1365 H   0  0  0  0  0  0  0  0  0  0  0  0
    3.4575   -1.6155    4.5342 H   0  0  0  0  0  0  0  0  0  0  0  0
    6.1101   -2.5317    4.0871 H   0  0  0  0  0  0  0  0  0  0  0  0
  1  2  2  0
  1 25  1  0
  1 26  1  0
  2  7  1  0
  2  3  1  0
  4  3  1  6
  3 27  1  0
  3 28  1  0
  4 10  1  0
  4 19  1  0
  4  5  1  0
  5  6  1  0
  5 29  1  0
  5 30  1  0
  6  7  1  0
  6 31  1  0
  6 32  1  0
  7  8  1  0
  7 33  1  6
  8  9  1  0
  8 34  1  0
  8 35  1  0
  9 10  1  0
  9 36  1  0
  9 37  1  0
 10 11  1  0
 10 38  1  1
 11 18  1  0
 11 12  1  6
 11 13  1  0
 12 39  1  0
 12 40  1  0
 12 41  1  0
 13 14  2  0
 13 42  1  0
 14 15  1  0
 14 43  1  0
 15 16  2  0
 15 17  1  0
 18 17  1  6
 17 44  1  0
 17 45  1  0
 18 22  1  0
 18 19  1  0
 19 20  1  0
 19 46  1  1
 20 21  1  0
 20 47  1  0
 20 48  1  0
 21 22  1  0
 21 49  1  0
 21 50  1  0
 22 23  1  0
 22 24  1  1
 23 51  1  0
 23 52  1  0
 23 53  1  0
 24 54  1  0
M  END
>  <i_m_ct_stereo_status>  (115) 
1

>  <s_m_source_file>  (115) 
/var/tmp/pbs.5076255.sched01/tmp9vbryffn/46pprzbbw9.sdf

>  <i_m_source_file_index>  (115) 
4

>  <i_lp_mmshare_version>  (115) 
48012

>  <i_f3d_flags>  (115) 
0

>  <s_epik_input>  (115) 
W0NIMl09QyhbQ0gyXTEpW0NAQEhdKFtDSDJdW0NIMl0yKVtDSDJdW0NIMl1bQ0BIXShbQ0BdMTIzKVtDQEBdNChbQ0gzXSlbQ0BdNShbQ0gyXUMoPU8pW0NIXT1bQ0hdNClbQ0BASF0zW0NIMl1bQ0gyXVtDQF01KFtDSDNdKVtPSF0=

>  <s_epik_cmdline>  (115) 
J2VwaWtfcHl0aG9uJywgJy1waHQnLCAnMi4wJywgJy1waCcsICc3LjAnLCAnLXRuJywgJzgnLCAnLW1hJywgJzIwMCcsICctaW1hZScsICc8aW5maWxlLm1hZT4nLCAnLW9tYWUnLCAnPG91dGZpbGUubWFlPic=

>  <r_lp_tautomer_probability>  (115) 
1

>  <r_epik_Ionization_Penalty>  (115) 
1.94771e-07

>  <r_epik_Ionization_Penalty_Charging>  (115) 
0

>  <r_epik_Ionization_Penalty_Neutral>  (115) 
1.94771e-07

>  <r_epik_State_Penalty>  (115) 
-0

>  <r_epik_Charging_Adjusted_Penalty>  (115) 
0

>  <i_epik_Tot_Q>  (115) 
0

>  <i_epik_Tot_abs_Q>  (115) 
0

>  <s_lp_Force_Field>  (115) 
OPLS3e

>  <r_lp_Energy>  (115) 
70.4114

>  <b_lp_Chiralities_Consistent>  (115) 
1

>  <s_lp_Variant>  (115) 
31:0-1

>  <s_i_glide_gridfile>  (115) 
pfpi4k_grid

>  <i_i_glide_lignum>  (115) 
4

>  <i_i_glide_rotatable_bonds>  (115) 
1

>  <r_i_docking_score>  (115) 
-2.8781

>  <r_i_glide_ligand_efficiency>  (115) 
-0.119921

>  <r_i_glide_ligand_efficiency_sa>  (115) 
-0.345911

>  <r_i_glide_ligand_efficiency_ln>  (115) 
-0.688861

>  <r_i_glide_gscore>  (115) 
-2.8781

>  <r_i_glide_lipo>  (115) 
-0.941629

>  <r_i_glide_hbond>  (115) 
0

>  <r_i_glide_metal>  (115) 
-0

>  <r_i_glide_rewards>  (115) 
-1.18314

>  <r_i_glide_evdw>  (115) 
-11.1259

>  <r_i_glide_ecoul>  (115) 
-1.04618

>  <r_i_glide_erotb>  (115) 
0

>  <r_i_glide_esite>  (115) 
-0.0401029

>  <r_i_glide_emodel>  (115) 
-11.341

>  <r_i_glide_energy>  (115) 
-12.1721

>  <r_i_glide_einternal>  (115) 
0.0245228

>  <r_i_glide_intrahb_reward>  (115) 
-0

>  <i_i_glide_confnum>  (115) 
1

>  <i_i_glide_posenum>  (115) 
9

>  <r_i_glide_eff_state_penalty>  (115) 
0

>  <ligand_id>  (115) 
31

>  <original_smiles>  (115) 
C=C1CC23CCC1CCC2C1(C)C=CC(=O)CC12C3CCC2(C)O

>  <smiles>  (115) 
[H]OC1(C([H])([H])[H])C([H])([H])C([H])([H])C2([H])C34C([H])([H])C(=C([H])[H])C([H])(C([H])([H])C([H])([H])C3([H])C3(C([H])([H])[H])C([H])=C([H])C(=O)C([H])([H])C213)C([H])([H])C4([H])[H]

$$$$
31:0:2
     RDKit          3D

 54 58  0  0  1  0  0  0  0  0999 V2000
    4.1314    0.0867   -3.2408 C   0  0  0  0  0  0  0  0  0  0  0  0
    4.2611   -1.1880   -2.9498 C   0  0  0  0  0  0  0  0  0  0  0  0
    5.2190   -1.7124   -1.8718 C   0  0  0  0  0  0  0  0  0  0  0  0
    4.8074   -3.1186   -1.4029 C   0  0  2  0  0  0  0  0  0  0  0  0
    4.9951   -4.0139   -2.6610 C   0  0  0  0  0  0  0  0  0  0  0  0
    4.2679   -3.5205   -3.9220 C   0  0  0  0  0  0  0  0  0  0  0  0
    3.4483   -2.2659   -3.6667 C   0  0  1  0  0  0  0  0  0  0  0  0
    2.1783   -2.5767   -2.9055 C   0  0  0  0  0  0  0  0  0  0  0  0
    2.2112   -3.4492   -1.6364 C   0  0  0  0  0  0  0  0  0  0  0  0
    3.3987   -3.1181   -0.7136 C   0  0  1  0  0  0  0  0  0  0  0  0
    3.4691   -3.9237    0.6314 C   0  0  2  0  0  0  0  0  0  0  0  0
    3.1649   -5.4320    0.4533 C   0  0  0  0  0  0  0  0  0  0  0  0
    2.4747   -3.3901    1.6710 C   0  0  0  0  0  0  0  0  0  0  0  0
    2.6903   -2.4462    2.5870 C   0  0  0  0  0  0  0  0  0  0  0  0
    3.9928   -1.7905    2.6662 C   0  0  0  0  0  0  0  0  0  0  0  0
    4.2885   -0.9998    3.5629 O   0  0  0  0  0  0  0  0  0  0  0  0
    5.0003   -2.1045    1.5750 C   0  0  0  0  0  0  0  0  0  0  0  0
    4.9431   -3.5797    1.0467 C   0  0  2  0  0  0  0  0  0  0  0  0
    5.6516   -3.7327   -0.2925 C   0  0  2  0  0  0  0  0  0  0  0  0
    7.1201   -3.4852   -0.0547 C   0  0  0  0  0  0  0  0  0  0  0  0
    7.2650   -4.1905    1.3160 C   0  0  0  0  0  0  0  0  0  0  0  0
    5.8559   -4.5172    1.9050 C   0  0  1  0  0  0  0  0  0  0  0  0
    5.7130   -4.3812    3.4460 C   0  0  0  0  0  0  0  0  0  0  0  0
    5.7155   -5.9042    1.6852 O   0  0  0  0  0  0  0  0  0  0  0  0
    3.4091    0.4554   -3.9747 H   0  0  0  0  0  0  0  0  0  0  0  0
    4.7339    0.8333   -2.7256 H   0  0  0  0  0  0  0  0  0  0  0  0
    6.2074   -1.8005   -2.3107 H   0  0  0  0  0  0  0  0  0  0  0  0
    5.2951   -0.9782   -1.0747 H   0  0  0  0  0  0  0  0  0  0  0  0
    6.0596   -4.0662   -2.9206 H   0  0  0  0  0  0  0  0  0  0  0  0
    4.6599   -5.0491   -2.4286 H   0  0  0  0  0  0  0  0  0  0  0  0
    5.0109   -3.2910   -4.6648 H   0  0  0  0  0  0  0  0  0  0  0  0
    3.6263   -4.2870   -4.3419 H   0  0  0  0  0  0  0  0  0  0  0  0
    3.1258   -1.8240   -4.6123 H   0  0  0  0  0  0  0  0  0  0  0  0
    1.8383   -1.5997   -2.5753 H   0  0  0  0  0  0  0  0  0  0  0  0
    1.4115   -2.9579   -3.5865 H   0  0  0  0  0  0  0  0  0  0  0  0
    1.2742   -3.2847   -1.1178 H   0  0  0  0  0  0  0  0  0  0  0  0
    2.1653   -4.4929   -1.8647 H   0  0  0  0  0  0  0  0  0  0  0  0
    3.1905   -2.0867   -0.4302 H   0  0  0  0  0  0  0  0  0  0  0  0
    3.8180   -5.9227   -0.2665 H   0  0  0  0  0  0  0  0  0  0  0  0
    2.1508   -5.5857    0.0879 H   0  0  0  0  0  0  0  0  0  0  0  0
    3.2248   -5.9783    1.3937 H   0  0  0  0  0  0  0  0  0  0  0  0
    1.5104   -3.8819    1.6827 H   0  0  0  0  0  0  0  0  0  0  0  0
    1.9053   -2.1628    3.2898 H   0  0  0  0  0  0  0  0  0  0  0  0
    4.7815   -1.3865    0.7987 H   0  0  0  0  0  0  0  0  0  0  0  0
    5.9934   -1.8514    1.9415 H   0  0  0  0  0  0  0  0  0  0  0  0
    5.6527   -4.7911   -0.5305 H   0  0  0  0  0  0  0  0  0  0  0  0
    7.7742   -3.9192   -0.8122 H   0  0  0  0  0  0  0  0  0  0  0  0
    7.3334   -2.4187    0.0095 H   0  0  0  0  0  0  0  0  0  0  0  0
    7.9842   -5.0164    1.3297 H   0  0  0  0  0  0  0  0  0  0  0  0
    7.6947   -3.4632    1.9601 H   0  0  0  0  0  0  0  0  0  0  0  0
    5.9097   -3.3724    3.8109 H   0  0  0  0  0  0  0  0  0  0  0  0
    6.4026   -5.0495    3.9582 H   0  0  0  0  0  0  0  0  0  0  0  0
    4.7069   -4.6206    3.7793 H   0  0  0  0  0  0  0  0  0  0  0  0
    5.8771   -6.0562    0.7594 H   0  0  0  0  0  0  0  0  0  0  0  0
  1  2  2  0
  1 25  1  0
  1 26  1  0
  2  7  1  0
  2  3  1  0
  4  3  1  6
  3 27  1  0
  3 28  1  0
  4 10  1  0
  4 19  1  0
  4  5  1  0
  5  6  1  0
  5 29  1  0
  5 30  1  0
  6  7  1  0
  6 31  1  0
  6 32  1  0
  7  8  1  0
  7 33  1  6
  8  9  1  0
  8 34  1  0
  8 35  1  0
  9 10  1  0
  9 36  1  0
  9 37  1  0
 10 11  1  0
 10 38  1  1
 11 18  1  0
 11 12  1  6
 11 13  1  0
 12 39  1  0
 12 40  1  0
 12 41  1  0
 13 14  2  0
 13 42  1  0
 14 15  1  0
 14 43  1  0
 15 16  2  0
 15 17  1  0
 18 17  1  1
 17 44  1  0
 17 45  1  0
 18 22  1  0
 18 19  1  0
 19 20  1  0
 19 46  1  6
 20 21  1  0
 20 47  1  0
 20 48  1  0
 21 22  1  0
 21 49  1  0
 21 50  1  0
 22 23  1  0
 22 24  1  6
 23 51  1  0
 23 52  1  0
 23 53  1  0
 24 54  1  0
M  END
>  <i_m_ct_stereo_status>  (116) 
1

>  <s_m_source_file>  (116) 
/var/tmp/pbs.5076255.sched01/tmp9vbryffn/46pprzbbw9.sdf

>  <i_m_source_file_index>  (116) 
4

>  <i_lp_mmshare_version>  (116) 
48012

>  <i_f3d_flags>  (116) 
0

>  <s_epik_input>  (116) 
W0NIMl09QyhbQ0gyXTEpW0NAQEhdKFtDSDJdW0NIMl0yKVtDSDJdW0NIMl1bQ0BIXShbQ0BdMTIzKVtDQEBdNChbQ0gzXSlbQ0BdNShbQ0gyXUMoPU8pW0NIXT1bQ0hdNClbQ0BASF0zW0NIMl1bQ0gyXVtDQF01KFtDSDNdKVtPSF0=

>  <s_epik_cmdline>  (116) 
J2VwaWtfcHl0aG9uJywgJy1waHQnLCAnMi4wJywgJy1waCcsICc3LjAnLCAnLXRuJywgJzgnLCAnLW1hJywgJzIwMCcsICctaW1hZScsICc8aW5maWxlLm1hZT4nLCAnLW9tYWUnLCAnPG91dGZpbGUubWFlPic=

>  <r_lp_tautomer_probability>  (116) 
1

>  <r_epik_Ionization_Penalty>  (116) 
1.94771e-07

>  <r_epik_Ionization_Penalty_Charging>  (116) 
0

>  <r_epik_Ionization_Penalty_Neutral>  (116) 
1.94771e-07

>  <r_epik_State_Penalty>  (116) 
-0

>  <r_epik_Charging_Adjusted_Penalty>  (116) 
0

>  <i_epik_Tot_Q>  (116) 
0

>  <i_epik_Tot_abs_Q>  (116) 
0

>  <s_lp_Force_Field>  (116) 
OPLS3e

>  <r_lp_Energy>  (116) 
70.4114

>  <b_lp_Chiralities_Consistent>  (116) 
1

>  <s_lp_Variant>  (116) 
31:0-1

>  <s_i_glide_gridfile>  (116) 
pfpi4k_grid

>  <i_i_glide_lignum>  (116) 
4

>  <i_i_glide_rotatable_bonds>  (116) 
1

>  <r_i_docking_score>  (116) 
-2.79307

>  <r_i_glide_ligand_efficiency>  (116) 
-0.116378

>  <r_i_glide_ligand_efficiency_sa>  (116) 
-0.335691

>  <r_i_glide_ligand_efficiency_ln>  (116) 
-0.668509

>  <r_i_glide_gscore>  (116) 
-2.79307

>  <r_i_glide_lipo>  (116) 
-0.935985

>  <r_i_glide_hbond>  (116) 
0

>  <r_i_glide_metal>  (116) 
-0

>  <r_i_glide_rewards>  (116) 
-1.18369

>  <r_i_glide_evdw>  (116) 
-10.0766

>  <r_i_glide_ecoul>  (116) 
-1.13041

>  <r_i_glide_erotb>  (116) 
0

>  <r_i_glide_esite>  (116) 
0

>  <r_i_glide_emodel>  (116) 
-10.4573

>  <r_i_glide_energy>  (116) 
-11.2071

>  <r_i_glide_einternal>  (116) 
0.0141254

>  <r_i_glide_intrahb_reward>  (116) 
-0

>  <i_i_glide_confnum>  (116) 
1

>  <i_i_glide_posenum>  (116) 
6

>  <r_i_glide_eff_state_penalty>  (116) 
0

>  <ligand_id>  (116) 
31

>  <original_smiles>  (116) 
C=C1CC23CCC1CCC2C1(C)C=CC(=O)CC12C3CCC2(C)O

>  <smiles>  (116) 
[H]OC1(C([H])([H])[H])C([H])([H])C([H])([H])C2([H])C34C([H])([H])C(=C([H])[H])C([H])(C([H])([H])C([H])([H])C3([H])C3(C([H])([H])[H])C([H])=C([H])C(=O)C([H])([H])C213)C([H])([H])C4([H])[H]

$$$$
32:0:0
     RDKit          3D

 53 58  0  0  1  0  0  0  0  0999 V2000
   -1.6046   -8.0595    2.8583 C   0  0  0  0  0  0  0  0  0  0  0  0
   -0.1635   -7.6235    3.0568 C   0  0  0  0  0  0  0  0  0  0  0  0
    0.4807   -7.6509    4.2431 C   0  0  0  0  0  0  0  0  0  0  0  0
    1.9207   -7.1264    4.2922 C   0  0  1  0  0  0  0  0  0  0  0  0
    3.0339   -7.9230    4.9627 C   0  0  0  0  0  0  0  0  0  0  0  0
    4.2853   -7.1898    4.4257 C   0  0  0  0  0  0  0  0  0  0  0  0
    3.9250   -6.7194    2.9949 C   0  0  2  0  0  0  0  0  0  0  0  0
    4.2317   -5.2576    2.5866 C   0  0  1  0  0  0  0  0  0  0  0  0
    5.6593   -4.7294    2.7295 C   0  0  0  0  0  0  0  0  0  0  0  0
    5.7502   -3.5764    1.7026 C   0  0  0  0  0  0  0  0  0  0  0  0
    4.3686   -3.4957    1.0074 C   0  0  1  0  0  0  0  0  0  0  0  0
    4.3827   -2.7870   -0.3660 C   0  0  0  0  0  0  0  0  0  0  0  0
    4.8723   -1.3670   -0.4995 C   0  0  0  0  0  0  0  0  0  0  0  0
    4.7670   -1.1167   -1.8949 O   0  0  0  0  0  0  0  0  0  0  0  0
    4.2519   -2.1788   -2.5528 C   0  0  0  0  0  0  0  0  0  0  0  0
    4.0898   -2.2568   -3.7700 O   0  0  0  0  0  0  0  0  0  0  0  0
    3.9852   -3.2240   -1.5604 C   0  0  0  0  0  0  0  0  0  0  0  0
    3.8115   -4.9506    1.1111 C   0  0  1  0  0  0  0  0  0  0  0  0
    4.5548   -5.9036    0.1184 C   0  0  0  0  0  0  0  0  0  0  0  0
    2.2398   -5.0626    0.9976 C   0  0  1  0  0  0  0  0  0  0  0  0
    1.7613   -5.4339   -0.2875 O   0  0  0  0  0  0  0  0  0  0  0  0
    1.5538   -5.9329    2.0794 C   0  0  1  0  0  0  0  0  0  0  0  0
    0.6364   -7.1785    1.8137 C   0  0  1  0  0  0  0  0  0  0  0  0
    1.9479   -7.9729    1.8264 C   0  0  0  0  0  0  0  0  0  0  0  0
    2.4216   -6.9299    2.8609 C   0  0  2  0  0  0  0  0  0  0  0  0
   -2.1978   -7.2303    2.4802 H   0  0  0  0  0  0  0  0  0  0  0  0
   -2.0474   -8.4074    3.7906 H   0  0  0  0  0  0  0  0  0  0  0  0
   -1.6555   -8.8699    2.1328 H   0  0  0  0  0  0  0  0  0  0  0  0
    0.0133   -7.9779    5.1566 H   0  0  0  0  0  0  0  0  0  0  0  0
    1.8665   -6.1604    4.8018 H   0  0  0  0  0  0  0  0  0  0  0  0
    2.9748   -7.9169    6.0503 H   0  0  0  0  0  0  0  0  0  0  0  0
    3.0158   -8.9588    4.6210 H   0  0  0  0  0  0  0  0  0  0  0  0
    4.5093   -6.3292    5.0530 H   0  0  0  0  0  0  0  0  0  0  0  0
    5.1643   -7.8365    4.4256 H   0  0  0  0  0  0  0  0  0  0  0  0
    4.4456   -7.4042    2.3223 H   0  0  0  0  0  0  0  0  0  0  0  0
    3.6341   -4.6293    3.2551 H   0  0  0  0  0  0  0  0  0  0  0  0
    5.8416   -4.3871    3.7505 H   0  0  0  0  0  0  0  0  0  0  0  0
    6.4005   -5.5024    2.5133 H   0  0  0  0  0  0  0  0  0  0  0  0
    6.0259   -2.6409    2.1902 H   0  0  0  0  0  0  0  0  0  0  0  0
    6.5332   -3.8003    0.9788 H   0  0  0  0  0  0  0  0  0  0  0  0
    3.7549   -2.8532    1.6412 H   0  0  0  0  0  0  0  0  0  0  0  0
    5.9016   -1.2461   -0.1599 H   0  0  0  0  0  0  0  0  0  0  0  0
    4.2342   -0.6865    0.0628 H   0  0  0  0  0  0  0  0  0  0  0  0
    3.5606   -4.1701   -1.8183 H   0  0  0  0  0  0  0  0  0  0  0  0
    4.4533   -5.6233   -0.9147 H   0  0  0  0  0  0  0  0  0  0  0  0
    4.2040   -6.9290    0.2005 H   0  0  0  0  0  0  0  0  0  0  0  0
    5.6249   -5.9438    0.3233 H   0  0  0  0  0  0  0  0  0  0  0  0
    1.8621   -4.0529    1.1318 H   0  0  0  0  0  0  0  0  0  0  0  0
    2.4664   -5.3648   -0.9213 H   0  0  0  0  0  0  0  0  0  0  0  0
    1.0461   -5.2741    2.7808 H   0  0  0  0  0  0  0  0  0  0  0  0
    0.0809   -7.2027    0.8661 H   0  0  0  0  0  0  0  0  0  0  0  0
    1.8608   -8.9866    2.2240 H   0  0  0  0  0  0  0  0  0  0  0  0
    2.4669   -7.9551    0.8751 H   0  0  0  0  0  0  0  0  0  0  0  0
  1  2  1  0
  1 26  1  0
  1 27  1  0
  1 28  1  0
  2 23  1  0
  2  3  2  0
  3  4  1  0
  3 29  1  0
  4 25  1  0
  4  5  1  0
  4 30  1  1
  5  6  1  0
  5 31  1  0
  5 32  1  0
  6  7  1  0
  6 33  1  0
  6 34  1  0
  7 25  1  0
  7  8  1  0
  7 35  1  6
  8 18  1  0
  8  9  1  0
  8 36  1  1
  9 10  1  0
  9 37  1  0
  9 38  1  0
 10 11  1  0
 10 39  1  0
 10 40  1  0
 11 18  1  0
 11 41  1  1
 11 12  1  0
 12 17  2  0
 12 13  1  0
 13 14  1  0
 13 42  1  0
 13 43  1  0
 14 15  1  0
 15 17  1  0
 15 16  2  0
 17 44  1  0
 18 19  1  6
 18 20  1  0
 19 45  1  0
 19 46  1  0
 19 47  1  0
 20 21  1  0
 20 22  1  0
 20 48  1  1
 21 49  1  0
 22 25  1  0
 22 23  1  0
 22 50  1  1
 23 24  1  0
 23 51  1  6
 25 24  1  6
 24 52  1  0
 24 53  1  0
M  END
>  <i_m_ct_stereo_status>  (117) 
1

>  <s_m_source_file>  (117) 
/var/tmp/pbs.5076255.sched01/tmp9vbryffn/46pprzbbw9.sdf

>  <i_m_source_file_index>  (117) 
5

>  <i_lp_mmshare_version>  (117) 
48012

>  <i_f3d_flags>  (117) 
0

>  <s_epik_input>  (117) 
W0NAQF0xMjNbQ0BIXTRbQ0hdPUMoW0NIM10pW0NASF0oW0NIMl0zKVtDQEBIXTJbQ0BIXShbT0hdKVtDQF01KFtDSDNdKVtDQEBIXShbQ0BIXTFbQ0gyXVtDSDJdNClbQ0gyXVtDSDJdW0NASF01YzZbY0hdb2MoW09IXSlbY0hdNg==

>  <s_epik_cmdline>  (117) 
J2VwaWtfcHl0aG9uJywgJy1waHQnLCAnMi4wJywgJy1waCcsICc3LjAnLCAnLXRuJywgJzgnLCAnLW1hJywgJzIwMCcsICctaW1hZScsICc8aW5maWxlLm1hZT4nLCAnLW9tYWUnLCAnPG91dGZpbGUubWFlPic=

>  <r_lp_tautomer_probability>  (117) 
1

>  <r_epik_Ionization_Penalty>  (117) 
3.2335e-07

>  <r_epik_Ionization_Penalty_Charging>  (117) 
0

>  <r_epik_Ionization_Penalty_Neutral>  (117) 
3.2335e-07

>  <r_epik_State_Penalty>  (117) 
-0

>  <r_epik_Charging_Adjusted_Penalty>  (117) 
0

>  <i_epik_Tot_Q>  (117) 
0

>  <i_epik_Tot_abs_Q>  (117) 
0

>  <s_epik_Chemistry_Notes>  (117) 
This compound has an ester and may undergo hydrolysis at high or low pH.

>  <s_lp_Force_Field>  (117) 
OPLS3e

>  <r_lp_Energy>  (117) 
67.6022

>  <b_lp_Chiralities_Consistent>  (117) 
1

>  <s_lp_Variant>  (117) 
32:0-1

>  <s_i_glide_gridfile>  (117) 
pfpi4k_grid

>  <i_i_glide_lignum>  (117) 
5

>  <i_i_glide_rotatable_bonds>  (117) 
2

>  <r_i_docking_score>  (117) 
-4.11485

>  <r_i_glide_ligand_efficiency>  (117) 
-0.164594

>  <r_i_glide_ligand_efficiency_sa>  (117) 
-0.481276

>  <r_i_glide_ligand_efficiency_ln>  (117) 
-0.975342

>  <r_i_glide_gscore>  (117) 
-4.11485

>  <r_i_glide_lipo>  (117) 
-0.156466

>  <r_i_glide_hbond>  (117) 
-0.335856

>  <r_i_glide_metal>  (117) 
-0

>  <r_i_glide_rewards>  (117) 
-1.17896

>  <r_i_glide_evdw>  (117) 
-28.0297

>  <r_i_glide_ecoul>  (117) 
-8.03643

>  <r_i_glide_erotb>  (117) 
0.163381

>  <r_i_glide_esite>  (117) 
0

>  <r_i_glide_emodel>  (117) 
-43.8552

>  <r_i_glide_energy>  (117) 
-36.0662

>  <r_i_glide_einternal>  (117) 
1.58509

>  <r_i_glide_intrahb_reward>  (117) 
-0

>  <i_i_glide_confnum>  (117) 
4

>  <i_i_glide_posenum>  (117) 
11

>  <r_i_glide_eff_state_penalty>  (117) 
0

>  <ligand_id>  (117) 
32

>  <original_smiles>  (117) 
CC1=CC2CCC3C4CCC(c5coc(O)c5)C4(C)C(O)C4C1CC234

>  <smiles>  (117) 
[H]OC1([H])C2([H])C3([H])C(C([H])([H])[H])=C([H])C4([H])C([H])([H])C([H])([H])C([H])(C5([H])C([H])([H])C([H])([H])C([H])(C6=C([H])C(=O)OC6([H])[H])C15C([H])([H])[H])C42C3([H])[H]

$$$$
32:0:1
     RDKit          3D

 53 58  0  0  1  0  0  0  0  0999 V2000
   -1.4481   -7.4628    3.9817 C   0  0  0  0  0  0  0  0  0  0  0  0
   -0.1045   -8.1728    3.9203 C   0  0  0  0  0  0  0  0  0  0  0  0
    0.2362   -9.2312    4.6895 C   0  0  0  0  0  0  0  0  0  0  0  0
    1.6566   -9.7955    4.5360 C   0  0  1  0  0  0  0  0  0  0  0  0
    1.8846  -11.2890    4.3643 C   0  0  0  0  0  0  0  0  0  0  0  0
    3.3552  -11.3071    3.8914 C   0  0  0  0  0  0  0  0  0  0  0  0
    3.5446  -10.0247    3.0482 C   0  0  2  0  0  0  0  0  0  0  0  0
    4.7703   -9.1229    3.3121 C   0  0  1  0  0  0  0  0  0  0  0  0
    6.1690   -9.7354    3.2412 C   0  0  0  0  0  0  0  0  0  0  0  0
    7.0980   -8.5435    2.9251 C   0  0  0  0  0  0  0  0  0  0  0  0
    6.1913   -7.2901    2.8338 C   0  0  1  0  0  0  0  0  0  0  0  0
    6.7727   -6.1272    2.0055 C   0  0  0  0  0  0  0  0  0  0  0  0
    6.0390   -4.8291    1.8624 C   0  0  0  0  0  0  0  0  0  0  0  0
    6.9440   -4.0429    1.0979 O   0  0  0  0  0  0  0  0  0  0  0  0
    8.0695   -4.7193    0.8049 C   0  0  0  0  0  0  0  0  0  0  0  0
    9.0116   -4.2854    0.1494 O   0  0  0  0  0  0  0  0  0  0  0  0
    7.9516   -6.0546    1.4014 C   0  0  0  0  0  0  0  0  0  0  0  0
    4.8078   -7.8567    2.3976 C   0  0  1  0  0  0  0  0  0  0  0  0
    4.8518   -8.2309    0.8940 C   0  0  0  0  0  0  0  0  0  0  0  0
    3.5664   -6.9300    2.7141 C   0  0  1  0  0  0  0  0  0  0  0  0
    3.0823   -6.2163    1.5870 O   0  0  0  0  0  0  0  0  0  0  0  0
    2.3760   -7.6434    3.3750 C   0  0  1  0  0  0  0  0  0  0  0  0
    0.8942   -7.6885    2.8737 C   0  0  1  0  0  0  0  0  0  0  0  0
    1.3720   -8.9138    2.1006 C   0  0  0  0  0  0  0  0  0  0  0  0
    2.3052   -9.1822    3.3064 C   0  0  2  0  0  0  0  0  0  0  0  0
   -1.3106   -6.4150    4.2517 H   0  0  0  0  0  0  0  0  0  0  0  0
   -2.0866   -7.9329    4.7215 H   0  0  0  0  0  0  0  0  0  0  0  0
   -1.9516   -7.5093    3.0160 H   0  0  0  0  0  0  0  0  0  0  0  0
   -0.4109   -9.6487    5.4346 H   0  0  0  0  0  0  0  0  0  0  0  0
    2.1916   -9.4849    5.4354 H   0  0  0  0  0  0  0  0  0  0  0  0
    1.7379  -11.8604    5.2773 H   0  0  0  0  0  0  0  0  0  0  0  0
    1.2267  -11.6970    3.5965 H   0  0  0  0  0  0  0  0  0  0  0  0
    4.0203  -11.2806    4.7509 H   0  0  0  0  0  0  0  0  0  0  0  0
    3.5895  -12.1986    3.3147 H   0  0  0  0  0  0  0  0  0  0  0  0
    3.5496  -10.3432    2.0044 H   0  0  0  0  0  0  0  0  0  0  0  0
    4.6727   -8.7741    4.3455 H   0  0  0  0  0  0  0  0  0  0  0  0
    6.4351  -10.2142    4.1867 H   0  0  0  0  0  0  0  0  0  0  0  0
    6.2410  -10.4966    2.4607 H   0  0  0  0  0  0  0  0  0  0  0  0
    7.8789   -8.4286    3.6827 H   0  0  0  0  0  0  0  0  0  0  0  0
    7.6052   -8.7292    1.9757 H   0  0  0  0  0  0  0  0  0  0  0  0
    6.0994   -6.9046    3.8475 H   0  0  0  0  0  0  0  0  0  0  0  0
    5.8338   -4.3760    2.8285 H   0  0  0  0  0  0  0  0  0  0  0  0
    5.1183   -4.9565    1.3079 H   0  0  0  0  0  0  0  0  0  0  0  0
    8.7343   -6.7999    1.3533 H   0  0  0  0  0  0  0  0  0  0  0  0
    5.0550   -7.3610    0.2744 H   0  0  0  0  0  0  0  0  0  0  0  0
    3.9129   -8.6418    0.5358 H   0  0  0  0  0  0  0  0  0  0  0  0
    5.6154   -8.9729    0.6712 H   0  0  0  0  0  0  0  0  0  0  0  0
    3.9088   -6.1740    3.4184 H   0  0  0  0  0  0  0  0  0  0  0  0
    3.7942   -5.7590    1.1872 H   0  0  0  0  0  0  0  0  0  0  0  0
    2.3468   -7.3642    4.4283 H   0  0  0  0  0  0  0  0  0  0  0  0
    0.5763   -6.8483    2.2449 H   0  0  0  0  0  0  0  0  0  0  0  0
    0.6102   -9.6914    1.9931 H   0  0  0  0  0  0  0  0  0  0  0  0
    1.8711   -8.6891    1.1634 H   0  0  0  0  0  0  0  0  0  0  0  0
  1  2  1  0
  1 26  1  0
  1 27  1  0
  1 28  1  0
  2 23  1  0
  2  3  2  0
  3  4  1  0
  3 29  1  0
  4 25  1  0
  4  5  1  0
  4 30  1  1
  5  6  1  0
  5 31  1  0
  5 32  1  0
  6  7  1  0
  6 33  1  0
  6 34  1  0
  7 25  1  0
  7  8  1  0
  7 35  1  6
  8 18  1  0
  8  9  1  0
  8 36  1  1
  9 10  1  0
  9 37  1  0
  9 38  1  0
 10 11  1  0
 10 39  1  0
 10 40  1  0
 11 18  1  0
 11 41  1  1
 11 12  1  0
 12 17  2  0
 12 13  1  0
 13 14  1  0
 13 42  1  0
 13 43  1  0
 14 15  1  0
 15 17  1  0
 15 16  2  0
 17 44  1  0
 18 19  1  6
 18 20  1  0
 19 45  1  0
 19 46  1  0
 19 47  1  0
 20 21  1  0
 20 22  1  0
 20 48  1  1
 21 49  1  0
 22 25  1  0
 22 23  1  0
 22 50  1  1
 23 24  1  0
 23 51  1  6
 25 24  1  6
 24 52  1  0
 24 53  1  0
M  END
>  <i_m_ct_stereo_status>  (118) 
1

>  <s_m_source_file>  (118) 
/var/tmp/pbs.5076255.sched01/tmp9vbryffn/46pprzbbw9.sdf

>  <i_m_source_file_index>  (118) 
5

>  <i_lp_mmshare_version>  (118) 
48012

>  <i_f3d_flags>  (118) 
0

>  <s_epik_input>  (118) 
W0NAQF0xMjNbQ0BIXTRbQ0hdPUMoW0NIM10pW0NASF0oW0NIMl0zKVtDQEBIXTJbQ0BIXShbT0hdKVtDQF01KFtDSDNdKVtDQEBIXShbQ0BIXTFbQ0gyXVtDSDJdNClbQ0gyXVtDSDJdW0NASF01YzZbY0hdb2MoW09IXSlbY0hdNg==

>  <s_epik_cmdline>  (118) 
J2VwaWtfcHl0aG9uJywgJy1waHQnLCAnMi4wJywgJy1waCcsICc3LjAnLCAnLXRuJywgJzgnLCAnLW1hJywgJzIwMCcsICctaW1hZScsICc8aW5maWxlLm1hZT4nLCAnLW9tYWUnLCAnPG91dGZpbGUubWFlPic=

>  <r_lp_tautomer_probability>  (118) 
1

>  <r_epik_Ionization_Penalty>  (118) 
3.2335e-07

>  <r_epik_Ionization_Penalty_Charging>  (118) 
0

>  <r_epik_Ionization_Penalty_Neutral>  (118) 
3.2335e-07

>  <r_epik_State_Penalty>  (118) 
-0

>  <r_epik_Charging_Adjusted_Penalty>  (118) 
0

>  <i_epik_Tot_Q>  (118) 
0

>  <i_epik_Tot_abs_Q>  (118) 
0

>  <s_epik_Chemistry_Notes>  (118) 
This compound has an ester and may undergo hydrolysis at high or low pH.

>  <s_lp_Force_Field>  (118) 
OPLS3e

>  <r_lp_Energy>  (118) 
67.6022

>  <b_lp_Chiralities_Consistent>  (118) 
1

>  <s_lp_Variant>  (118) 
32:0-1

>  <s_i_glide_gridfile>  (118) 
pfpi4k_grid

>  <i_i_glide_lignum>  (118) 
5

>  <i_i_glide_rotatable_bonds>  (118) 
2

>  <r_i_docking_score>  (118) 
-3.15869

>  <r_i_glide_ligand_efficiency>  (118) 
-0.126348

>  <r_i_glide_ligand_efficiency_sa>  (118) 
-0.369443

>  <r_i_glide_ligand_efficiency_ln>  (118) 
-0.748705

>  <r_i_glide_gscore>  (118) 
-3.15869

>  <r_i_glide_lipo>  (118) 
-0.17912

>  <r_i_glide_hbond>  (118) 
-0.0765827

>  <r_i_glide_metal>  (118) 
-0

>  <r_i_glide_rewards>  (118) 
-1.29406

>  <r_i_glide_evdw>  (118) 
-27.9148

>  <r_i_glide_ecoul>  (118) 
-2.51049

>  <r_i_glide_erotb>  (118) 
0.163381

>  <r_i_glide_esite>  (118) 
0

>  <r_i_glide_emodel>  (118) 
-37.1102

>  <r_i_glide_energy>  (118) 
-30.4253

>  <r_i_glide_einternal>  (118) 
0.37934

>  <r_i_glide_intrahb_reward>  (118) 
-0

>  <i_i_glide_confnum>  (118) 
4

>  <i_i_glide_posenum>  (118) 
39

>  <r_i_glide_eff_state_penalty>  (118) 
0

>  <ligand_id>  (118) 
32

>  <original_smiles>  (118) 
CC1=CC2CCC3C4CCC(c5coc(O)c5)C4(C)C(O)C4C1CC234

>  <smiles>  (118) 
[H]OC1([H])C2([H])C3([H])C(C([H])([H])[H])=C([H])C4([H])C([H])([H])C([H])([H])C([H])(C5([H])C([H])([H])C([H])([H])C([H])(C6=C([H])C(=O)OC6([H])[H])C15C([H])([H])[H])C42C3([H])[H]

$$$$
32:0:2
     RDKit          3D

 53 58  0  0  1  0  0  0  0  0999 V2000
   -1.3993   -7.0800    4.1547 C   0  0  0  0  0  0  0  0  0  0  0  0
   -0.1546   -7.9230    4.0091 C   0  0  0  0  0  0  0  0  0  0  0  0
    0.0823   -9.0790    4.6621 C   0  0  0  0  0  0  0  0  0  0  0  0
    1.4121   -9.7914    4.4300 C   0  0  1  0  0  0  0  0  0  0  0  0
    1.4515  -11.2759    4.1173 C   0  0  0  0  0  0  0  0  0  0  0  0
    2.9034  -11.4186    3.6147 C   0  0  0  0  0  0  0  0  0  0  0  0
    3.2374  -10.0942    2.8939 C   0  0  2  0  0  0  0  0  0  0  0  0
    4.5592   -9.3572    3.2155 C   0  0  1  0  0  0  0  0  0  0  0  0
    5.8749  -10.1200    3.0533 C   0  0  0  0  0  0  0  0  0  0  0  0
    6.9293   -9.0117    2.8280 C   0  0  0  0  0  0  0  0  0  0  0  0
    6.1835   -7.6547    2.8654 C   0  0  1  0  0  0  0  0  0  0  0  0
    6.9361   -6.5139    2.1534 C   0  0  0  0  0  0  0  0  0  0  0  0
    8.3869   -6.2421    2.4442 C   0  0  0  0  0  0  0  0  0  0  0  0
    8.6766   -5.1435    1.5819 O   0  0  0  0  0  0  0  0  0  0  0  0
    7.5894   -4.7438    0.8931 C   0  0  0  0  0  0  0  0  0  0  0  0
    7.5344   -3.8293    0.0773 O   0  0  0  0  0  0  0  0  0  0  0  0
    6.4834   -5.6014    1.2954 C   0  0  0  0  0  0  0  0  0  0  0  0
    4.7350   -8.0298    2.4049 C   0  0  1  0  0  0  0  0  0  0  0  0
    4.6944   -8.3333    0.8762 C   0  0  0  0  0  0  0  0  0  0  0  0
    3.6259   -6.9959    2.8378 C   0  0  1  0  0  0  0  0  0  0  0  0
    3.2269   -6.1269    1.8063 O   0  0  0  0  0  0  0  0  0  0  0  0
    2.3600   -7.6303    3.4600 C   0  0  1  0  0  0  0  0  0  0  0  0
    0.8814   -7.4435    2.9872 C   0  0  1  0  0  0  0  0  0  0  0  0
    1.2011   -8.6366    2.0984 C   0  0  0  0  0  0  0  0  0  0  0  0
    2.1116   -9.1323    3.2447 C   0  0  2  0  0  0  0  0  0  0  0  0
   -1.1269   -6.0910    4.5243 H   0  0  0  0  0  0  0  0  0  0  0  0
   -2.0914   -7.5339    4.8565 H   0  0  0  0  0  0  0  0  0  0  0  0
   -1.9103   -6.9743    3.1980 H   0  0  0  0  0  0  0  0  0  0  0  0
   -0.5970   -9.4827    5.3839 H   0  0  0  0  0  0  0  0  0  0  0  0
    1.9883   -9.6311    5.3398 H   0  0  0  0  0  0  0  0  0  0  0  0
    1.2476  -11.9069    4.9801 H   0  0  0  0  0  0  0  0  0  0  0  0
    0.7448  -11.5284    3.3278 H   0  0  0  0  0  0  0  0  0  0  0  0
    3.5766  -11.5548    4.4562 H   0  0  0  0  0  0  0  0  0  0  0  0
    3.0314  -12.2665    2.9441 H   0  0  0  0  0  0  0  0  0  0  0  0
    3.1916  -10.3104    1.8257 H   0  0  0  0  0  0  0  0  0  0  0  0
    4.5153   -9.1031    4.2813 H   0  0  0  0  0  0  0  0  0  0  0  0
    6.0938  -10.7207    3.9420 H   0  0  0  0  0  0  0  0  0  0  0  0
    5.8472  -10.8047    2.2024 H   0  0  0  0  0  0  0  0  0  0  0  0
    7.7248   -9.0713    3.5769 H   0  0  0  0  0  0  0  0  0  0  0  0
    7.3965   -9.1513    1.8493 H   0  0  0  0  0  0  0  0  0  0  0  0
    6.1451   -7.3677    3.9199 H   0  0  0  0  0  0  0  0  0  0  0  0
    9.0140   -7.1001    2.2021 H   0  0  0  0  0  0  0  0  0  0  0  0
    8.5314   -5.9697    3.4907 H   0  0  0  0  0  0  0  0  0  0  0  0
    5.4985   -5.4619    0.8885 H   0  0  0  0  0  0  0  0  0  0  0  0
    4.9526   -7.5078    0.2294 H   0  0  0  0  0  0  0  0  0  0  0  0
    3.7104   -8.6226    0.5380 H   0  0  0  0  0  0  0  0  0  0  0  0
    5.3690   -9.1360    0.6001 H   0  0  0  0  0  0  0  0  0  0  0  0
    4.0589   -6.3631    3.6143 H   0  0  0  0  0  0  0  0  0  0  0  0
    3.9863   -5.6788    1.4838 H   0  0  0  0  0  0  0  0  0  0  0  0
    2.3680   -7.4573    4.5315 H   0  0  0  0  0  0  0  0  0  0  0  0
    0.6565   -6.5257    2.4569 H   0  0  0  0  0  0  0  0  0  0  0  0
    0.3529   -9.2999    1.9284 H   0  0  0  0  0  0  0  0  0  0  0  0
    1.7190   -8.3730    1.1745 H   0  0  0  0  0  0  0  0  0  0  0  0
  1  2  1  0
  1 26  1  0
  1 27  1  0
  1 28  1  0
  2 23  1  0
  2  3  2  0
  3  4  1  0
  3 29  1  0
  4 25  1  0
  4  5  1  0
  4 30  1  1
  5  6  1  0
  5 31  1  0
  5 32  1  0
  6  7  1  0
  6 33  1  0
  6 34  1  0
  7 25  1  0
  7  8  1  0
  7 35  1  6
  8 18  1  0
  8  9  1  0
  8 36  1  1
  9 10  1  0
  9 37  1  0
  9 38  1  0
 10 11  1  0
 10 39  1  0
 10 40  1  0
 11 18  1  0
 11 41  1  1
 11 12  1  0
 12 17  2  0
 12 13  1  0
 13 14  1  0
 13 42  1  0
 13 43  1  0
 14 15  1  0
 15 17  1  0
 15 16  2  0
 17 44  1  0
 18 19  1  6
 18 20  1  0
 19 45  1  0
 19 46  1  0
 19 47  1  0
 20 21  1  0
 20 22  1  0
 20 48  1  1
 21 49  1  0
 22 25  1  0
 22 23  1  0
 22 50  1  1
 23 24  1  0
 23 51  1  6
 25 24  1  6
 24 52  1  0
 24 53  1  0
M  END
>  <i_m_ct_stereo_status>  (119) 
1

>  <s_m_source_file>  (119) 
/var/tmp/pbs.5076255.sched01/tmp9vbryffn/46pprzbbw9.sdf

>  <i_m_source_file_index>  (119) 
5

>  <i_lp_mmshare_version>  (119) 
48012

>  <i_f3d_flags>  (119) 
0

>  <s_epik_input>  (119) 
W0NAQF0xMjNbQ0BIXTRbQ0hdPUMoW0NIM10pW0NASF0oW0NIMl0zKVtDQEBIXTJbQ0BIXShbT0hdKVtDQF01KFtDSDNdKVtDQEBIXShbQ0BIXTFbQ0gyXVtDSDJdNClbQ0gyXVtDSDJdW0NASF01YzZbY0hdb2MoW09IXSlbY0hdNg==

>  <s_epik_cmdline>  (119) 
J2VwaWtfcHl0aG9uJywgJy1waHQnLCAnMi4wJywgJy1waCcsICc3LjAnLCAnLXRuJywgJzgnLCAnLW1hJywgJzIwMCcsICctaW1hZScsICc8aW5maWxlLm1hZT4nLCAnLW9tYWUnLCAnPG91dGZpbGUubWFlPic=

>  <r_lp_tautomer_probability>  (119) 
1

>  <r_epik_Ionization_Penalty>  (119) 
3.2335e-07

>  <r_epik_Ionization_Penalty_Charging>  (119) 
0

>  <r_epik_Ionization_Penalty_Neutral>  (119) 
3.2335e-07

>  <r_epik_State_Penalty>  (119) 
-0

>  <r_epik_Charging_Adjusted_Penalty>  (119) 
0

>  <i_epik_Tot_Q>  (119) 
0

>  <i_epik_Tot_abs_Q>  (119) 
0

>  <s_epik_Chemistry_Notes>  (119) 
This compound has an ester and may undergo hydrolysis at high or low pH.

>  <s_lp_Force_Field>  (119) 
OPLS3e

>  <r_lp_Energy>  (119) 
67.6022

>  <b_lp_Chiralities_Consistent>  (119) 
1

>  <s_lp_Variant>  (119) 
32:0-1

>  <s_i_glide_gridfile>  (119) 
pfpi4k_grid

>  <i_i_glide_lignum>  (119) 
5

>  <i_i_glide_rotatable_bonds>  (119) 
2

>  <r_i_docking_score>  (119) 
-3.04301

>  <r_i_glide_ligand_efficiency>  (119) 
-0.12172

>  <r_i_glide_ligand_efficiency_sa>  (119) 
-0.355912

>  <r_i_glide_ligand_efficiency_ln>  (119) 
-0.721284

>  <r_i_glide_gscore>  (119) 
-3.04301

>  <r_i_glide_lipo>  (119) 
-0.300056

>  <r_i_glide_hbond>  (119) 
0

>  <r_i_glide_metal>  (119) 
-0

>  <r_i_glide_rewards>  (119) 
-1.26852

>  <r_i_glide_evdw>  (119) 
-28.6607

>  <r_i_glide_ecoul>  (119) 
-1.36515

>  <r_i_glide_erotb>  (119) 
0.163381

>  <r_i_glide_esite>  (119) 
0

>  <r_i_glide_emodel>  (119) 
-36.2074

>  <r_i_glide_energy>  (119) 
-30.0258

>  <r_i_glide_einternal>  (119) 
0.672311

>  <r_i_glide_intrahb_reward>  (119) 
-0

>  <i_i_glide_confnum>  (119) 
4

>  <i_i_glide_posenum>  (119) 
7

>  <r_i_glide_eff_state_penalty>  (119) 
0

>  <ligand_id>  (119) 
32

>  <original_smiles>  (119) 
CC1=CC2CCC3C4CCC(c5coc(O)c5)C4(C)C(O)C4C1CC234

>  <smiles>  (119) 
[H]OC1([H])C2([H])C3([H])C(C([H])([H])[H])=C([H])C4([H])C([H])([H])C([H])([H])C([H])(C5([H])C([H])([H])C([H])([H])C([H])(C6=C([H])C(=O)OC6([H])[H])C15C([H])([H])[H])C42C3([H])[H]

$$$$
33:0:0
     RDKit          3D

 51 56  0  0  1  0  0  0  0  0999 V2000
    2.5592   -6.3272    4.2412 C   0  0  0  0  0  0  0  0  0  0  0  0
    3.1151   -5.3411    3.3921 O   0  0  0  0  0  0  0  0  0  0  0  0
    4.5557   -5.3545    3.3631 C   0  0  2  0  0  0  0  0  0  0  0  0
    5.0782   -3.9734    2.8520 C   0  0  0  0  0  0  0  0  0  0  0  0
    5.3268   -3.9248    1.3106 C   0  0  2  0  0  0  0  0  0  0  0  0
    4.0422   -3.8489    0.6307 O   0  0  0  0  0  0  0  0  0  0  0  0
    3.9140   -2.6556   -0.1666 C   0  0  0  0  0  0  0  0  0  0  0  0
    3.0956   -2.9827   -1.4194 C   0  0  0  0  0  0  0  0  0  0  0  0
    3.1895   -1.6049    0.6994 C   0  0  0  0  0  0  0  0  0  0  0  0
    5.3532   -2.2404   -0.4482 C   0  0  2  0  0  0  0  0  0  0  0  0
    6.2793   -3.0545   -1.3818 C   0  0  0  0  0  0  0  0  0  0  0  0
    6.9750   -3.6936   -0.1705 C   0  0  2  0  0  0  0  0  0  0  0  0
    8.4842   -3.5857   -0.0805 C   0  0  0  0  0  0  0  0  0  0  0  0
    6.2903   -4.8902    0.4907 C   0  0  1  0  0  0  0  0  0  0  0  0
    7.1328   -6.0597    1.0950 C   0  0  0  0  0  0  0  0  0  0  0  0
    6.6200   -6.4280    2.4565 C   0  0  2  0  0  0  0  0  0  0  0  0
    5.7845   -7.6609    2.7734 C   0  0  0  0  0  0  0  0  0  0  0  0
    5.2329   -8.8628    2.5117 C   0  0  0  0  0  0  0  0  0  0  0  0
    4.2906   -8.4199    1.3757 C   0  0  1  0  0  0  0  0  0  0  0  0
    2.8845   -8.9300    1.5927 C   0  0  0  0  0  0  0  0  0  0  0  0
    4.2893   -6.9475    1.3818 O   0  0  0  0  0  0  0  0  0  0  0  0
    5.1216   -6.4269    2.4761 C   0  0  1  0  0  0  0  0  0  0  0  0
    6.1287   -2.7793    0.7202 C   0  0  2  0  0  0  0  0  0  0  0  0
    1.4959   -6.3595    4.0411 H   0  0  0  0  0  0  0  0  0  0  0  0
    2.6744   -6.0253    5.2870 H   0  0  0  0  0  0  0  0  0  0  0  0
    2.9778   -7.3069    4.0390 H   0  0  0  0  0  0  0  0  0  0  0  0
    4.9249   -5.4941    4.3655 H   0  0  0  0  0  0  0  0  0  0  0  0
    4.4235   -3.1624    3.2141 H   0  0  0  0  0  0  0  0  0  0  0  0
    6.0373   -3.8137    3.3525 H   0  0  0  0  0  0  0  0  0  0  0  0
    3.0740   -2.1356   -2.1044 H   0  0  0  0  0  0  0  0  0  0  0  0
    2.0567   -3.2216   -1.1704 H   0  0  0  0  0  0  0  0  0  0  0  0
    3.5013   -3.8391   -1.9505 H   0  0  0  0  0  0  0  0  0  0  0  0
    3.0506   -0.6735    0.1488 H   0  0  0  0  0  0  0  0  0  0  0  0
    3.7483   -1.3685    1.6028 H   0  0  0  0  0  0  0  0  0  0  0  0
    2.1998   -1.9501    1.0049 H   0  0  0  0  0  0  0  0  0  0  0  0
    5.5067   -1.1682   -0.5607 H   0  0  0  0  0  0  0  0  0  0  0  0
    5.7600   -3.7718   -2.0284 H   0  0  0  0  0  0  0  0  0  0  0  0
    6.9463   -2.4167   -1.9597 H   0  0  0  0  0  0  0  0  0  0  0  0
    8.8100   -3.7414    0.9481 H   0  0  0  0  0  0  0  0  0  0  0  0
    8.8349   -2.6051   -0.4058 H   0  0  0  0  0  0  0  0  0  0  0  0
    8.9572   -4.3537   -0.7104 H   0  0  0  0  0  0  0  0  0  0  0  0
    5.6391   -5.3374   -0.2729 H   0  0  0  0  0  0  0  0  0  0  0  0
    6.9999   -6.9514    0.4754 H   0  0  0  0  0  0  0  0  0  0  0  0
    8.2433   -5.8822    1.1117 H   0  0  0  0  0  0  0  0  0  0  0  0
    7.1421   -6.0888    3.3128 H   0  0  0  0  0  0  0  0  0  0  0  0
    5.6630   -9.8166    2.6993 H   0  0  0  0  0  0  0  0  0  0  0  0
    4.7153   -8.6881    0.3898 H   0  0  0  0  0  0  0  0  0  0  0  0
    2.8697  -10.0215    1.4042 H   0  0  0  0  0  0  0  0  0  0  0  0
    2.2610   -8.4515    0.8797 H   0  0  0  0  0  0  0  0  0  0  0  0
    2.5556   -8.6897    2.6091 H   0  0  0  0  0  0  0  0  0  0  0  0
    6.6671   -2.1048    1.3889 H   0  0  0  0  0  0  0  0  0  0  0  0
  1  2  1  0
  1 24  1  0
  1 25  1  0
  1 26  1  0
  2  3  1  0
  3 22  1  0
  3  4  1  0
  3 27  1  1
  4  5  1  0
  4 28  1  0
  4 29  1  0
  5 14  1  0
  5 23  1  0
  5  6  1  6
  6  7  1  0
  7  8  1  0
  7  9  1  0
  7 10  1  0
  8 30  1  0
  8 31  1  0
  8 32  1  0
  9 33  1  0
  9 34  1  0
  9 35  1  0
 10 23  1  0
 10 11  1  0
 10 36  1  6
 11 12  1  0
 11 37  1  0
 11 38  1  0
 12 13  1  6
 12 14  1  0
 12 23  1  0
 13 39  1  0
 13 40  1  0
 13 41  1  0
 14 15  1  0
 14 42  1  6
 15 16  1  0
 15 43  1  0
 15 44  1  0
 16 22  1  0
 16 17  1  0
 16 45  1  1
 17 22  1  0
 17 18  2  0
 18 19  1  0
 18 46  1  0
 19 20  1  0
 19 21  1  0
 19 47  1  6
 20 48  1  0
 20 49  1  0
 20 50  1  0
 22 21  1  6
 23 51  1  1
M  END
>  <i_m_ct_stereo_status>  (120) 
1

>  <s_m_source_file>  (120) 
/var/tmp/pbs.5076255.sched01/tmp9vbryffn/46pprzbbw9.sdf

>  <i_m_source_file_index>  (120) 
6

>  <i_lp_mmshare_version>  (120) 
48012

>  <i_f3d_flags>  (120) 
0

>  <s_epik_input>  (120) 
W0NIM11bQ0BASF0oTzEpW0NIXT1DMkMxKFtDQEBIXShbQ0gyXTMpT1tDSDNdKVtDSF0yW0NIMl1bQ0BASF0oW0NAXTM0NSlbQ0BdNihbQ0gzXSlbQ0BIXTVbQ0BASF0oW0NIMl02KUMoTzQpKFtDSDNdKVtDSDNd

>  <s_epik_cmdline>  (120) 
J2VwaWtfcHl0aG9uJywgJy1waHQnLCAnMi4wJywgJy1waCcsICc3LjAnLCAnLXRuJywgJzgnLCAnLW1hJywgJzIwMCcsICctaW1hZScsICc8aW5maWxlLm1hZT4nLCAnLW9tYWUnLCAnPG91dGZpbGUubWFlPic=

>  <r_lp_tautomer_probability>  (120) 
1

>  <r_epik_Ionization_Penalty>  (120) 
2.50617e-11

>  <r_epik_Ionization_Penalty_Charging>  (120) 
0

>  <r_epik_Ionization_Penalty_Neutral>  (120) 
2.50617e-11

>  <r_epik_State_Penalty>  (120) 
-0

>  <r_epik_Charging_Adjusted_Penalty>  (120) 
0

>  <i_epik_Tot_Q>  (120) 
0

>  <i_epik_Tot_abs_Q>  (120) 
0

>  <s_lp_Force_Field>  (120) 
OPLS3e

>  <r_lp_Energy>  (120) 
70.7002

>  <b_lp_Chiralities_Consistent>  (120) 
1

>  <s_lp_Variant>  (120) 
33:0-1

>  <s_i_glide_gridfile>  (120) 
pfpi4k_grid

>  <i_i_glide_lignum>  (120) 
6

>  <i_i_glide_rotatable_bonds>  (120) 
1

>  <r_i_docking_score>  (120) 
-2.73749

>  <r_i_glide_ligand_efficiency>  (120) 
-0.119021

>  <r_i_glide_ligand_efficiency_sa>  (120) 
-0.338481

>  <r_i_glide_ligand_efficiency_ln>  (120) 
-0.66195

>  <r_i_glide_gscore>  (120) 
-2.73749

>  <r_i_glide_lipo>  (120) 
-0.662132

>  <r_i_glide_hbond>  (120) 
0

>  <r_i_glide_metal>  (120) 
-0

>  <r_i_glide_rewards>  (120) 
-1.25158

>  <r_i_glide_evdw>  (120) 
-18.0051

>  <r_i_glide_ecoul>  (120) 
0.509873

>  <r_i_glide_erotb>  (120) 
0

>  <r_i_glide_esite>  (120) 
0

>  <r_i_glide_emodel>  (120) 
-17.362

>  <r_i_glide_energy>  (120) 
-17.4953

>  <r_i_glide_einternal>  (120) 
0.0166062

>  <r_i_glide_intrahb_reward>  (120) 
-0

>  <i_i_glide_confnum>  (120) 
2

>  <i_i_glide_posenum>  (120) 
34

>  <r_i_glide_eff_state_penalty>  (120) 
0

>  <ligand_id>  (120) 
33

>  <original_smiles>  (120) 
COC1CC23OC(C)(C)C4CC(C)(C2CC2C5=CC(C)OC512)C43

>  <smiles>  (120) 
[H]C1=C2C3([H])C([H])([H])C4([H])C5(OC(C([H])([H])[H])(C([H])([H])[H])C6([H])C([H])([H])C4(C([H])([H])[H])C65[H])C([H])([H])C([H])(OC([H])([H])[H])C23OC1([H])C([H])([H])[H]

$$$$
33:0:1
     RDKit          3D

 51 56  0  0  1  0  0  0  0  0999 V2000
    2.1804    1.0842    2.0275 C   0  0  0  0  0  0  0  0  0  0  0  0
    2.5385   -0.2839    1.9306 O   0  0  0  0  0  0  0  0  0  0  0  0
    3.9358   -0.5697    2.0289 C   0  0  2  0  0  0  0  0  0  0  0  0
    4.7070   -0.4476    0.6862 C   0  0  0  0  0  0  0  0  0  0  0  0
    4.7386   -1.7845   -0.1345 C   0  0  2  0  0  0  0  0  0  0  0  0
    3.4571   -2.0055   -0.7415 O   0  0  0  0  0  0  0  0  0  0  0  0
    3.5021   -2.0482   -2.1792 C   0  0  0  0  0  0  0  0  0  0  0  0
    2.4519   -3.0428   -2.6908 C   0  0  0  0  0  0  0  0  0  0  0  0
    3.2092   -0.6493   -2.7321 C   0  0  0  0  0  0  0  0  0  0  0  0
    4.9496   -2.4438   -2.4614 C   0  0  2  0  0  0  0  0  0  0  0  0
    5.5022   -3.8478   -2.1460 C   0  0  0  0  0  0  0  0  0  0  0  0
    6.1839   -3.2941   -0.8845 C   0  0  2  0  0  0  0  0  0  0  0  0
    7.6737   -3.5598   -0.7018 C   0  0  0  0  0  0  0  0  0  0  0  0
    5.3178   -3.1756    0.3668 C   0  0  1  0  0  0  0  0  0  0  0  0
    5.9093   -3.4773    1.7793 C   0  0  0  0  0  0  0  0  0  0  0  0
    5.5219   -2.3798    2.7406 C   0  0  2  0  0  0  0  0  0  0  0  0
    4.4693   -2.4694    3.8310 C   0  0  0  0  0  0  0  0  0  0  0  0
    3.5690   -3.1765    4.6241 C   0  0  0  0  0  0  0  0  0  0  0  0
    2.6422   -3.6544    3.4721 C   0  0  1  0  0  0  0  0  0  0  0  0
    1.2385   -3.3046    3.8354 C   0  0  0  0  0  0  0  0  0  0  0  0
    3.0114   -2.9667    2.2537 O   0  0  0  0  0  0  0  0  0  0  0  0
    4.1083   -2.0048    2.4953 C   0  0  1  0  0  0  0  0  0  0  0  0
    5.7109   -1.9018   -1.2817 C   0  0  2  0  0  0  0  0  0  0  0  0
    1.1106    1.1764    1.8427 H   0  0  0  0  0  0  0  0  0  0  0  0
    2.6908    1.7058    1.2945 H   0  0  0  0  0  0  0  0  0  0  0  0
    2.3858    1.4681    3.0284 H   0  0  0  0  0  0  0  0  0  0  0  0
    4.3907    0.0921    2.7804 H   0  0  0  0  0  0  0  0  0  0  0  0
    4.3304    0.4001    0.0956 H   0  0  0  0  0  0  0  0  0  0  0  0
    5.7455   -0.1815    0.9372 H   0  0  0  0  0  0  0  0  0  0  0  0
    2.5632   -3.2321   -3.7644 H   0  0  0  0  0  0  0  0  0  0  0  0
    1.4393   -2.6803   -2.5157 H   0  0  0  0  0  0  0  0  0  0  0  0
    2.5480   -3.9749   -2.1499 H   0  0  0  0  0  0  0  0  0  0  0  0
    3.2273   -0.6264   -3.8154 H   0  0  0  0  0  0  0  0  0  0  0  0
    3.9460    0.0606   -2.3803 H   0  0  0  0  0  0  0  0  0  0  0  0
    2.2247   -0.3089   -2.4153 H   0  0  0  0  0  0  0  0  0  0  0  0
    5.3519   -2.0865   -3.4059 H   0  0  0  0  0  0  0  0  0  0  0  0
    4.7383   -4.6172   -1.9727 H   0  0  0  0  0  0  0  0  0  0  0  0
    6.2092   -4.1415   -2.9082 H   0  0  0  0  0  0  0  0  0  0  0  0
    8.0780   -2.8519    0.0136 H   0  0  0  0  0  0  0  0  0  0  0  0
    8.1966   -3.4410   -1.6480 H   0  0  0  0  0  0  0  0  0  0  0  0
    7.8447   -4.5652   -0.3217 H   0  0  0  0  0  0  0  0  0  0  0  0
    4.4876   -3.8702    0.2458 H   0  0  0  0  0  0  0  0  0  0  0  0
    5.4620   -4.3799    2.1984 H   0  0  0  0  0  0  0  0  0  0  0  0
    7.0169   -3.6362    1.8085 H   0  0  0  0  0  0  0  0  0  0  0  0
    6.1929   -1.5943    2.9882 H   0  0  0  0  0  0  0  0  0  0  0  0
    3.8174   -3.5673    5.5869 H   0  0  0  0  0  0  0  0  0  0  0  0
    2.8218   -4.7016    3.3049 H   0  0  0  0  0  0  0  0  0  0  0  0
    0.8939   -3.8851    4.6971 H   0  0  0  0  0  0  0  0  0  0  0  0
    0.6384   -3.5195    2.9575 H   0  0  0  0  0  0  0  0  0  0  0  0
    1.1830   -2.2306    4.0586 H   0  0  0  0  0  0  0  0  0  0  0  0
    6.3988   -1.0578   -1.4005 H   0  0  0  0  0  0  0  0  0  0  0  0
  1  2  1  0
  1 24  1  0
  1 25  1  0
  1 26  1  0
  2  3  1  0
  3 22  1  0
  3  4  1  0
  3 27  1  1
  4  5  1  0
  4 28  1  0
  4 29  1  0
  5 14  1  0
  5 23  1  0
  5  6  1  6
  6  7  1  0
  7  8  1  0
  7  9  1  0
  7 10  1  0
  8 30  1  0
  8 31  1  0
  8 32  1  0
  9 33  1  0
  9 34  1  0
  9 35  1  0
 10 23  1  0
 10 11  1  0
 10 36  1  6
 11 12  1  0
 11 37  1  0
 11 38  1  0
 12 13  1  1
 12 14  1  0
 12 23  1  0
 13 39  1  0
 13 40  1  0
 13 41  1  0
 14 15  1  0
 14 42  1  6
 15 16  1  0
 15 43  1  0
 15 44  1  0
 16 22  1  0
 16 17  1  0
 16 45  1  1
 17 22  1  0
 17 18  2  0
 18 19  1  0
 18 46  1  0
 19 20  1  0
 19 21  1  0
 19 47  1  6
 20 48  1  0
 20 49  1  0
 20 50  1  0
 22 21  1  6
 23 51  1  6
M  END
>  <i_m_ct_stereo_status>  (121) 
1

>  <s_m_source_file>  (121) 
/var/tmp/pbs.5076255.sched01/tmp9vbryffn/46pprzbbw9.sdf

>  <i_m_source_file_index>  (121) 
6

>  <i_lp_mmshare_version>  (121) 
48012

>  <i_f3d_flags>  (121) 
0

>  <s_epik_input>  (121) 
W0NIM11bQ0BASF0oTzEpW0NIXT1DMkMxKFtDQEBIXShbQ0gyXTMpT1tDSDNdKVtDSF0yW0NIMl1bQ0BASF0oW0NAXTM0NSlbQ0BdNihbQ0gzXSlbQ0BIXTVbQ0BASF0oW0NIMl02KUMoTzQpKFtDSDNdKVtDSDNd

>  <s_epik_cmdline>  (121) 
J2VwaWtfcHl0aG9uJywgJy1waHQnLCAnMi4wJywgJy1waCcsICc3LjAnLCAnLXRuJywgJzgnLCAnLW1hJywgJzIwMCcsICctaW1hZScsICc8aW5maWxlLm1hZT4nLCAnLW9tYWUnLCAnPG91dGZpbGUubWFlPic=

>  <r_lp_tautomer_probability>  (121) 
1

>  <r_epik_Ionization_Penalty>  (121) 
2.50617e-11

>  <r_epik_Ionization_Penalty_Charging>  (121) 
0

>  <r_epik_Ionization_Penalty_Neutral>  (121) 
2.50617e-11

>  <r_epik_State_Penalty>  (121) 
-0

>  <r_epik_Charging_Adjusted_Penalty>  (121) 
0

>  <i_epik_Tot_Q>  (121) 
0

>  <i_epik_Tot_abs_Q>  (121) 
0

>  <s_lp_Force_Field>  (121) 
OPLS3e

>  <r_lp_Energy>  (121) 
70.7002

>  <b_lp_Chiralities_Consistent>  (121) 
1

>  <s_lp_Variant>  (121) 
33:0-1

>  <s_i_glide_gridfile>  (121) 
pfpi4k_grid

>  <i_i_glide_lignum>  (121) 
6

>  <i_i_glide_rotatable_bonds>  (121) 
1

>  <r_i_docking_score>  (121) 
-2.63628

>  <r_i_glide_ligand_efficiency>  (121) 
-0.114621

>  <r_i_glide_ligand_efficiency_sa>  (121) 
-0.325967

>  <r_i_glide_ligand_efficiency_ln>  (121) 
-0.637477

>  <r_i_glide_gscore>  (121) 
-2.63628

>  <r_i_glide_lipo>  (121) 
-0.875359

>  <r_i_glide_hbond>  (121) 
0

>  <r_i_glide_metal>  (121) 
-0

>  <r_i_glide_rewards>  (121) 
-1.25158

>  <r_i_glide_evdw>  (121) 
-19.2242

>  <r_i_glide_ecoul>  (121) 
2.03409

>  <r_i_glide_erotb>  (121) 
0

>  <r_i_glide_esite>  (121) 
0

>  <r_i_glide_emodel>  (121) 
-15.6195

>  <r_i_glide_energy>  (121) 
-17.1901

>  <r_i_glide_einternal>  (121) 
0.544639

>  <r_i_glide_intrahb_reward>  (121) 
-0

>  <i_i_glide_confnum>  (121) 
1

>  <i_i_glide_posenum>  (121) 
17

>  <r_i_glide_eff_state_penalty>  (121) 
0

>  <ligand_id>  (121) 
33

>  <original_smiles>  (121) 
COC1CC23OC(C)(C)C4CC(C)(C2CC2C5=CC(C)OC512)C43

>  <smiles>  (121) 
[H]C1=C2C3([H])C([H])([H])C4([H])C5(OC(C([H])([H])[H])(C([H])([H])[H])C6([H])C([H])([H])C4(C([H])([H])[H])C65[H])C([H])([H])C([H])(OC([H])([H])[H])C23OC1([H])C([H])([H])[H]

$$$$
33:0:2
     RDKit          3D

 51 56  0  0  1  0  0  0  0  0999 V2000
    0.7180   -3.2797    4.1306 C   0  0  0  0  0  0  0  0  0  0  0  0
    1.0824   -4.4665    3.4427 O   0  0  0  0  0  0  0  0  0  0  0  0
    2.3352   -5.0316    3.8166 C   0  0  2  0  0  0  0  0  0  0  0  0
    3.5696   -4.1428    3.4513 C   0  0  0  0  0  0  0  0  0  0  0  0
    4.1164   -4.4004    2.0149 C   0  0  2  0  0  0  0  0  0  0  0  0
    3.2059   -3.8239    1.0483 O   0  0  0  0  0  0  0  0  0  0  0  0
    3.8324   -2.8123    0.2377 C   0  0  0  0  0  0  0  0  0  0  0  0
    3.2727   -2.8906   -1.1912 C   0  0  0  0  0  0  0  0  0  0  0  0
    3.5098   -1.4451    0.8791 C   0  0  0  0  0  0  0  0  0  0  0  0
    5.3240   -3.1329    0.3349 C   0  0  2  0  0  0  0  0  0  0  0  0
    5.9476   -4.3749   -0.3240 C   0  0  0  0  0  0  0  0  0  0  0  0
    5.9657   -5.1102    1.0238 C   0  0  2  0  0  0  0  0  0  0  0  0
    7.2903   -5.6964    1.4993 C   0  0  0  0  0  0  0  0  0  0  0  0
    4.6636   -5.7870    1.4666 C   0  0  1  0  0  0  0  0  0  0  0  0
    4.7011   -7.1280    2.2610 C   0  0  0  0  0  0  0  0  0  0  0  0
    3.7902   -7.0459    3.4710 C   0  0  2  0  0  0  0  0  0  0  0  0
    2.4533   -7.7175    3.6046 C   0  0  0  0  0  0  0  0  0  0  0  0
    1.4585   -8.5728    3.1591 C   0  0  0  0  0  0  0  0  0  0  0  0
    1.1509   -7.8500    1.8224 C   0  0  1  0  0  0  0  0  0  0  0  0
   -0.3271   -7.6115    1.7445 C   0  0  0  0  0  0  0  0  0  0  0  0
    1.8237   -6.5760    1.8352 O   0  0  0  0  0  0  0  0  0  0  0  0
    2.5307   -6.3634    3.1088 C   0  0  1  0  0  0  0  0  0  0  0  0
    5.4701   -3.8224    1.6577 C   0  0  2  0  0  0  0  0  0  0  0  0
   -0.2206   -2.9048    3.7209 H   0  0  0  0  0  0  0  0  0  0  0  0
    1.4305   -2.4677    3.9967 H   0  0  0  0  0  0  0  0  0  0  0  0
    0.5831   -3.4583    5.1993 H   0  0  0  0  0  0  0  0  0  0  0  0
    2.3243   -5.2223    4.8887 H   0  0  0  0  0  0  0  0  0  0  0  0
    3.3920   -3.0726    3.6183 H   0  0  0  0  0  0  0  0  0  0  0  0
    4.3645   -4.3921    4.1711 H   0  0  0  0  0  0  0  0  0  0  0  0
    3.7995   -2.2062   -1.8576 H   0  0  0  0  0  0  0  0  0  0  0  0
    2.2115   -2.6459   -1.2207 H   0  0  0  0  0  0  0  0  0  0  0  0
    3.3660   -3.8934   -1.6001 H   0  0  0  0  0  0  0  0  0  0  0  0
    3.9570   -0.6260    0.3162 H   0  0  0  0  0  0  0  0  0  0  0  0
    3.8913   -1.3824    1.8963 H   0  0  0  0  0  0  0  0  0  0  0  0
    2.4353   -1.2662    0.9178 H   0  0  0  0  0  0  0  0  0  0  0  0
    5.9824   -2.2700    0.2547 H   0  0  0  0  0  0  0  0  0  0  0  0
    5.3227   -4.8568   -1.0886 H   0  0  0  0  0  0  0  0  0  0  0  0
    6.9479   -4.1717   -0.6944 H   0  0  0  0  0  0  0  0  0  0  0  0
    7.2636   -5.8544    2.5745 H   0  0  0  0  0  0  0  0  0  0  0  0
    8.1142   -5.0179    1.2764 H   0  0  0  0  0  0  0  0  0  0  0  0
    7.4800   -6.6556    1.0127 H   0  0  0  0  0  0  0  0  0  0  0  0
    4.0813   -5.9791    0.5629 H   0  0  0  0  0  0  0  0  0  0  0  0
    4.2963   -7.9288    1.6471 H   0  0  0  0  0  0  0  0  0  0  0  0
    5.7191   -7.4568    2.5766 H   0  0  0  0  0  0  0  0  0  0  0  0
    4.2160   -6.8556    4.4295 H   0  0  0  0  0  0  0  0  0  0  0  0
    1.3460   -9.5849    3.4695 H   0  0  0  0  0  0  0  0  0  0  0  0
    1.5466   -8.4157    0.9917 H   0  0  0  0  0  0  0  0  0  0  0  0
   -0.8794   -8.5662    1.6731 H   0  0  0  0  0  0  0  0  0  0  0  0
   -0.5126   -6.9983    0.8654 H   0  0  0  0  0  0  0  0  0  0  0  0
   -0.6569   -7.0758    2.6520 H   0  0  0  0  0  0  0  0  0  0  0  0
    6.0764   -3.3718    2.4438 H   0  0  0  0  0  0  0  0  0  0  0  0
  1  2  1  0
  1 24  1  0
  1 25  1  0
  1 26  1  0
  2  3  1  0
  3 22  1  0
  3  4  1  0
  3 27  1  1
  4  5  1  0
  4 28  1  0
  4 29  1  0
  5 14  1  0
  5 23  1  0
  5  6  1  6
  6  7  1  0
  7  8  1  0
  7  9  1  0
  7 10  1  0
  8 30  1  0
  8 31  1  0
  8 32  1  0
  9 33  1  0
  9 34  1  0
  9 35  1  0
 10 23  1  0
 10 11  1  0
 10 36  1  1
 11 12  1  0
 11 37  1  0
 11 38  1  0
 12 13  1  1
 12 14  1  0
 12 23  1  0
 13 39  1  0
 13 40  1  0
 13 41  1  0
 14 15  1  0
 14 42  1  6
 15 16  1  0
 15 43  1  0
 15 44  1  0
 16 22  1  0
 16 17  1  0
 16 45  1  1
 17 22  1  0
 17 18  2  0
 18 19  1  0
 18 46  1  0
 19 20  1  0
 19 21  1  0
 19 47  1  6
 20 48  1  0
 20 49  1  0
 20 50  1  0
 22 21  1  6
 23 51  1  1
M  END
>  <i_m_ct_stereo_status>  (122) 
1

>  <s_m_source_file>  (122) 
/var/tmp/pbs.5076255.sched01/tmp9vbryffn/46pprzbbw9.sdf

>  <i_m_source_file_index>  (122) 
6

>  <i_lp_mmshare_version>  (122) 
48012

>  <i_f3d_flags>  (122) 
0

>  <s_epik_input>  (122) 
W0NIM11bQ0BASF0oTzEpW0NIXT1DMkMxKFtDQEBIXShbQ0gyXTMpT1tDSDNdKVtDSF0yW0NIMl1bQ0BASF0oW0NAXTM0NSlbQ0BdNihbQ0gzXSlbQ0BIXTVbQ0BASF0oW0NIMl02KUMoTzQpKFtDSDNdKVtDSDNd

>  <s_epik_cmdline>  (122) 
J2VwaWtfcHl0aG9uJywgJy1waHQnLCAnMi4wJywgJy1waCcsICc3LjAnLCAnLXRuJywgJzgnLCAnLW1hJywgJzIwMCcsICctaW1hZScsICc8aW5maWxlLm1hZT4nLCAnLW9tYWUnLCAnPG91dGZpbGUubWFlPic=

>  <r_lp_tautomer_probability>  (122) 
1

>  <r_epik_Ionization_Penalty>  (122) 
2.50617e-11

>  <r_epik_Ionization_Penalty_Charging>  (122) 
0

>  <r_epik_Ionization_Penalty_Neutral>  (122) 
2.50617e-11

>  <r_epik_State_Penalty>  (122) 
-0

>  <r_epik_Charging_Adjusted_Penalty>  (122) 
0

>  <i_epik_Tot_Q>  (122) 
0

>  <i_epik_Tot_abs_Q>  (122) 
0

>  <s_lp_Force_Field>  (122) 
OPLS3e

>  <r_lp_Energy>  (122) 
70.7002

>  <b_lp_Chiralities_Consistent>  (122) 
1

>  <s_lp_Variant>  (122) 
33:0-1

>  <s_i_glide_gridfile>  (122) 
pfpi4k_grid

>  <i_i_glide_lignum>  (122) 
6

>  <i_i_glide_rotatable_bonds>  (122) 
1

>  <r_i_docking_score>  (122) 
-2.11996

>  <r_i_glide_ligand_efficiency>  (122) 
-0.0921723

>  <r_i_glide_ligand_efficiency_sa>  (122) 
-0.262126

>  <r_i_glide_ligand_efficiency_ln>  (122) 
-0.512626

>  <r_i_glide_gscore>  (122) 
-2.11996

>  <r_i_glide_lipo>  (122) 
-0.386166

>  <r_i_glide_hbond>  (122) 
0

>  <r_i_glide_metal>  (122) 
-0

>  <r_i_glide_rewards>  (122) 
-1.25158

>  <r_i_glide_evdw>  (122) 
-16.6754

>  <r_i_glide_ecoul>  (122) 
-0.0321512

>  <r_i_glide_erotb>  (122) 
0

>  <r_i_glide_esite>  (122) 
0

>  <r_i_glide_emodel>  (122) 
-14.1449

>  <r_i_glide_energy>  (122) 
-16.7076

>  <r_i_glide_einternal>  (122) 
0.126976

>  <r_i_glide_intrahb_reward>  (122) 
-0

>  <i_i_glide_confnum>  (122) 
1

>  <i_i_glide_posenum>  (122) 
32

>  <r_i_glide_eff_state_penalty>  (122) 
0

>  <ligand_id>  (122) 
33

>  <original_smiles>  (122) 
COC1CC23OC(C)(C)C4CC(C)(C2CC2C5=CC(C)OC512)C43

>  <smiles>  (122) 
[H]C1=C2C3([H])C([H])([H])C4([H])C5(OC(C([H])([H])[H])(C([H])([H])[H])C6([H])C([H])([H])C4(C([H])([H])[H])C65[H])C([H])([H])C([H])(OC([H])([H])[H])C23OC1([H])C([H])([H])[H]

$$$$
33:1:0
     RDKit          3D

 51 56  0  0  1  0  0  0  0  0999 V2000
    2.2491   -6.0923    0.5046 C   0  0  0  0  0  0  0  0  0  0  0  0
    1.7490   -5.2971    1.5561 O   0  0  0  0  0  0  0  0  0  0  0  0
    2.6598   -4.9141    2.5892 C   0  0  2  0  0  0  0  0  0  0  0  0
    2.9413   -6.1715    3.4920 C   0  0  0  0  0  0  0  0  0  0  0  0
    1.6881   -6.8019    4.1237 C   0  0  2  0  0  0  0  0  0  0  0  0
    0.8187   -7.3771    3.1149 O   0  0  0  0  0  0  0  0  0  0  0  0
    0.6402   -8.7968    3.2820 C   0  0  0  0  0  0  0  0  0  0  0  0
   -0.7455   -9.2052    2.7591 C   0  0  0  0  0  0  0  0  0  0  0  0
    1.7457   -9.5436    2.4915 C   0  0  0  0  0  0  0  0  0  0  0  0
    0.8146   -8.9749    4.7839 C   0  0  2  0  0  0  0  0  0  0  0  0
   -0.1917   -8.3450    5.7688 C   0  0  0  0  0  0  0  0  0  0  0  0
    0.8044   -7.2191    6.1046 C   0  0  2  0  0  0  0  0  0  0  0  0
    1.1679   -7.0340    7.5560 C   0  0  0  0  0  0  0  0  0  0  0  0
    0.9005   -5.9878    5.1557 C   0  0  1  0  0  0  0  0  0  0  0  0
    1.5316   -4.6781    5.6594 C   0  0  0  0  0  0  0  0  0  0  0  0
    1.4084   -3.5881    4.6237 C   0  0  1  0  0  0  0  0  0  0  0  0
    2.7191   -2.9549    4.2384 C   0  0  0  0  0  0  0  0  0  0  0  0
    3.5074   -1.8984    3.9214 C   0  0  0  0  0  0  0  0  0  0  0  0
    2.8302   -1.5011    2.6074 C   0  0  1  0  0  0  0  0  0  0  0  0
    3.8030   -1.3740    1.4602 C   0  0  0  0  0  0  0  0  0  0  0  0
    1.8862   -2.5612    2.2826 O   0  0  0  0  0  0  0  0  0  0  0  0
    1.9903   -3.6869    3.2189 C   0  0  1  0  0  0  0  0  0  0  0  0
    1.7919   -7.9064    5.1676 C   0  0  2  0  0  0  0  0  0  0  0  0
    1.3971   -6.2364   -0.1705 H   0  0  0  0  0  0  0  0  0  0  0  0
    2.5688   -7.0755    0.8321 H   0  0  0  0  0  0  0  0  0  0  0  0
    3.0586   -5.5864   -0.0349 H   0  0  0  0  0  0  0  0  0  0  0  0
    3.6088   -4.5364    2.1862 H   0  0  0  0  0  0  0  0  0  0  0  0
    3.4749   -6.9606    2.9479 H   0  0  0  0  0  0  0  0  0  0  0  0
    3.6631   -5.9167    4.2861 H   0  0  0  0  0  0  0  0  0  0  0  0
   -0.9570  -10.2570    2.9837 H   0  0  0  0  0  0  0  0  0  0  0  0
   -0.8213   -9.0805    1.6804 H   0  0  0  0  0  0  0  0  0  0  0  0
   -1.5426   -8.6084    3.2039 H   0  0  0  0  0  0  0  0  0  0  0  0
    1.6487  -10.6250    2.6008 H   0  0  0  0  0  0  0  0  0  0  0  0
    2.7393   -9.2810    2.8449 H   0  0  0  0  0  0  0  0  0  0  0  0
    1.7084   -9.3267    1.4209 H   0  0  0  0  0  0  0  0  0  0  0  0
    1.1298   -9.9666    5.1082 H   0  0  0  0  0  0  0  0  0  0  0  0
   -1.1135   -7.9821    5.2881 H   0  0  0  0  0  0  0  0  0  0  0  0
   -0.3990   -9.0103    6.5971 H   0  0  0  0  0  0  0  0  0  0  0  0
    2.1076   -6.4863    7.6402 H   0  0  0  0  0  0  0  0  0  0  0  0
    1.2881   -7.9948    8.0606 H   0  0  0  0  0  0  0  0  0  0  0  0
    0.3913   -6.4538    8.0674 H   0  0  0  0  0  0  0  0  0  0  0  0
   -0.0845   -5.7998    4.7489 H   0  0  0  0  0  0  0  0  0  0  0  0
    0.9705   -4.3370    6.5520 H   0  0  0  0  0  0  0  0  0  0  0  0
    2.5551   -4.8133    6.0345 H   0  0  0  0  0  0  0  0  0  0  0  0
    0.5865   -2.8622    4.8075 H   0  0  0  0  0  0  0  0  0  0  0  0
    4.2618   -1.3983    4.5068 H   0  0  0  0  0  0  0  0  0  0  0  0
    2.2653   -0.5779    2.7577 H   0  0  0  0  0  0  0  0  0  0  0  0
    4.5017   -0.5305    1.6048 H   0  0  0  0  0  0  0  0  0  0  0  0
    3.2171   -1.2181    0.5713 H   0  0  0  0  0  0  0  0  0  0  0  0
    4.3763   -2.3077    1.3657 H   0  0  0  0  0  0  0  0  0  0  0  0
    2.7626   -8.1745    5.5821 H   0  0  0  0  0  0  0  0  0  0  0  0
  1  2  1  0
  1 24  1  0
  1 25  1  0
  1 26  1  0
  2  3  1  0
  3 22  1  0
  3  4  1  0
  3 27  1  6
  4  5  1  0
  4 28  1  0
  4 29  1  0
  5 14  1  0
  5 23  1  0
  5  6  1  6
  6  7  1  0
  7  8  1  0
  7  9  1  0
  7 10  1  0
  8 30  1  0
  8 31  1  0
  8 32  1  0
  9 33  1  0
  9 34  1  0
  9 35  1  0
 10 23  1  0
 10 11  1  0
 10 36  1  6
 11 12  1  0
 11 37  1  0
 11 38  1  0
 12 13  1  1
 12 14  1  0
 12 23  1  0
 13 39  1  0
 13 40  1  0
 13 41  1  0
 14 15  1  0
 14 42  1  6
 15 16  1  0
 15 43  1  0
 15 44  1  0
 16 22  1  0
 16 17  1  0
 16 45  1  6
 17 22  1  0
 17 18  2  0
 18 19  1  0
 18 46  1  0
 19 20  1  0
 19 21  1  0
 19 47  1  1
 20 48  1  0
 20 49  1  0
 20 50  1  0
 22 21  1  6
 23 51  1  1
M  END
>  <i_m_ct_stereo_status>  (123) 
1

>  <s_m_source_file>  (123) 
/var/tmp/pbs.5076255.sched01/tmp9vbryffn/46pprzbbw9.sdf

>  <i_m_source_file_index>  (123) 
7

>  <i_lp_mmshare_version>  (123) 
48012

>  <i_f3d_flags>  (123) 
0

>  <s_epik_input>  (123) 
W0NIM11bQ0BASF0oTzEpW0NIXT1DMkMxKFtDQEBIXShbQ0gyXTMpT1tDSDNdKVtDSF0yW0NIMl1bQ0BASF0oW0NAXTM0NSlbQ0BdNihbQ0gzXSlbQ0BIXTVbQ0BASF0oW0NIMl02KUMoTzQpKFtDSDNdKVtDSDNd

>  <s_epik_cmdline>  (123) 
J2VwaWtfcHl0aG9uJywgJy1waHQnLCAnMi4wJywgJy1waCcsICc3LjAnLCAnLXRuJywgJzgnLCAnLW1hJywgJzIwMCcsICctaW1hZScsICc8aW5maWxlLm1hZT4nLCAnLW9tYWUnLCAnPG91dGZpbGUubWFlPic=

>  <r_lp_tautomer_probability>  (123) 
1

>  <r_epik_Ionization_Penalty>  (123) 
2.50617e-11

>  <r_epik_Ionization_Penalty_Charging>  (123) 
0

>  <r_epik_Ionization_Penalty_Neutral>  (123) 
2.50617e-11

>  <r_epik_State_Penalty>  (123) 
-0

>  <r_epik_Charging_Adjusted_Penalty>  (123) 
0

>  <i_epik_Tot_Q>  (123) 
0

>  <i_epik_Tot_abs_Q>  (123) 
0

>  <s_lp_Force_Field>  (123) 
OPLS3e

>  <r_lp_Energy>  (123) 
49.6519

>  <b_lp_Chiralities_Consistent>  (123) 
1

>  <s_lp_Variant>  (123) 
33:0-2

>  <s_i_glide_gridfile>  (123) 
pfpi4k_grid

>  <i_i_glide_lignum>  (123) 
7

>  <i_i_glide_rotatable_bonds>  (123) 
1

>  <r_i_docking_score>  (123) 
-2.18785

>  <r_i_glide_ligand_efficiency>  (123) 
-0.0951239

>  <r_i_glide_ligand_efficiency_sa>  (123) 
-0.27052

>  <r_i_glide_ligand_efficiency_ln>  (123) 
-0.529042

>  <r_i_glide_gscore>  (123) 
-2.18785

>  <r_i_glide_lipo>  (123) 
-0.0954811

>  <r_i_glide_hbond>  (123) 
-0.0689414

>  <r_i_glide_metal>  (123) 
-0

>  <r_i_glide_rewards>  (123) 
-1.25158

>  <r_i_glide_evdw>  (123) 
-14.4969

>  <r_i_glide_ecoul>  (123) 
-0.313339

>  <r_i_glide_erotb>  (123) 
0

>  <r_i_glide_esite>  (123) 
0

>  <r_i_glide_emodel>  (123) 
-13.9144

>  <r_i_glide_energy>  (123) 
-14.8102

>  <r_i_glide_einternal>  (123) 
0.000278639

>  <r_i_glide_intrahb_reward>  (123) 
-0

>  <i_i_glide_confnum>  (123) 
1

>  <i_i_glide_posenum>  (123) 
16

>  <r_i_glide_eff_state_penalty>  (123) 
0

>  <ligand_id>  (123) 
33

>  <original_smiles>  (123) 
COC1CC23OC(C)(C)C4CC(C)(C2CC2C5=CC(C)OC512)C43

>  <smiles>  (123) 
[H]C1=C2C3([H])C([H])([H])C4([H])C5(OC(C([H])([H])[H])(C([H])([H])[H])C6([H])C([H])([H])C4(C([H])([H])[H])C65[H])C([H])([H])C([H])(OC([H])([H])[H])C23OC1([H])C([H])([H])[H]

$$$$
33:1:1
     RDKit          3D

 51 56  0  0  1  0  0  0  0  0999 V2000
    0.6985   -6.3708    0.1198 C   0  0  0  0  0  0  0  0  0  0  0  0
    1.4265   -5.7594    1.1514 O   0  0  0  0  0  0  0  0  0  0  0  0
    2.7752   -6.2086    1.3168 C   0  0  2  0  0  0  0  0  0  0  0  0
    2.7318   -7.6081    2.0421 C   0  0  0  0  0  0  0  0  0  0  0  0
    1.9929   -7.5905    3.3957 C   0  0  2  0  0  0  0  0  0  0  0  0
    0.5815   -7.3244    3.2266 O   0  0  0  0  0  0  0  0  0  0  0  0
   -0.2597   -8.4014    3.6986 C   0  0  0  0  0  0  0  0  0  0  0  0
   -1.6069   -7.8426    4.1730 C   0  0  0  0  0  0  0  0  0  0  0  0
   -0.4857   -9.3948    2.5346 C   0  0  0  0  0  0  0  0  0  0  0  0
    0.6070   -9.0164    4.7982 C   0  0  2  0  0  0  0  0  0  0  0  0
    0.9489   -8.2055    6.0746 C   0  0  0  0  0  0  0  0  0  0  0  0
    2.3719   -7.9440    5.5335 C   0  0  2  0  0  0  0  0  0  0  0  0
    3.5247   -8.3751    6.4380 C   0  0  0  0  0  0  0  0  0  0  0  0
    2.6031   -6.7818    4.5420 C   0  0  1  0  0  0  0  0  0  0  0  0
    4.0209   -6.2025    4.3461 C   0  0  0  0  0  0  0  0  0  0  0  0
    3.9938   -4.9894    3.4359 C   0  0  1  0  0  0  0  0  0  0  0  0
    4.9023   -5.1493    2.2551 C   0  0  0  0  0  0  0  0  0  0  0  0
    5.7969   -4.6230    1.3299 C   0  0  0  0  0  0  0  0  0  0  0  0
    4.8763   -3.5950    0.6606 C   0  0  1  0  0  0  0  0  0  0  0  0
    4.8764   -3.7492   -0.8457 C   0  0  0  0  0  0  0  0  0  0  0  0
    3.5347   -3.8494    1.1494 O   0  0  0  0  0  0  0  0  0  0  0  0
    3.4791   -5.0282    2.0129 C   0  0  1  0  0  0  0  0  0  0  0  0
    2.0193   -8.8051    4.3343 C   0  0  2  0  0  0  0  0  0  0  0  0
   -0.2877   -5.9043    0.0893 H   0  0  0  0  0  0  0  0  0  0  0  0
    0.5586   -7.4385    0.3113 H   0  0  0  0  0  0  0  0  0  0  0  0
    1.2035   -6.1927   -0.8332 H   0  0  0  0  0  0  0  0  0  0  0  0
    3.3264   -6.3161    0.3671 H   0  0  0  0  0  0  0  0  0  0  0  0
    2.2788   -8.3857    1.4236 H   0  0  0  0  0  0  0  0  0  0  0  0
    3.7501   -8.0043    2.1820 H   0  0  0  0  0  0  0  0  0  0  0  0
   -2.2363   -8.6095    4.6350 H   0  0  0  0  0  0  0  0  0  0  0  0
   -2.1882   -7.4317    3.3448 H   0  0  0  0  0  0  0  0  0  0  0  0
   -1.4573   -7.0363    4.8889 H   0  0  0  0  0  0  0  0  0  0  0  0
   -1.1029  -10.2332    2.8622 H   0  0  0  0  0  0  0  0  0  0  0  0
    0.4427   -9.8142    2.1651 H   0  0  0  0  0  0  0  0  0  0  0  0
   -1.0002   -8.9256    1.6897 H   0  0  0  0  0  0  0  0  0  0  0  0
    0.3962  -10.0654    5.0136 H   0  0  0  0  0  0  0  0  0  0  0  0
    0.3555   -7.2958    6.2029 H   0  0  0  0  0  0  0  0  0  0  0  0
    0.9268   -8.8387    6.9534 H   0  0  0  0  0  0  0  0  0  0  0  0
    4.4300   -8.4703    5.8393 H   0  0  0  0  0  0  0  0  0  0  0  0
    3.3149   -9.3313    6.9071 H   0  0  0  0  0  0  0  0  0  0  0  0
    3.6982   -7.6158    7.2042 H   0  0  0  0  0  0  0  0  0  0  0  0
    1.9109   -5.9797    4.7891 H   0  0  0  0  0  0  0  0  0  0  0  0
    4.4017   -5.8630    5.3222 H   0  0  0  0  0  0  0  0  0  0  0  0
    4.7544   -6.9613    4.0437 H   0  0  0  0  0  0  0  0  0  0  0  0
    4.0344   -4.0227    3.9654 H   0  0  0  0  0  0  0  0  0  0  0  0
    6.8258   -4.7907    1.2732 H   0  0  0  0  0  0  0  0  0  0  0  0
    5.1795   -2.6001    0.9700 H   0  0  0  0  0  0  0  0  0  0  0  0
    5.8458   -3.4936   -1.2907 H   0  0  0  0  0  0  0  0  0  0  0  0
    4.1112   -3.0731   -1.2195 H   0  0  0  0  0  0  0  0  0  0  0  0
    4.6083   -4.7743   -1.1140 H   0  0  0  0  0  0  0  0  0  0  0  0
    2.6610   -9.6537    4.1163 H   0  0  0  0  0  0  0  0  0  0  0  0
  1  2  1  0
  1 24  1  0
  1 25  1  0
  1 26  1  0
  2  3  1  0
  3 22  1  0
  3  4  1  0
  3 27  1  6
  4  5  1  0
  4 28  1  0
  4 29  1  0
  5 14  1  0
  5 23  1  0
  5  6  1  6
  6  7  1  0
  7  8  1  0
  7  9  1  0
  7 10  1  0
  8 30  1  0
  8 31  1  0
  8 32  1  0
  9 33  1  0
  9 34  1  0
  9 35  1  0
 10 23  1  0
 10 11  1  0
 10 36  1  1
 11 12  1  0
 11 37  1  0
 11 38  1  0
 12 13  1  1
 12 14  1  0
 12 23  1  0
 13 39  1  0
 13 40  1  0
 13 41  1  0
 14 15  1  0
 14 42  1  1
 15 16  1  0
 15 43  1  0
 15 44  1  0
 16 22  1  0
 16 17  1  0
 16 45  1  1
 17 22  1  0
 17 18  2  0
 18 19  1  0
 18 46  1  0
 19 20  1  0
 19 21  1  0
 19 47  1  6
 20 48  1  0
 20 49  1  0
 20 50  1  0
 22 21  1  6
 23 51  1  6
M  END
>  <i_m_ct_stereo_status>  (124) 
1

>  <s_m_source_file>  (124) 
/var/tmp/pbs.5076255.sched01/tmp9vbryffn/46pprzbbw9.sdf

>  <i_m_source_file_index>  (124) 
7

>  <i_lp_mmshare_version>  (124) 
48012

>  <i_f3d_flags>  (124) 
0

>  <s_epik_input>  (124) 
W0NIM11bQ0BASF0oTzEpW0NIXT1DMkMxKFtDQEBIXShbQ0gyXTMpT1tDSDNdKVtDSF0yW0NIMl1bQ0BASF0oW0NAXTM0NSlbQ0BdNihbQ0gzXSlbQ0BIXTVbQ0BASF0oW0NIMl02KUMoTzQpKFtDSDNdKVtDSDNd

>  <s_epik_cmdline>  (124) 
J2VwaWtfcHl0aG9uJywgJy1waHQnLCAnMi4wJywgJy1waCcsICc3LjAnLCAnLXRuJywgJzgnLCAnLW1hJywgJzIwMCcsICctaW1hZScsICc8aW5maWxlLm1hZT4nLCAnLW9tYWUnLCAnPG91dGZpbGUubWFlPic=

>  <r_lp_tautomer_probability>  (124) 
1

>  <r_epik_Ionization_Penalty>  (124) 
2.50617e-11

>  <r_epik_Ionization_Penalty_Charging>  (124) 
0

>  <r_epik_Ionization_Penalty_Neutral>  (124) 
2.50617e-11

>  <r_epik_State_Penalty>  (124) 
-0

>  <r_epik_Charging_Adjusted_Penalty>  (124) 
0

>  <i_epik_Tot_Q>  (124) 
0

>  <i_epik_Tot_abs_Q>  (124) 
0

>  <s_lp_Force_Field>  (124) 
OPLS3e

>  <r_lp_Energy>  (124) 
49.6519

>  <b_lp_Chiralities_Consistent>  (124) 
1

>  <s_lp_Variant>  (124) 
33:0-2

>  <s_i_glide_gridfile>  (124) 
pfpi4k_grid

>  <i_i_glide_lignum>  (124) 
7

>  <i_i_glide_rotatable_bonds>  (124) 
1

>  <r_i_docking_score>  (124) 
-2.0135

>  <r_i_glide_ligand_efficiency>  (124) 
-0.0875435

>  <r_i_glide_ligand_efficiency_sa>  (124) 
-0.248962

>  <r_i_glide_ligand_efficiency_ln>  (124) 
-0.486883

>  <r_i_glide_gscore>  (124) 
-2.0135

>  <r_i_glide_lipo>  (124) 
-0.203989

>  <r_i_glide_hbond>  (124) 
-0.139803

>  <r_i_glide_metal>  (124) 
-0

>  <r_i_glide_rewards>  (124) 
-1.25158

>  <r_i_glide_evdw>  (124) 
-16.1761

>  <r_i_glide_ecoul>  (124) 
-0.435998

>  <r_i_glide_erotb>  (124) 
0

>  <r_i_glide_esite>  (124) 
0

>  <r_i_glide_emodel>  (124) 
-14.2608

>  <r_i_glide_energy>  (124) 
-16.6121

>  <r_i_glide_einternal>  (124) 
0.0205037

>  <r_i_glide_intrahb_reward>  (124) 
-0

>  <i_i_glide_confnum>  (124) 
2

>  <i_i_glide_posenum>  (124) 
39

>  <r_i_glide_eff_state_penalty>  (124) 
0

>  <ligand_id>  (124) 
33

>  <original_smiles>  (124) 
COC1CC23OC(C)(C)C4CC(C)(C2CC2C5=CC(C)OC512)C43

>  <smiles>  (124) 
[H]C1=C2C3([H])C([H])([H])C4([H])C5(OC(C([H])([H])[H])(C([H])([H])[H])C6([H])C([H])([H])C4(C([H])([H])[H])C65[H])C([H])([H])C([H])(OC([H])([H])[H])C23OC1([H])C([H])([H])[H]

$$$$
33:1:2
     RDKit          3D

 51 56  0  0  1  0  0  0  0  0999 V2000
    1.8483   -3.7066   -1.4535 C   0  0  0  0  0  0  0  0  0  0  0  0
    2.2107   -4.3628   -0.2437 O   0  0  0  0  0  0  0  0  0  0  0  0
    3.5532   -4.1550    0.1863 C   0  0  2  0  0  0  0  0  0  0  0  0
    3.8649   -5.4322    1.0586 C   0  0  0  0  0  0  0  0  0  0  0  0
    3.0019   -5.5750    2.3238 C   0  0  2  0  0  0  0  0  0  0  0  0
    1.6089   -5.8076    2.0011 O   0  0  0  0  0  0  0  0  0  0  0  0
    1.1280   -7.0664    2.5068 C   0  0  0  0  0  0  0  0  0  0  0  0
   -0.3801   -6.9664    2.7813 C   0  0  0  0  0  0  0  0  0  0  0  0
    1.3970   -8.1453    1.4459 C   0  0  0  0  0  0  0  0  0  0  0  0
    1.9817   -7.2747    3.7453 C   0  0  2  0  0  0  0  0  0  0  0  0
    1.8734   -6.3098    4.9444 C   0  0  0  0  0  0  0  0  0  0  0  0
    3.1824   -5.6268    4.5184 C   0  0  2  0  0  0  0  0  0  0  0  0
    4.2871   -5.5724    5.5727 C   0  0  0  0  0  0  0  0  0  0  0  0
    3.1706   -4.5294    3.4350 C   0  0  1  0  0  0  0  0  0  0  0  0
    4.3298   -3.5241    3.3191 C   0  0  0  0  0  0  0  0  0  0  0  0
    4.0548   -2.4732    2.2964 C   0  0  1  0  0  0  0  0  0  0  0  0
    5.0841   -2.3695    1.2059 C   0  0  0  0  0  0  0  0  0  0  0  0
    5.9279   -1.6754    0.3480 C   0  0  0  0  0  0  0  0  0  0  0  0
    4.7758   -1.0424   -0.5088 C   0  0  1  0  0  0  0  0  0  0  0  0
    4.9896   -1.3245   -1.9709 C   0  0  0  0  0  0  0  0  0  0  0  0
    3.5306   -1.6273   -0.0760 O   0  0  0  0  0  0  0  0  0  0  0  0
    3.7259   -2.7546    0.8365 C   0  0  1  0  0  0  0  0  0  0  0  0
    3.2834   -6.6247    3.3960 C   0  0  2  0  0  0  0  0  0  0  0  0
    0.7571   -3.7044   -1.5414 H   0  0  0  0  0  0  0  0  0  0  0  0
    2.2690   -4.2387   -2.2884 H   0  0  0  0  0  0  0  0  0  0  0  0
    2.2104   -2.6875   -1.5859 H   0  0  0  0  0  0  0  0  0  0  0  0
    4.2338   -4.1718   -0.6719 H   0  0  0  0  0  0  0  0  0  0  0  0
    3.7403   -6.3417    0.4568 H   0  0  0  0  0  0  0  0  0  0  0  0
    4.9291   -5.4609    1.3315 H   0  0  0  0  0  0  0  0  0  0  0  0
   -0.7531   -7.8650    3.2751 H   0  0  0  0  0  0  0  0  0  0  0  0
   -0.9520   -6.8400    1.8601 H   0  0  0  0  0  0  0  0  0  0  0  0
   -0.5842   -6.1276    3.4392 H   0  0  0  0  0  0  0  0  0  0  0  0
    1.0135   -9.1201    1.7613 H   0  0  0  0  0  0  0  0  0  0  0  0
    2.4606   -8.2809    1.2498 H   0  0  0  0  0  0  0  0  0  0  0  0
    0.9117   -7.8487    0.5137 H   0  0  0  0  0  0  0  0  0  0  0  0
    2.1081   -8.3165    4.0562 H   0  0  0  0  0  0  0  0  0  0  0  0
    1.0057   -5.6393    4.9031 H   0  0  0  0  0  0  0  0  0  0  0  0
    1.9419   -6.8451    5.8858 H   0  0  0  0  0  0  0  0  0  0  0  0
    5.2427   -5.4064    5.0868 H   0  0  0  0  0  0  0  0  0  0  0  0
    4.3386   -6.5087    6.1270 H   0  0  0  0  0  0  0  0  0  0  0  0
    4.1025   -4.7509    6.2610 H   0  0  0  0  0  0  0  0  0  0  0  0
    2.2218   -3.9980    3.5101 H   0  0  0  0  0  0  0  0  0  0  0  0
    4.4431   -3.0083    4.2857 H   0  0  0  0  0  0  0  0  0  0  0  0
    5.3179   -4.0345    3.1763 H   0  0  0  0  0  0  0  0  0  0  0  0
    3.6885   -1.4984    2.7103 H   0  0  0  0  0  0  0  0  0  0  0  0
    6.9610   -1.4673    0.4316 H   0  0  0  0  0  0  0  0  0  0  0  0
    4.7291    0.0189   -0.3077 H   0  0  0  0  0  0  0  0  0  0  0  0
    5.8497   -0.7645   -2.3348 H   0  0  0  0  0  0  0  0  0  0  0  0
    4.0982   -0.9730   -2.4943 H   0  0  0  0  0  0  0  0  0  0  0  0
    5.1165   -2.3962   -2.1606 H   0  0  0  0  0  0  0  0  0  0  0  0
    4.1948   -7.2273    3.3394 H   0  0  0  0  0  0  0  0  0  0  0  0
  1  2  1  0
  1 24  1  0
  1 25  1  0
  1 26  1  0
  2  3  1  0
  3 22  1  0
  3  4  1  0
  3 27  1  6
  4  5  1  0
  4 28  1  0
  4 29  1  0
  5 14  1  0
  5 23  1  0
  5  6  1  6
  6  7  1  0
  7  8  1  0
  7  9  1  0
  7 10  1  0
  8 30  1  0
  8 31  1  0
  8 32  1  0
  9 33  1  0
  9 34  1  0
  9 35  1  0
 10 23  1  0
 10 11  1  0
 10 36  1  1
 11 12  1  0
 11 37  1  0
 11 38  1  0
 12 13  1  1
 12 14  1  0
 12 23  1  0
 13 39  1  0
 13 40  1  0
 13 41  1  0
 14 15  1  0
 14 42  1  1
 15 16  1  0
 15 43  1  0
 15 44  1  0
 16 22  1  0
 16 17  1  0
 16 45  1  1
 17 22  1  0
 17 18  2  0
 18 19  1  0
 18 46  1  0
 19 20  1  0
 19 21  1  0
 19 47  1  6
 20 48  1  0
 20 49  1  0
 20 50  1  0
 22 21  1  6
 23 51  1  6
M  END
>  <i_m_ct_stereo_status>  (125) 
1

>  <s_m_source_file>  (125) 
/var/tmp/pbs.5076255.sched01/tmp9vbryffn/46pprzbbw9.sdf

>  <i_m_source_file_index>  (125) 
7

>  <i_lp_mmshare_version>  (125) 
48012

>  <i_f3d_flags>  (125) 
0

>  <s_epik_input>  (125) 
W0NIM11bQ0BASF0oTzEpW0NIXT1DMkMxKFtDQEBIXShbQ0gyXTMpT1tDSDNdKVtDSF0yW0NIMl1bQ0BASF0oW0NAXTM0NSlbQ0BdNihbQ0gzXSlbQ0BIXTVbQ0BASF0oW0NIMl02KUMoTzQpKFtDSDNdKVtDSDNd

>  <s_epik_cmdline>  (125) 
J2VwaWtfcHl0aG9uJywgJy1waHQnLCAnMi4wJywgJy1waCcsICc3LjAnLCAnLXRuJywgJzgnLCAnLW1hJywgJzIwMCcsICctaW1hZScsICc8aW5maWxlLm1hZT4nLCAnLW9tYWUnLCAnPG91dGZpbGUubWFlPic=

>  <r_lp_tautomer_probability>  (125) 
1

>  <r_epik_Ionization_Penalty>  (125) 
2.50617e-11

>  <r_epik_Ionization_Penalty_Charging>  (125) 
0

>  <r_epik_Ionization_Penalty_Neutral>  (125) 
2.50617e-11

>  <r_epik_State_Penalty>  (125) 
-0

>  <r_epik_Charging_Adjusted_Penalty>  (125) 
0

>  <i_epik_Tot_Q>  (125) 
0

>  <i_epik_Tot_abs_Q>  (125) 
0

>  <s_lp_Force_Field>  (125) 
OPLS3e

>  <r_lp_Energy>  (125) 
49.6519

>  <b_lp_Chiralities_Consistent>  (125) 
1

>  <s_lp_Variant>  (125) 
33:0-2

>  <s_i_glide_gridfile>  (125) 
pfpi4k_grid

>  <i_i_glide_lignum>  (125) 
7

>  <i_i_glide_rotatable_bonds>  (125) 
1

>  <r_i_docking_score>  (125) 
-1.92678

>  <r_i_glide_ligand_efficiency>  (125) 
-0.083773

>  <r_i_glide_ligand_efficiency_sa>  (125) 
-0.238239

>  <r_i_glide_ligand_efficiency_ln>  (125) 
-0.465912

>  <r_i_glide_gscore>  (125) 
-1.92678

>  <r_i_glide_lipo>  (125) 
-0.142366

>  <r_i_glide_hbond>  (125) 
-0.00815316

>  <r_i_glide_metal>  (125) 
-0

>  <r_i_glide_rewards>  (125) 
-1.25158

>  <r_i_glide_evdw>  (125) 
-16.1856

>  <r_i_glide_ecoul>  (125) 
-0.669231

>  <r_i_glide_erotb>  (125) 
0

>  <r_i_glide_esite>  (125) 
0

>  <r_i_glide_emodel>  (125) 
-14.1715

>  <r_i_glide_energy>  (125) 
-16.8549

>  <r_i_glide_einternal>  (125) 
0.808246

>  <r_i_glide_intrahb_reward>  (125) 
-0

>  <i_i_glide_confnum>  (125) 
2

>  <i_i_glide_posenum>  (125) 
17

>  <r_i_glide_eff_state_penalty>  (125) 
0

>  <ligand_id>  (125) 
33

>  <original_smiles>  (125) 
COC1CC23OC(C)(C)C4CC(C)(C2CC2C5=CC(C)OC512)C43

>  <smiles>  (125) 
[H]C1=C2C3([H])C([H])([H])C4([H])C5(OC(C([H])([H])[H])(C([H])([H])[H])C6([H])C([H])([H])C4(C([H])([H])[H])C65[H])C([H])([H])C([H])(OC([H])([H])[H])C23OC1([H])C([H])([H])[H]

$$$$
33:2:0
     RDKit          3D

 51 56  0  0  1  0  0  0  0  0999 V2000
    1.8292   -6.7859    2.6214 C   0  0  0  0  0  0  0  0  0  0  0  0
    2.8708   -6.0239    2.0407 O   0  0  0  0  0  0  0  0  0  0  0  0
    4.1063   -5.9874    2.7415 C   0  0  2  0  0  0  0  0  0  0  0  0
    4.8078   -4.6147    2.5101 C   0  0  0  0  0  0  0  0  0  0  0  0
    5.1100   -4.2761    1.0525 C   0  0  2  0  0  0  0  0  0  0  0  0
    3.8901   -4.0902    0.2825 O   0  0  0  0  0  0  0  0  0  0  0  0
    3.7951   -2.7814   -0.2934 C   0  0  0  0  0  0  0  0  0  0  0  0
    3.0392   -2.8818   -1.6252 C   0  0  0  0  0  0  0  0  0  0  0  0
    3.0343   -1.8735    0.7012 C   0  0  0  0  0  0  0  0  0  0  0  0
    5.2533   -2.3524   -0.4357 C   0  0  2  0  0  0  0  0  0  0  0  0
    6.2047   -3.0886   -1.4118 C   0  0  0  0  0  0  0  0  0  0  0  0
    6.8505   -3.8508   -0.2374 C   0  0  2  0  0  0  0  0  0  0  0  0
    8.3588   -3.7183   -0.0888 C   0  0  0  0  0  0  0  0  0  0  0  0
    6.1192   -5.1381    0.2703 C   0  0  1  0  0  0  0  0  0  0  0  0
    6.9683   -6.1592    1.0462 C   0  0  0  0  0  0  0  0  0  0  0  0
    6.2972   -7.3180    1.7743 C   0  0  2  0  0  0  0  0  0  0  0  0
    4.9979   -7.9338    1.2962 C   0  0  0  0  0  0  0  0  0  0  0  0
    4.1893   -9.0259    1.0991 C   0  0  0  0  0  0  0  0  0  0  0  0
    3.9867   -9.4313    2.5621 C   0  0  1  0  0  0  0  0  0  0  0  0
    4.6225  -10.7592    2.9740 C   0  0  0  0  0  0  0  0  0  0  0  0
    4.6046   -8.3799    3.3956 O   0  0  0  0  0  0  0  0  0  0  0  0
    5.0075   -7.2401    2.5757 C   0  0  2  0  0  0  0  0  0  0  0  0
    5.9408   -3.0495    0.6901 C   0  0  2  0  0  0  0  0  0  0  0  0
    0.9205   -6.7226    2.0329 H   0  0  0  0  0  0  0  0  0  0  0  0
    1.5748   -6.4207    3.6080 H   0  0  0  0  0  0  0  0  0  0  0  0
    2.1303   -7.8033    2.6822 H   0  0  0  0  0  0  0  0  0  0  0  0
    3.8612   -5.9385    3.8080 H   0  0  0  0  0  0  0  0  0  0  0  0
    4.1777   -3.8249    2.9446 H   0  0  0  0  0  0  0  0  0  0  0  0
    5.7370   -4.6119    3.0977 H   0  0  0  0  0  0  0  0  0  0  0  0
    3.0460   -1.9300   -2.1557 H   0  0  0  0  0  0  0  0  0  0  0  0
    1.9952   -3.1607   -1.4687 H   0  0  0  0  0  0  0  0  0  0  0  0
    3.4773   -3.6368   -2.2746 H   0  0  0  0  0  0  0  0  0  0  0  0
    2.9526   -0.8552    0.3165 H   0  0  0  0  0  0  0  0  0  0  0  0
    3.5377   -1.8124    1.6641 H   0  0  0  0  0  0  0  0  0  0  0  0
    2.0230   -2.2386    0.8942 H   0  0  0  0  0  0  0  0  0  0  0  0
    5.4231   -1.2735   -0.4347 H   0  0  0  0  0  0  0  0  0  0  0  0
    5.7032   -3.7613   -2.1050 H   0  0  0  0  0  0  0  0  0  0  0  0
    6.8899   -2.4136   -1.9187 H   0  0  0  0  0  0  0  0  0  0  0  0
    8.6866   -3.9587    0.9263 H   0  0  0  0  0  0  0  0  0  0  0  0
    8.7136   -2.7092   -0.3075 H   0  0  0  0  0  0  0  0  0  0  0  0
    8.8747   -4.4054   -0.7687 H   0  0  0  0  0  0  0  0  0  0  0  0
    5.6044   -5.6038   -0.5672 H   0  0  0  0  0  0  0  0  0  0  0  0
    7.7418   -6.5436    0.3712 H   0  0  0  0  0  0  0  0  0  0  0  0
    7.5296   -5.6283    1.8156 H   0  0  0  0  0  0  0  0  0  0  0  0
    7.0385   -8.1113    2.0335 H   0  0  0  0  0  0  0  0  0  0  0  0
    3.8070   -9.4392    0.1855 H   0  0  0  0  0  0  0  0  0  0  0  0
    2.9223   -9.5180    2.7524 H   0  0  0  0  0  0  0  0  0  0  0  0
    4.0991  -11.5918    2.4772 H   0  0  0  0  0  0  0  0  0  0  0  0
    4.4412  -10.8825    4.0373 H   0  0  0  0  0  0  0  0  0  0  0  0
    5.7076  -10.8520    2.7849 H   0  0  0  0  0  0  0  0  0  0  0  0
    6.3993   -2.4686    1.4993 H   0  0  0  0  0  0  0  0  0  0  0  0
  1  2  1  0
  1 24  1  0
  1 25  1  0
  1 26  1  0
  2  3  1  0
  3 22  1  0
  3  4  1  0
  3 27  1  1
  4  5  1  0
  4 28  1  0
  4 29  1  0
  5 14  1  0
  5 23  1  0
  5  6  1  6
  6  7  1  0
  7  8  1  0
  7  9  1  0
  7 10  1  0
  8 30  1  0
  8 31  1  0
  8 32  1  0
  9 33  1  0
  9 34  1  0
  9 35  1  0
 10 23  1  0
 10 11  1  0
 10 36  1  1
 11 12  1  0
 11 37  1  0
 11 38  1  0
 12 13  1  1
 12 14  1  0
 12 23  1  0
 13 39  1  0
 13 40  1  0
 13 41  1  0
 14 15  1  0
 14 42  1  6
 15 16  1  0
 15 43  1  0
 15 44  1  0
 16 22  1  0
 16 17  1  0
 16 45  1  1
 17 22  1  0
 17 18  2  0
 18 19  1  0
 18 46  1  0
 19 20  1  0
 19 21  1  0
 19 47  1  1
 20 48  1  0
 20 49  1  0
 20 50  1  0
 22 21  1  1
 23 51  1  1
M  END
>  <i_m_ct_stereo_status>  (126) 
1

>  <s_m_source_file>  (126) 
/var/tmp/pbs.5076255.sched01/tmp9vbryffn/46pprzbbw9.sdf

>  <i_m_source_file_index>  (126) 
8

>  <i_lp_mmshare_version>  (126) 
48012

>  <i_f3d_flags>  (126) 
0

>  <s_epik_input>  (126) 
W0NIM11bQ0BASF0oTzEpW0NIXT1DMkMxKFtDQEBIXShbQ0gyXTMpT1tDSDNdKVtDSF0yW0NIMl1bQ0BASF0oW0NAXTM0NSlbQ0BdNihbQ0gzXSlbQ0BIXTVbQ0BASF0oW0NIMl02KUMoTzQpKFtDSDNdKVtDSDNd

>  <s_epik_cmdline>  (126) 
J2VwaWtfcHl0aG9uJywgJy1waHQnLCAnMi4wJywgJy1waCcsICc3LjAnLCAnLXRuJywgJzgnLCAnLW1hJywgJzIwMCcsICctaW1hZScsICc8aW5maWxlLm1hZT4nLCAnLW9tYWUnLCAnPG91dGZpbGUubWFlPic=

>  <r_lp_tautomer_probability>  (126) 
1

>  <r_epik_Ionization_Penalty>  (126) 
2.50617e-11

>  <r_epik_Ionization_Penalty_Charging>  (126) 
0

>  <r_epik_Ionization_Penalty_Neutral>  (126) 
2.50617e-11

>  <r_epik_State_Penalty>  (126) 
-0

>  <r_epik_Charging_Adjusted_Penalty>  (126) 
0

>  <i_epik_Tot_Q>  (126) 
0

>  <i_epik_Tot_abs_Q>  (126) 
0

>  <s_lp_Force_Field>  (126) 
OPLS3e

>  <r_lp_Energy>  (126) 
50.1211

>  <b_lp_Chiralities_Consistent>  (126) 
1

>  <s_lp_Variant>  (126) 
33:0-3

>  <s_i_glide_gridfile>  (126) 
pfpi4k_grid

>  <i_i_glide_lignum>  (126) 
8

>  <i_i_glide_rotatable_bonds>  (126) 
1

>  <r_i_docking_score>  (126) 
-2.93808

>  <r_i_glide_ligand_efficiency>  (126) 
-0.127743

>  <r_i_glide_ligand_efficiency_sa>  (126) 
-0.363283

>  <r_i_glide_ligand_efficiency_ln>  (126) 
-0.710455

>  <r_i_glide_gscore>  (126) 
-2.93808

>  <r_i_glide_lipo>  (126) 
-0.738394

>  <r_i_glide_hbond>  (126) 
0

>  <r_i_glide_metal>  (126) 
-0

>  <r_i_glide_rewards>  (126) 
-1.25158

>  <r_i_glide_evdw>  (126) 
-19.6894

>  <r_i_glide_ecoul>  (126) 
0.242422

>  <r_i_glide_erotb>  (126) 
0

>  <r_i_glide_esite>  (126) 
0

>  <r_i_glide_emodel>  (126) 
-20.0696

>  <r_i_glide_energy>  (126) 
-19.4469

>  <r_i_glide_einternal>  (126) 
0.584062

>  <r_i_glide_intrahb_reward>  (126) 
-0

>  <i_i_glide_confnum>  (126) 
2

>  <i_i_glide_posenum>  (126) 
1

>  <r_i_glide_eff_state_penalty>  (126) 
0

>  <ligand_id>  (126) 
33

>  <original_smiles>  (126) 
COC1CC23OC(C)(C)C4CC(C)(C2CC2C5=CC(C)OC512)C43

>  <smiles>  (126) 
[H]C1=C2C3([H])C([H])([H])C4([H])C5(OC(C([H])([H])[H])(C([H])([H])[H])C6([H])C([H])([H])C4(C([H])([H])[H])C65[H])C([H])([H])C([H])(OC([H])([H])[H])C23OC1([H])C([H])([H])[H]

$$$$
33:2:1
     RDKit          3D

 51 56  0  0  1  0  0  0  0  0999 V2000
    2.1539   -4.6647    2.7398 C   0  0  0  0  0  0  0  0  0  0  0  0
    3.1006   -5.5775    2.1693 O   0  0  0  0  0  0  0  0  0  0  0  0
    4.3944   -5.5225    2.7747 C   0  0  2  0  0  0  0  0  0  0  0  0
    5.1478   -4.2034    2.4333 C   0  0  0  0  0  0  0  0  0  0  0  0
    5.3675   -3.9544    0.9362 C   0  0  2  0  0  0  0  0  0  0  0  0
    4.1221   -3.7272    0.2509 O   0  0  0  0  0  0  0  0  0  0  0  0
    4.0731   -2.4355   -0.3817 C   0  0  0  0  0  0  0  0  0  0  0  0
    3.2307   -2.5394   -1.6611 C   0  0  0  0  0  0  0  0  0  0  0  0
    3.4335   -1.4393    0.6129 C   0  0  0  0  0  0  0  0  0  0  0  0
    5.5445   -2.1123   -0.6395 C   0  0  2  0  0  0  0  0  0  0  0  0
    6.3781   -2.9453   -1.6302 C   0  0  0  0  0  0  0  0  0  0  0  0
    7.0393   -3.7028   -0.4715 C   0  0  2  0  0  0  0  0  0  0  0  0
    8.5726   -3.6769   -0.4190 C   0  0  0  0  0  0  0  0  0  0  0  0
    6.2681   -4.9103    0.1372 C   0  0  1  0  0  0  0  0  0  0  0  0
    7.0986   -5.9666    0.9042 C   0  0  0  0  0  0  0  0  0  0  0  0
    6.4073   -7.0529    1.7302 C   0  0  2  0  0  0  0  0  0  0  0  0
    5.0531   -7.5630    1.3402 C   0  0  0  0  0  0  0  0  0  0  0  0
    4.1325   -8.6067    1.2674 C   0  0  0  0  0  0  0  0  0  0  0  0
    3.9645   -8.8712    2.7796 C   0  0  1  0  0  0  0  0  0  0  0  0
    4.4816  -10.2553    3.1870 C   0  0  0  0  0  0  0  0  0  0  0  0
    4.7518   -7.8959    3.5125 O   0  0  0  0  0  0  0  0  0  0  0  0
    5.1888   -6.8358    2.6178 C   0  0  2  0  0  0  0  0  0  0  0  0
    6.2587   -2.8121    0.4760 C   0  0  2  0  0  0  0  0  0  0  0  0
    1.1737   -4.7634    2.2877 H   0  0  0  0  0  0  0  0  0  0  0  0
    2.4361   -3.6207    2.6252 H   0  0  0  0  0  0  0  0  0  0  0  0
    2.0148   -4.8405    3.8038 H   0  0  0  0  0  0  0  0  0  0  0  0
    4.1997   -5.4479    3.8298 H   0  0  0  0  0  0  0  0  0  0  0  0
    4.6248   -3.3425    2.8756 H   0  0  0  0  0  0  0  0  0  0  0  0
    6.1019   -4.2590    2.9532 H   0  0  0  0  0  0  0  0  0  0  0  0
    3.2599   -1.6097   -2.2286 H   0  0  0  0  0  0  0  0  0  0  0  0
    2.1902   -2.7451   -1.4233 H   0  0  0  0  0  0  0  0  0  0  0  0
    3.5761   -3.3460   -2.3058 H   0  0  0  0  0  0  0  0  0  0  0  0
    3.3894   -0.4351    0.1925 H   0  0  0  0  0  0  0  0  0  0  0  0
    4.0015   -1.3750    1.5399 H   0  0  0  0  0  0  0  0  0  0  0  0
    2.4147   -1.7269    0.8736 H   0  0  0  0  0  0  0  0  0  0  0  0
    5.7855   -1.0484   -0.6878 H   0  0  0  0  0  0  0  0  0  0  0  0
    5.7905   -3.6137   -2.2655 H   0  0  0  0  0  0  0  0  0  0  0  0
    7.0812   -2.3407   -2.2078 H   0  0  0  0  0  0  0  0  0  0  0  0
    8.9332   -3.8916    0.5824 H   0  0  0  0  0  0  0  0  0  0  0  0
    8.9728   -2.6971   -0.7040 H   0  0  0  0  0  0  0  0  0  0  0  0
    8.9955   -4.4132   -1.0952 H   0  0  0  0  0  0  0  0  0  0  0  0
    5.6645   -5.3767   -0.6312 H   0  0  0  0  0  0  0  0  0  0  0  0
    7.8049   -6.4326    0.1922 H   0  0  0  0  0  0  0  0  0  0  0  0
    7.7480   -5.4412    1.6123 H   0  0  0  0  0  0  0  0  0  0  0  0
    7.1188   -7.8712    1.9779 H   0  0  0  0  0  0  0  0  0  0  0  0
    3.6537   -9.0372    0.3991 H   0  0  0  0  0  0  0  0  0  0  0  0
    2.9110   -8.7421    2.9763 H   0  0  0  0  0  0  0  0  0  0  0  0
    3.9089  -11.0791    2.7339 H   0  0  0  0  0  0  0  0  0  0  0  0
    4.3977  -10.3362    4.2754 H   0  0  0  0  0  0  0  0  0  0  0  0
    5.5421  -10.4060    2.9308 H   0  0  0  0  0  0  0  0  0  0  0  0
    6.8117   -2.2320    1.2162 H   0  0  0  0  0  0  0  0  0  0  0  0
  1  2  1  0
  1 24  1  0
  1 25  1  0
  1 26  1  0
  2  3  1  0
  3 22  1  0
  3  4  1  0
  3 27  1  1
  4  5  1  0
  4 28  1  0
  4 29  1  0
  5 14  1  0
  5 23  1  0
  5  6  1  6
  6  7  1  0
  7  8  1  0
  7  9  1  0
  7 10  1  0
  8 30  1  0
  8 31  1  0
  8 32  1  0
  9 33  1  0
  9 34  1  0
  9 35  1  0
 10 23  1  0
 10 11  1  0
 10 36  1  6
 11 12  1  0
 11 37  1  0
 11 38  1  0
 12 13  1  1
 12 14  1  0
 12 23  1  0
 13 39  1  0
 13 40  1  0
 13 41  1  0
 14 15  1  0
 14 42  1  6
 15 16  1  0
 15 43  1  0
 15 44  1  0
 16 22  1  0
 16 17  1  0
 16 45  1  1
 17 22  1  0
 17 18  2  0
 18 19  1  0
 18 46  1  0
 19 20  1  0
 19 21  1  0
 19 47  1  1
 20 48  1  0
 20 49  1  0
 20 50  1  0
 22 21  1  1
 23 51  1  1
M  END
>  <i_m_ct_stereo_status>  (127) 
1

>  <s_m_source_file>  (127) 
/var/tmp/pbs.5076255.sched01/tmp9vbryffn/46pprzbbw9.sdf

>  <i_m_source_file_index>  (127) 
8

>  <i_lp_mmshare_version>  (127) 
48012

>  <i_f3d_flags>  (127) 
0

>  <s_epik_input>  (127) 
W0NIM11bQ0BASF0oTzEpW0NIXT1DMkMxKFtDQEBIXShbQ0gyXTMpT1tDSDNdKVtDSF0yW0NIMl1bQ0BASF0oW0NAXTM0NSlbQ0BdNihbQ0gzXSlbQ0BIXTVbQ0BASF0oW0NIMl02KUMoTzQpKFtDSDNdKVtDSDNd

>  <s_epik_cmdline>  (127) 
J2VwaWtfcHl0aG9uJywgJy1waHQnLCAnMi4wJywgJy1waCcsICc3LjAnLCAnLXRuJywgJzgnLCAnLW1hJywgJzIwMCcsICctaW1hZScsICc8aW5maWxlLm1hZT4nLCAnLW9tYWUnLCAnPG91dGZpbGUubWFlPic=

>  <r_lp_tautomer_probability>  (127) 
1

>  <r_epik_Ionization_Penalty>  (127) 
2.50617e-11

>  <r_epik_Ionization_Penalty_Charging>  (127) 
0

>  <r_epik_Ionization_Penalty_Neutral>  (127) 
2.50617e-11

>  <r_epik_State_Penalty>  (127) 
-0

>  <r_epik_Charging_Adjusted_Penalty>  (127) 
0

>  <i_epik_Tot_Q>  (127) 
0

>  <i_epik_Tot_abs_Q>  (127) 
0

>  <s_lp_Force_Field>  (127) 
OPLS3e

>  <r_lp_Energy>  (127) 
50.1211

>  <b_lp_Chiralities_Consistent>  (127) 
1

>  <s_lp_Variant>  (127) 
33:0-3

>  <s_i_glide_gridfile>  (127) 
pfpi4k_grid

>  <i_i_glide_lignum>  (127) 
8

>  <i_i_glide_rotatable_bonds>  (127) 
1

>  <r_i_docking_score>  (127) 
-2.8382

>  <r_i_glide_ligand_efficiency>  (127) 
-0.1234

>  <r_i_glide_ligand_efficiency_sa>  (127) 
-0.350933

>  <r_i_glide_ligand_efficiency_ln>  (127) 
-0.686302

>  <r_i_glide_gscore>  (127) 
-2.8382

>  <r_i_glide_lipo>  (127) 
-0.611499

>  <r_i_glide_hbond>  (127) 
0

>  <r_i_glide_metal>  (127) 
-0

>  <r_i_glide_rewards>  (127) 
-1.25158

>  <r_i_glide_evdw>  (127) 
-19.3542

>  <r_i_glide_ecoul>  (127) 
-0.0493666

>  <r_i_glide_erotb>  (127) 
0

>  <r_i_glide_esite>  (127) 
0

>  <r_i_glide_emodel>  (127) 
-20.0125

>  <r_i_glide_energy>  (127) 
-19.4036

>  <r_i_glide_einternal>  (127) 
0.0240728

>  <r_i_glide_intrahb_reward>  (127) 
-0

>  <i_i_glide_confnum>  (127) 
1

>  <i_i_glide_posenum>  (127) 
27

>  <r_i_glide_eff_state_penalty>  (127) 
0

>  <ligand_id>  (127) 
33

>  <original_smiles>  (127) 
COC1CC23OC(C)(C)C4CC(C)(C2CC2C5=CC(C)OC512)C43

>  <smiles>  (127) 
[H]C1=C2C3([H])C([H])([H])C4([H])C5(OC(C([H])([H])[H])(C([H])([H])[H])C6([H])C([H])([H])C4(C([H])([H])[H])C65[H])C([H])([H])C([H])(OC([H])([H])[H])C23OC1([H])C([H])([H])[H]

$$$$
33:2:2
     RDKit          3D

 51 56  0  0  1  0  0  0  0  0999 V2000
    0.4038   -6.7010    3.0313 C   0  0  0  0  0  0  0  0  0  0  0  0
    1.5912   -6.0825    2.5532 O   0  0  0  0  0  0  0  0  0  0  0  0
    2.7735   -6.2701    3.3443 C   0  0  2  0  0  0  0  0  0  0  0  0
    3.7240   -5.0530    3.1636 C   0  0  0  0  0  0  0  0  0  0  0  0
    4.1878   -4.8082    1.7235 C   0  0  2  0  0  0  0  0  0  0  0  0
    3.0865   -4.4295    0.8712 O   0  0  0  0  0  0  0  0  0  0  0  0
    3.2772   -3.1310    0.2819 C   0  0  0  0  0  0  0  0  0  0  0  0
    2.6246   -3.1208   -1.1103 C   0  0  0  0  0  0  0  0  0  0  0  0
    2.6156   -2.0781    1.1996 C   0  0  0  0  0  0  0  0  0  0  0  0
    4.7936   -2.9796    0.2514 C   0  0  2  0  0  0  0  0  0  0  0  0
    5.6697   -3.8917   -0.6321 C   0  0  0  0  0  0  0  0  0  0  0  0
    6.0710   -4.7234    0.5883 C   0  0  2  0  0  0  0  0  0  0  0  0
    7.5689   -4.8750    0.8640 C   0  0  0  0  0  0  0  0  0  0  0  0
    5.0952   -5.8545    1.0439 C   0  0  1  0  0  0  0  0  0  0  0  0
    5.6698   -6.9952    1.8887 C   0  0  0  0  0  0  0  0  0  0  0  0
    4.7338   -7.9884    2.5639 C   0  0  2  0  0  0  0  0  0  0  0  0
    3.4086   -8.3861    1.9867 C   0  0  0  0  0  0  0  0  0  0  0  0
    2.4479   -9.3632    1.7366 C   0  0  0  0  0  0  0  0  0  0  0  0
    2.0583   -9.6540    3.2224 C   0  0  1  0  0  0  0  0  0  0  0  0
    2.3885  -11.0703    3.6695 C   0  0  0  0  0  0  0  0  0  0  0  0
    2.7761   -8.7142    4.0812 O   0  0  0  0  0  0  0  0  0  0  0  0
    3.4307   -7.6704    3.2524 C   0  0  2  0  0  0  0  0  0  0  0  0
    5.2499   -3.7676    1.4324 C   0  0  2  0  0  0  0  0  0  0  0  0
   -0.4372   -6.4818    2.3705 H   0  0  0  0  0  0  0  0  0  0  0  0
    0.1336   -6.3107    4.0178 H   0  0  0  0  0  0  0  0  0  0  0  0
    0.5375   -7.7348    3.0786 H   0  0  0  0  0  0  0  0  0  0  0  0
    2.4577   -6.1705    4.3770 H   0  0  0  0  0  0  0  0  0  0  0  0
    3.2150   -4.1551    3.5448 H   0  0  0  0  0  0  0  0  0  0  0  0
    4.5847   -5.2159    3.8196 H   0  0  0  0  0  0  0  0  0  0  0  0
    2.8450   -2.1956   -1.6457 H   0  0  0  0  0  0  0  0  0  0  0  0
    1.5403   -3.2163   -1.0449 H   0  0  0  0  0  0  0  0  0  0  0  0
    2.9797   -3.9476   -1.7152 H   0  0  0  0  0  0  0  0  0  0  0  0
    2.7455   -1.0681    0.8010 H   0  0  0  0  0  0  0  0  0  0  0  0
    3.0427   -2.0875    2.2032 H   0  0  0  0  0  0  0  0  0  0  0  0
    1.5440   -2.2487    1.2976 H   0  0  0  0  0  0  0  0  0  0  0  0
    5.1581   -1.9490    0.2542 H   0  0  0  0  0  0  0  0  0  0  0  0
    5.1080   -4.4850   -1.3606 H   0  0  0  0  0  0  0  0  0  0  0  0
    6.5046   -3.3616   -1.0922 H   0  0  0  0  0  0  0  0  0  0  0  0
    7.7726   -5.1454    1.8947 H   0  0  0  0  0  0  0  0  0  0  0  0
    8.1119   -3.9461    0.6661 H   0  0  0  0  0  0  0  0  0  0  0  0
    8.0017   -5.6542    0.2333 H   0  0  0  0  0  0  0  0  0  0  0  0
    4.5887   -6.2477    0.1588 H   0  0  0  0  0  0  0  0  0  0  0  0
    6.4218   -7.5279    1.2806 H   0  0  0  0  0  0  0  0  0  0  0  0
    6.2511   -6.5503    2.7038 H   0  0  0  0  0  0  0  0  0  0  0  0
    5.3111   -8.8994    2.9048 H   0  0  0  0  0  0  0  0  0  0  0  0
    2.0190   -9.6870    0.8067 H   0  0  0  0  0  0  0  0  0  0  0  0
    0.9847   -9.5333    3.3013 H   0  0  0  0  0  0  0  0  0  0  0  0
    1.7713  -11.7898    3.1119 H   0  0  0  0  0  0  0  0  0  0  0  0
    2.1030  -11.1250    4.7077 H   0  0  0  0  0  0  0  0  0  0  0  0
    3.4618  -11.3487    3.5668 H   0  0  0  0  0  0  0  0  0  0  0  0
    5.7277   -3.2572    2.2721 H   0  0  0  0  0  0  0  0  0  0  0  0
  1  2  1  0
  1 24  1  0
  1 25  1  0
  1 26  1  0
  2  3  1  0
  3 22  1  0
  3  4  1  0
  3 27  1  1
  4  5  1  0
  4 28  1  0
  4 29  1  0
  5 14  1  0
  5 23  1  0
  5  6  1  6
  6  7  1  0
  7  8  1  0
  7  9  1  0
  7 10  1  0
  8 30  1  0
  8 31  1  0
  8 32  1  0
  9 33  1  0
  9 34  1  0
  9 35  1  0
 10 23  1  0
 10 11  1  0
 10 36  1  1
 11 12  1  0
 11 37  1  0
 11 38  1  0
 12 13  1  1
 12 14  1  0
 12 23  1  0
 13 39  1  0
 13 40  1  0
 13 41  1  0
 14 15  1  0
 14 42  1  6
 15 16  1  0
 15 43  1  0
 15 44  1  0
 16 22  1  0
 16 17  1  0
 16 45  1  1
 17 22  1  0
 17 18  2  0
 18 19  1  0
 18 46  1  0
 19 20  1  0
 19 21  1  0
 19 47  1  6
 20 48  1  0
 20 49  1  0
 20 50  1  0
 22 21  1  1
 23 51  1  1
M  END
>  <i_m_ct_stereo_status>  (128) 
1

>  <s_m_source_file>  (128) 
/var/tmp/pbs.5076255.sched01/tmp9vbryffn/46pprzbbw9.sdf

>  <i_m_source_file_index>  (128) 
8

>  <i_lp_mmshare_version>  (128) 
48012

>  <i_f3d_flags>  (128) 
0

>  <s_epik_input>  (128) 
W0NIM11bQ0BASF0oTzEpW0NIXT1DMkMxKFtDQEBIXShbQ0gyXTMpT1tDSDNdKVtDSF0yW0NIMl1bQ0BASF0oW0NAXTM0NSlbQ0BdNihbQ0gzXSlbQ0BIXTVbQ0BASF0oW0NIMl02KUMoTzQpKFtDSDNdKVtDSDNd

>  <s_epik_cmdline>  (128) 
J2VwaWtfcHl0aG9uJywgJy1waHQnLCAnMi4wJywgJy1waCcsICc3LjAnLCAnLXRuJywgJzgnLCAnLW1hJywgJzIwMCcsICctaW1hZScsICc8aW5maWxlLm1hZT4nLCAnLW9tYWUnLCAnPG91dGZpbGUubWFlPic=

>  <r_lp_tautomer_probability>  (128) 
1

>  <r_epik_Ionization_Penalty>  (128) 
2.50617e-11

>  <r_epik_Ionization_Penalty_Charging>  (128) 
0

>  <r_epik_Ionization_Penalty_Neutral>  (128) 
2.50617e-11

>  <r_epik_State_Penalty>  (128) 
-0

>  <r_epik_Charging_Adjusted_Penalty>  (128) 
0

>  <i_epik_Tot_Q>  (128) 
0

>  <i_epik_Tot_abs_Q>  (128) 
0

>  <s_lp_Force_Field>  (128) 
OPLS3e

>  <r_lp_Energy>  (128) 
50.1211

>  <b_lp_Chiralities_Consistent>  (128) 
1

>  <s_lp_Variant>  (128) 
33:0-3

>  <s_i_glide_gridfile>  (128) 
pfpi4k_grid

>  <i_i_glide_lignum>  (128) 
8

>  <i_i_glide_rotatable_bonds>  (128) 
1

>  <r_i_docking_score>  (128) 
-2.68225

>  <r_i_glide_ligand_efficiency>  (128) 
-0.11662

>  <r_i_glide_ligand_efficiency_sa>  (128) 
-0.331651

>  <r_i_glide_ligand_efficiency_ln>  (128) 
-0.648593

>  <r_i_glide_gscore>  (128) 
-2.68225

>  <r_i_glide_lipo>  (128) 
-0.548596

>  <r_i_glide_hbond>  (128) 
0

>  <r_i_glide_metal>  (128) 
-0

>  <r_i_glide_rewards>  (128) 
-1.25158

>  <r_i_glide_evdw>  (128) 
-17.5816

>  <r_i_glide_ecoul>  (128) 
-0.120033

>  <r_i_glide_erotb>  (128) 
0

>  <r_i_glide_esite>  (128) 
0

>  <r_i_glide_emodel>  (128) 
-16.8097

>  <r_i_glide_energy>  (128) 
-17.7016

>  <r_i_glide_einternal>  (128) 
0.615164

>  <r_i_glide_intrahb_reward>  (128) 
-0

>  <i_i_glide_confnum>  (128) 
2

>  <i_i_glide_posenum>  (128) 
21

>  <r_i_glide_eff_state_penalty>  (128) 
0

>  <ligand_id>  (128) 
33

>  <original_smiles>  (128) 
COC1CC23OC(C)(C)C4CC(C)(C2CC2C5=CC(C)OC512)C43

>  <smiles>  (128) 
[H]C1=C2C3([H])C([H])([H])C4([H])C5(OC(C([H])([H])[H])(C([H])([H])[H])C6([H])C([H])([H])C4(C([H])([H])[H])C65[H])C([H])([H])C([H])(OC([H])([H])[H])C23OC1([H])C([H])([H])[H]

$$$$
34:0:0
     RDKit          3D

 28 30  0  0  1  0  0  0  0  0999 V2000
   -5.7401   -6.4472   -4.3279 C   0  0  0  0  0  0  0  0  0  0  0  0
   -6.6618   -6.3207   -5.4431 N   0  0  0  0  0  0  0  0  0  0  0  0
   -7.5902   -5.3033   -5.6832 C   0  0  0  0  0  0  0  0  0  0  0  0
   -7.7275   -4.2587   -4.8254 O   0  0  0  0  0  0  0  0  0  0  0  0
   -8.2518   -5.5393   -6.8220 C   0  0  0  0  0  0  0  0  0  0  0  0
   -9.2051   -4.9773   -7.5686 O   0  0  0  0  0  0  0  0  0  0  0  0
   -9.3405   -5.8769   -8.6763 N   0  0  0  0  0  0  0  0  0  0  0  0
   -8.4750   -6.9168   -8.5360 C   0  0  0  0  0  0  0  0  0  0  0  0
   -8.4213   -8.0037   -9.5824 C   0  0  0  0  0  0  0  0  0  0  0  0
   -8.7542   -9.3770   -9.0379 C   0  0  0  0  0  0  0  0  0  0  0  0
  -10.0162   -9.6738   -8.4864 C   0  0  0  0  0  0  0  0  0  0  0  0
  -10.1858  -10.9750   -7.9782 C   0  0  0  0  0  0  0  0  0  0  0  0
   -9.1980  -11.8925   -8.0367 N   0  0  0  0  0  0  0  0  0  0  0  0
   -8.0563  -11.5074   -8.6022 C   0  0  0  0  0  0  0  0  0  0  0  0
   -7.7831  -10.3115   -9.1143 N   0  0  0  0  0  0  0  0  0  0  0  0
   -7.7888   -6.6593   -7.3191 C   0  0  0  0  0  0  0  0  0  0  0  0
   -6.8106   -7.2046   -6.5381 C   0  0  0  0  0  0  0  0  0  0  0  0
   -6.0448   -8.3220   -6.6490 O   0  0  0  0  0  0  0  0  0  0  0  0
   -6.0025   -5.7500   -3.5319 H   0  0  0  0  0  0  0  0  0  0  0  0
   -4.7249   -6.2423   -4.6711 H   0  0  0  0  0  0  0  0  0  0  0  0
   -5.7813   -7.4544   -3.9240 H   0  0  0  0  0  0  0  0  0  0  0  0
   -7.1131   -4.3883   -4.1219 H   0  0  0  0  0  0  0  0  0  0  0  0
   -9.1428   -7.7946  -10.3700 H   0  0  0  0  0  0  0  0  0  0  0  0
   -7.4513   -8.0178  -10.0855 H   0  0  0  0  0  0  0  0  0  0  0  0
  -10.8104   -8.9426   -8.4327 H   0  0  0  0  0  0  0  0  0  0  0  0
  -11.1184  -11.2824   -7.5207 H   0  0  0  0  0  0  0  0  0  0  0  0
   -7.2655  -12.2397   -8.6515 H   0  0  0  0  0  0  0  0  0  0  0  0
   -5.5124   -8.3752   -5.8651 H   0  0  0  0  0  0  0  0  0  0  0  0
  1  2  1  0
  1 19  1  0
  1 20  1  0
  1 21  1  0
  2 17  1  0
  2  3  1  0
  3  4  1  0
  3  5  2  0
  4 22  1  0
  5 16  1  0
  5  6  1  0
  6  7  1  0
  7  8  2  0
  8  9  1  0
  8 16  1  0
  9 10  1  0
  9 23  1  0
  9 24  1  0
 10 15  1  0
 10 11  2  0
 11 12  1  0
 11 25  1  0
 12 13  2  0
 12 26  1  0
 13 14  1  0
 14 15  2  0
 14 27  1  0
 16 17  2  0
 17 18  1  0
 18 28  1  0
M  END
>  <i_m_ct_stereo_status>  (129) 
1

>  <s_m_source_file>  (129) 
/var/tmp/pbs.5076255.sched01/tmp9vbryffn/46pprzbbw9.sdf

>  <i_m_source_file_index>  (129) 
10

>  <i_lp_mmshare_version>  (129) 
48012

>  <i_f3d_flags>  (129) 
0

>  <s_epik_input>  (129) 
W09IXWMxbihbQ0gzXSljKFtPSF0pYyhjMTIpYyhubzIpW0NIMl1jM1tjSF1bY0hdbltjSF1uMw==

>  <s_epik_cmdline>  (129) 
J2VwaWtfcHl0aG9uJywgJy1waHQnLCAnMi4wJywgJy1waCcsICc3LjAnLCAnLXRuJywgJzgnLCAnLW1hJywgJzIwMCcsICctaW1hZScsICc8aW5maWxlLm1hZT4nLCAnLW9tYWUnLCAnPG91dGZpbGUubWFlPic=

>  <r_lp_tautomer_probability>  (129) 
1

>  <r_epik_Ionization_Penalty>  (129) 
0.132109

>  <r_epik_Ionization_Penalty_Charging>  (129) 
0

>  <r_epik_Ionization_Penalty_Neutral>  (129) 
0.132109

>  <r_epik_State_Penalty>  (129) 
0.114563

>  <r_epik_Charging_Adjusted_Penalty>  (129) 
0.114563

>  <i_epik_Tot_Q>  (129) 
0

>  <i_epik_Tot_abs_Q>  (129) 
0

>  <s_epik_Chemistry_Notes>  (129) 
This compound contains an electron-poor aromatic ring that is susceptible to covalent hydrolysis at low pH, typically resulting in measured values for nitrogen ring protonation that are around two units higher than predicted values.

>  <s_lp_Force_Field>  (129) 
OPLS3e

>  <r_lp_Energy>  (129) 
14.772

>  <b_lp_Chiralities_Consistent>  (129) 
1

>  <s_lp_Variant>  (129) 
34:0-1

>  <s_i_glide_gridfile>  (129) 
pfpi4k_grid

>  <i_i_glide_lignum>  (129) 
10

>  <i_i_glide_rotatable_bonds>  (129) 
4

>  <r_i_docking_score>  (129) 
-5.0601

>  <r_i_glide_ligand_efficiency>  (129) 
-0.281116

>  <r_i_glide_ligand_efficiency_sa>  (129) 
-0.736734

>  <r_i_glide_ligand_efficiency_ln>  (129) 
-1.30067

>  <r_i_glide_gscore>  (129) 
-5.0601

>  <r_i_glide_lipo>  (129) 
-1.59853

>  <r_i_glide_hbond>  (129) 
0

>  <r_i_glide_metal>  (129) 
-0

>  <r_i_glide_rewards>  (129) 
-2.43432

>  <r_i_glide_evdw>  (129) 
-26.0936

>  <r_i_glide_ecoul>  (129) 
-1.98238

>  <r_i_glide_erotb>  (129) 
0.574797

>  <r_i_glide_esite>  (129) 
0

>  <r_i_glide_emodel>  (129) 
-39.5284

>  <r_i_glide_energy>  (129) 
-28.0759

>  <r_i_glide_einternal>  (129) 
0.151378

>  <r_i_glide_intrahb_reward>  (129) 
-0

>  <i_i_glide_confnum>  (129) 
5

>  <i_i_glide_posenum>  (129) 
9

>  <r_i_glide_eff_state_penalty>  (129) 
0

>  <ligand_id>  (129) 
34

>  <original_smiles>  (129) 
Cn1c(O)c2onc(Cc3ccncn3)c2c1O

>  <smiles>  (129) 
[H]Oc1c2onc(C([H])([H])c3nc([H])nc([H])c3[H])c2c(O[H])n1C([H])([H])[H]

$$$$
34:0:1
     RDKit          3D

 28 30  0  0  1  0  0  0  0  0999 V2000
    2.0879   -5.5827    2.9690 C   0  0  0  0  0  0  0  0  0  0  0  0
    3.2022   -5.0139    2.2511 N   0  0  0  0  0  0  0  0  0  0  0  0
    4.3529   -4.4413    2.7926 C   0  0  0  0  0  0  0  0  0  0  0  0
    4.5260   -4.3643    4.1314 O   0  0  0  0  0  0  0  0  0  0  0  0
    5.1637   -4.0271    1.8214 C   0  0  0  0  0  0  0  0  0  0  0  0
    6.3442   -3.4293    1.6801 O   0  0  0  0  0  0  0  0  0  0  0  0
    6.4848   -3.3485    0.2578 N   0  0  0  0  0  0  0  0  0  0  0  0
    5.4039   -3.8717   -0.3704 C   0  0  0  0  0  0  0  0  0  0  0  0
    5.3395   -3.9013   -1.8863 C   0  0  0  0  0  0  0  0  0  0  0  0
    4.5278   -2.7778   -2.4925 C   0  0  0  0  0  0  0  0  0  0  0  0
    3.3797   -3.0569   -3.2483 C   0  0  0  0  0  0  0  0  0  0  0  0
    2.6802   -1.9602   -3.7629 C   0  0  0  0  0  0  0  0  0  0  0  0
    3.1258   -0.7027   -3.5948 N   0  0  0  0  0  0  0  0  0  0  0  0
    4.2176   -0.5463   -2.8521 C   0  0  0  0  0  0  0  0  0  0  0  0
    4.9570   -1.5091   -2.3116 N   0  0  0  0  0  0  0  0  0  0  0  0
    4.5657   -4.3152    0.6832 C   0  0  0  0  0  0  0  0  0  0  0  0
    3.3560   -4.9213    0.8592 C   0  0  0  0  0  0  0  0  0  0  0  0
    2.3812   -5.3817    0.0261 O   0  0  0  0  0  0  0  0  0  0  0  0
    2.1358   -5.3299    4.0293 H   0  0  0  0  0  0  0  0  0  0  0  0
    2.0956   -6.6649    2.8566 H   0  0  0  0  0  0  0  0  0  0  0  0
    1.1576   -5.1955    2.5644 H   0  0  0  0  0  0  0  0  0  0  0  0
    5.3719   -3.9716    4.2792 H   0  0  0  0  0  0  0  0  0  0  0  0
    6.3457   -3.8005   -2.2879 H   0  0  0  0  0  0  0  0  0  0  0  0
    4.9904   -4.8587   -2.2702 H   0  0  0  0  0  0  0  0  0  0  0  0
    3.0268   -4.0625   -3.4174 H   0  0  0  0  0  0  0  0  0  0  0  0
    1.7693   -2.0952   -4.3313 H   0  0  0  0  0  0  0  0  0  0  0  0
    4.5449    0.4666   -2.7218 H   0  0  0  0  0  0  0  0  0  0  0  0
    2.7257   -5.4231   -0.8600 H   0  0  0  0  0  0  0  0  0  0  0  0
  1  2  1  0
  1 19  1  0
  1 20  1  0
  1 21  1  0
  2 17  1  0
  2  3  1  0
  3  4  1  0
  3  5  2  0
  4 22  1  0
  5 16  1  0
  5  6  1  0
  6  7  1  0
  7  8  2  0
  8  9  1  0
  8 16  1  0
  9 10  1  0
  9 23  1  0
  9 24  1  0
 10 15  1  0
 10 11  2  0
 11 12  1  0
 11 25  1  0
 12 13  2  0
 12 26  1  0
 13 14  1  0
 14 15  2  0
 14 27  1  0
 16 17  2  0
 17 18  1  0
 18 28  1  0
M  END
>  <i_m_ct_stereo_status>  (130) 
1

>  <s_m_source_file>  (130) 
/var/tmp/pbs.5076255.sched01/tmp9vbryffn/46pprzbbw9.sdf

>  <i_m_source_file_index>  (130) 
10

>  <i_lp_mmshare_version>  (130) 
48012

>  <i_f3d_flags>  (130) 
0

>  <s_epik_input>  (130) 
W09IXWMxbihbQ0gzXSljKFtPSF0pYyhjMTIpYyhubzIpW0NIMl1jM1tjSF1bY0hdbltjSF1uMw==

>  <s_epik_cmdline>  (130) 
J2VwaWtfcHl0aG9uJywgJy1waHQnLCAnMi4wJywgJy1waCcsICc3LjAnLCAnLXRuJywgJzgnLCAnLW1hJywgJzIwMCcsICctaW1hZScsICc8aW5maWxlLm1hZT4nLCAnLW9tYWUnLCAnPG91dGZpbGUubWFlPic=

>  <r_lp_tautomer_probability>  (130) 
1

>  <r_epik_Ionization_Penalty>  (130) 
0.132109

>  <r_epik_Ionization_Penalty_Charging>  (130) 
0

>  <r_epik_Ionization_Penalty_Neutral>  (130) 
0.132109

>  <r_epik_State_Penalty>  (130) 
0.114563

>  <r_epik_Charging_Adjusted_Penalty>  (130) 
0.114563

>  <i_epik_Tot_Q>  (130) 
0

>  <i_epik_Tot_abs_Q>  (130) 
0

>  <s_epik_Chemistry_Notes>  (130) 
This compound contains an electron-poor aromatic ring that is susceptible to covalent hydrolysis at low pH, typically resulting in measured values for nitrogen ring protonation that are around two units higher than predicted values.

>  <s_lp_Force_Field>  (130) 
OPLS3e

>  <r_lp_Energy>  (130) 
14.772

>  <b_lp_Chiralities_Consistent>  (130) 
1

>  <s_lp_Variant>  (130) 
34:0-1

>  <s_i_glide_gridfile>  (130) 
pfpi4k_grid

>  <i_i_glide_lignum>  (130) 
10

>  <i_i_glide_rotatable_bonds>  (130) 
4

>  <r_i_docking_score>  (130) 
-4.25665

>  <r_i_glide_ligand_efficiency>  (130) 
-0.236481

>  <r_i_glide_ligand_efficiency_sa>  (130) 
-0.619755

>  <r_i_glide_ligand_efficiency_ln>  (130) 
-1.09415

>  <r_i_glide_gscore>  (130) 
-4.25665

>  <r_i_glide_lipo>  (130) 
-0.484884

>  <r_i_glide_hbond>  (130) 
-0.32

>  <r_i_glide_metal>  (130) 
-0

>  <r_i_glide_rewards>  (130) 
-1.93475

>  <r_i_glide_evdw>  (130) 
-21.1219

>  <r_i_glide_ecoul>  (130) 
-6.9048

>  <r_i_glide_erotb>  (130) 
0.574797

>  <r_i_glide_esite>  (130) 
0

>  <r_i_glide_emodel>  (130) 
-37.255

>  <r_i_glide_energy>  (130) 
-28.0267

>  <r_i_glide_einternal>  (130) 
0.20051

>  <r_i_glide_intrahb_reward>  (130) 
-0

>  <i_i_glide_confnum>  (130) 
4

>  <i_i_glide_posenum>  (130) 
4

>  <r_i_glide_eff_state_penalty>  (130) 
0

>  <ligand_id>  (130) 
34

>  <original_smiles>  (130) 
Cn1c(O)c2onc(Cc3ccncn3)c2c1O

>  <smiles>  (130) 
[H]Oc1c2onc(C([H])([H])c3nc([H])nc([H])c3[H])c2c(O[H])n1C([H])([H])[H]

$$$$
34:0:2
     RDKit          3D

 28 30  0  0  1  0  0  0  0  0999 V2000
    2.3029   -6.2291    2.1374 C   0  0  0  0  0  0  0  0  0  0  0  0
    2.6508   -4.8483    1.9773 N   0  0  0  0  0  0  0  0  0  0  0  0
    2.2245   -3.7706    2.7646 C   0  0  0  0  0  0  0  0  0  0  0  0
    1.3844   -3.9466    3.8247 O   0  0  0  0  0  0  0  0  0  0  0  0
    2.7651   -2.6444    2.3003 C   0  0  0  0  0  0  0  0  0  0  0  0
    2.7684   -1.3330    2.6051 O   0  0  0  0  0  0  0  0  0  0  0  0
    3.6261   -0.7683    1.6085 N   0  0  0  0  0  0  0  0  0  0  0  0
    4.0820   -1.7463    0.7755 C   0  0  0  0  0  0  0  0  0  0  0  0
    5.0164   -1.4299   -0.3555 C   0  0  0  0  0  0  0  0  0  0  0  0
    4.5674   -1.9578   -1.6983 C   0  0  0  0  0  0  0  0  0  0  0  0
    3.4224   -1.4577   -2.3506 C   0  0  0  0  0  0  0  0  0  0  0  0
    3.0764   -2.0682   -3.5698 C   0  0  0  0  0  0  0  0  0  0  0  0
    3.8204   -3.0584   -4.0951 N   0  0  0  0  0  0  0  0  0  0  0  0
    4.8772   -3.4540   -3.3879 C   0  0  0  0  0  0  0  0  0  0  0  0
    5.3000   -2.9604   -2.2221 N   0  0  0  0  0  0  0  0  0  0  0  0
    3.4908   -2.9450    1.2577 C   0  0  0  0  0  0  0  0  0  0  0  0
    3.4991   -4.2837    0.9918 C   0  0  0  0  0  0  0  0  0  0  0  0
    4.1482   -5.0387    0.0591 O   0  0  0  0  0  0  0  0  0  0  0  0
    1.4846   -6.3320    2.8413 H   0  0  0  0  0  0  0  0  0  0  0  0
    3.1662   -6.7758    2.4979 H   0  0  0  0  0  0  0  0  0  0  0  0
    2.0015   -6.6378    1.1792 H   0  0  0  0  0  0  0  0  0  0  0  0
    1.3181   -3.0809    4.2006 H   0  0  0  0  0  0  0  0  0  0  0  0
    5.0615   -0.3550   -0.4630 H   0  0  0  0  0  0  0  0  0  0  0  0
    6.0447   -1.7446   -0.1623 H   0  0  0  0  0  0  0  0  0  0  0  0
    2.8055   -0.6742   -1.9307 H   0  0  0  0  0  0  0  0  0  0  0  0
    2.2044   -1.7775   -4.1371 H   0  0  0  0  0  0  0  0  0  0  0  0
    5.4715   -4.2408   -3.8189 H   0  0  0  0  0  0  0  0  0  0  0  0
    4.3631   -4.4721   -0.6747 H   0  0  0  0  0  0  0  0  0  0  0  0
  1  2  1  0
  1 19  1  0
  1 20  1  0
  1 21  1  0
  2 17  1  0
  2  3  1  0
  3  4  1  0
  3  5  2  0
  4 22  1  0
  5 16  1  0
  5  6  1  0
  6  7  1  0
  7  8  2  0
  8  9  1  0
  8 16  1  0
  9 10  1  0
  9 23  1  0
  9 24  1  0
 10 15  1  0
 10 11  2  0
 11 12  1  0
 11 25  1  0
 12 13  2  0
 12 26  1  0
 13 14  1  0
 14 15  2  0
 14 27  1  0
 16 17  2  0
 17 18  1  0
 18 28  1  0
M  END
>  <i_m_ct_stereo_status>  (131) 
1

>  <s_m_source_file>  (131) 
/var/tmp/pbs.5076255.sched01/tmp9vbryffn/46pprzbbw9.sdf

>  <i_m_source_file_index>  (131) 
10

>  <i_lp_mmshare_version>  (131) 
48012

>  <i_f3d_flags>  (131) 
0

>  <s_epik_input>  (131) 
W09IXWMxbihbQ0gzXSljKFtPSF0pYyhjMTIpYyhubzIpW0NIMl1jM1tjSF1bY0hdbltjSF1uMw==

>  <s_epik_cmdline>  (131) 
J2VwaWtfcHl0aG9uJywgJy1waHQnLCAnMi4wJywgJy1waCcsICc3LjAnLCAnLXRuJywgJzgnLCAnLW1hJywgJzIwMCcsICctaW1hZScsICc8aW5maWxlLm1hZT4nLCAnLW9tYWUnLCAnPG91dGZpbGUubWFlPic=

>  <r_lp_tautomer_probability>  (131) 
1

>  <r_epik_Ionization_Penalty>  (131) 
0.132109

>  <r_epik_Ionization_Penalty_Charging>  (131) 
0

>  <r_epik_Ionization_Penalty_Neutral>  (131) 
0.132109

>  <r_epik_State_Penalty>  (131) 
0.114563

>  <r_epik_Charging_Adjusted_Penalty>  (131) 
0.114563

>  <i_epik_Tot_Q>  (131) 
0

>  <i_epik_Tot_abs_Q>  (131) 
0

>  <s_epik_Chemistry_Notes>  (131) 
This compound contains an electron-poor aromatic ring that is susceptible to covalent hydrolysis at low pH, typically resulting in measured values for nitrogen ring protonation that are around two units higher than predicted values.

>  <s_lp_Force_Field>  (131) 
OPLS3e

>  <r_lp_Energy>  (131) 
14.772

>  <b_lp_Chiralities_Consistent>  (131) 
1

>  <s_lp_Variant>  (131) 
34:0-1

>  <s_i_glide_gridfile>  (131) 
pfpi4k_grid

>  <i_i_glide_lignum>  (131) 
10

>  <i_i_glide_rotatable_bonds>  (131) 
4

>  <r_i_docking_score>  (131) 
-3.91714

>  <r_i_glide_ligand_efficiency>  (131) 
-0.217619

>  <r_i_glide_ligand_efficiency_sa>  (131) 
-0.570323

>  <r_i_glide_ligand_efficiency_ln>  (131) 
-1.00688

>  <r_i_glide_gscore>  (131) 
-3.91714

>  <r_i_glide_lipo>  (131) 
-0.22878

>  <r_i_glide_hbond>  (131) 
-0.169511

>  <r_i_glide_metal>  (131) 
-0

>  <r_i_glide_rewards>  (131) 
-2.51623

>  <r_i_glide_evdw>  (131) 
-23.5084

>  <r_i_glide_ecoul>  (131) 
-2.50626

>  <r_i_glide_erotb>  (131) 
0.574797

>  <r_i_glide_esite>  (131) 
-0.0260555

>  <r_i_glide_emodel>  (131) 
-39.574

>  <r_i_glide_energy>  (131) 
-26.0147

>  <r_i_glide_einternal>  (131) 
0.360665

>  <r_i_glide_intrahb_reward>  (131) 
-0.5

>  <i_i_glide_confnum>  (131) 
2

>  <i_i_glide_posenum>  (131) 
26

>  <r_i_glide_eff_state_penalty>  (131) 
0

>  <ligand_id>  (131) 
34

>  <original_smiles>  (131) 
Cn1c(O)c2onc(Cc3ccncn3)c2c1O

>  <smiles>  (131) 
[H]Oc1c2onc(C([H])([H])c3nc([H])nc([H])c3[H])c2c(O[H])n1C([H])([H])[H]

$$$$
34:1:0
     RDKit          3D

 27 29  0  0  1  0  0  0  0  0999 V2000
    3.9416   -1.0975   -4.2430 C   0  0  0  0  0  0  0  0  0  0  0  0
    3.7144   -1.8794   -3.0465 N   0  0  0  0  0  0  0  0  0  0  0  0
    2.7010   -2.8084   -2.8320 C   0  0  0  0  0  0  0  0  0  0  0  0
    1.8178   -3.0627   -3.8231 O   0  0  0  0  0  0  0  0  0  0  0  0
    2.7710   -3.3228   -1.5996 C   0  0  0  0  0  0  0  0  0  0  0  0
    2.1358   -4.1961   -0.8027 O   0  0  0  0  0  0  0  0  0  0  0  0
    2.9356   -4.1354    0.3849 N   0  0  0  0  0  0  0  0  0  0  0  0
    3.9620   -3.2483    0.2606 C   0  0  0  0  0  0  0  0  0  0  0  0
    4.9222   -2.9944    1.4074 C   0  0  0  0  0  0  0  0  0  0  0  0
    6.3505   -3.4262    1.1296 C   0  0  0  0  0  0  0  0  0  0  0  0
    6.8773   -4.6596    1.5751 C   0  0  0  0  0  0  0  0  0  0  0  0
    8.2157   -4.9266    1.2232 C   0  0  0  0  0  0  0  0  0  0  0  0
    8.9487   -4.0712    0.4796 N   0  0  0  0  0  0  0  0  0  0  0  0
    8.3428   -2.9381    0.1243 C   0  0  0  0  0  0  0  0  0  0  0  0
    7.1128   -2.5550    0.4466 N   0  0  0  0  0  0  0  0  0  0  0  0
    3.8108   -2.7582   -1.0380 C   0  0  0  0  0  0  0  0  0  0  0  0
    4.4421   -1.8545   -1.8409 C   0  0  0  0  0  0  0  0  0  0  0  0
    5.4853   -1.0645   -1.6000 O   0  0  0  0  0  0  0  0  0  0  0  0
    3.5522   -1.6390   -5.0949 H   0  0  0  0  0  0  0  0  0  0  0  0
    5.0005   -0.9325   -4.4065 H   0  0  0  0  0  0  0  0  0  0  0  0
    3.4168   -0.1465   -4.1928 H   0  0  0  0  0  0  0  0  0  0  0  0
    1.2344   -3.7475   -3.5150 H   0  0  0  0  0  0  0  0  0  0  0  0
    4.9086   -1.9568    1.7507 H   0  0  0  0  0  0  0  0  0  0  0  0
    4.5918   -3.5620    2.2697 H   0  0  0  0  0  0  0  0  0  0  0  0
    6.3047   -5.3578    2.1701 H   0  0  0  0  0  0  0  0  0  0  0  0
    8.7134   -5.8316    1.5339 H   0  0  0  0  0  0  0  0  0  0  0  0
    8.9095   -2.2269   -0.4528 H   0  0  0  0  0  0  0  0  0  0  0  0
  1  2  1  0
  1 19  1  0
  1 20  1  0
  1 21  1  0
  2 17  1  0
  2  3  1  0
  3  4  1  0
  3  5  2  0
  4 22  1  0
  5 16  1  0
  5  6  1  0
  6  7  1  0
  7  8  2  0
  8  9  1  0
  8 16  1  0
  9 10  1  0
  9 23  1  0
  9 24  1  0
 10 15  1  0
 10 11  2  0
 11 12  1  0
 11 25  1  0
 12 13  2  0
 12 26  1  0
 13 14  1  0
 14 15  2  0
 14 27  1  0
 16 17  2  0
 17 18  1  0
M  CHG  1  18  -1
M  END
>  <i_m_ct_stereo_status>  (132) 
1

>  <s_m_source_file>  (132) 
/var/tmp/pbs.5076255.sched01/tmp9vbryffn/46pprzbbw9.sdf

>  <i_m_source_file_index>  (132) 
11

>  <i_lp_mmshare_version>  (132) 
48012

>  <i_f3d_flags>  (132) 
0

>  <s_epik_input>  (132) 
W09IXWMxbihbQ0gzXSljKFtPSF0pYyhjMTIpYyhubzIpW0NIMl1jM1tjSF1bY0hdbltjSF1uMw==

>  <s_epik_cmdline>  (132) 
J2VwaWtfcHl0aG9uJywgJy1waHQnLCAnMi4wJywgJy1waCcsICc3LjAnLCAnLXRuJywgJzgnLCAnLW1hJywgJzIwMCcsICctaW1hZScsICc8aW5maWxlLm1hZT4nLCAnLW9tYWUnLCAnPG91dGZpbGUubWFlPic=

>  <r_lp_tautomer_probability>  (132) 
1

>  <r_epik_Ionization_Penalty>  (132) 
1.05896

>  <r_epik_Ionization_Penalty_Charging>  (132) 
1.05837

>  <r_epik_Ionization_Penalty_Neutral>  (132) 
0.000587762

>  <r_epik_State_Penalty>  (132) 
1.12797

>  <r_epik_Charging_Adjusted_Penalty>  (132) 
2.18634

>  <i_epik_Tot_Q>  (132) 
-1

>  <i_epik_Tot_abs_Q>  (132) 
1

>  <s_epik_Chemistry_Notes>  (132) 
This compound contains an electron-poor aromatic ring that is susceptible to covalent hydrolysis at low pH, typically resulting in measured values for nitrogen ring protonation that are around two units higher than predicted values.

>  <s_lp_Force_Field>  (132) 
OPLS3e

>  <r_lp_Energy>  (132) 
13.1232

>  <b_lp_Chiralities_Consistent>  (132) 
1

>  <s_lp_Variant>  (132) 
34:0-2

>  <s_i_glide_gridfile>  (132) 
pfpi4k_grid

>  <i_i_glide_lignum>  (132) 
11

>  <i_i_glide_rotatable_bonds>  (132) 
3

>  <r_i_docking_score>  (132) 
-3.6999

>  <r_i_glide_ligand_efficiency>  (132) 
-0.20555

>  <r_i_glide_ligand_efficiency_sa>  (132) 
-0.538693

>  <r_i_glide_ligand_efficiency_ln>  (132) 
-0.95104

>  <r_i_glide_gscore>  (132) 
-3.6999

>  <r_i_glide_lipo>  (132) 
-0.461519

>  <r_i_glide_hbond>  (132) 
-0.0623855

>  <r_i_glide_metal>  (132) 
-0

>  <r_i_glide_rewards>  (132) 
-1.99789

>  <r_i_glide_evdw>  (132) 
-22.7385

>  <r_i_glide_ecoul>  (132) 
-3.54908

>  <r_i_glide_erotb>  (132) 
0.578845

>  <r_i_glide_esite>  (132) 
-0.0876626

>  <r_i_glide_emodel>  (132) 
-33.4233

>  <r_i_glide_energy>  (132) 
-26.2876

>  <r_i_glide_einternal>  (132) 
0.157068

>  <r_i_glide_intrahb_reward>  (132) 
-0

>  <i_i_glide_confnum>  (132) 
1

>  <i_i_glide_posenum>  (132) 
7

>  <r_i_glide_eff_state_penalty>  (132) 
0

>  <ligand_id>  (132) 
34

>  <original_smiles>  (132) 
Cn1c(O)c2onc(Cc3ccncn3)c2c1O

>  <smiles>  (132) 
[H]Oc1c2onc(C([H])([H])c3nc([H])nc([H])c3[H])c2c([O-])n1C([H])([H])[H]

$$$$
34:1:1
     RDKit          3D

 27 29  0  0  1  0  0  0  0  0999 V2000
    6.5478   -6.7890    1.4066 C   0  0  0  0  0  0  0  0  0  0  0  0
    5.1006   -6.6779    1.3048 N   0  0  0  0  0  0  0  0  0  0  0  0
    4.3577   -5.6370    0.7346 C   0  0  0  0  0  0  0  0  0  0  0  0
    4.9885   -4.5624    0.1878 O   0  0  0  0  0  0  0  0  0  0  0  0
    3.0473   -5.8906    0.8320 C   0  0  0  0  0  0  0  0  0  0  0  0
    1.8796   -5.3407    0.4774 O   0  0  0  0  0  0  0  0  0  0  0  0
    0.9058   -6.2791    0.9464 N   0  0  0  0  0  0  0  0  0  0  0  0
    1.5302   -7.3295    1.5479 C   0  0  0  0  0  0  0  0  0  0  0  0
    0.7259   -8.4790    2.1127 C   0  0  0  0  0  0  0  0  0  0  0  0
    0.5359   -8.4187    3.6161 C   0  0  0  0  0  0  0  0  0  0  0  0
    0.8521   -9.5290    4.4188 C   0  0  0  0  0  0  0  0  0  0  0  0
    0.6743   -9.3815    5.8056 C   0  0  0  0  0  0  0  0  0  0  0  0
    0.2258   -8.2255    6.3392 N   0  0  0  0  0  0  0  0  0  0  0  0
   -0.0593   -7.2445    5.4843 C   0  0  0  0  0  0  0  0  0  0  0  0
    0.0457   -7.2774    4.1550 N   0  0  0  0  0  0  0  0  0  0  0  0
    2.9147   -7.0400    1.4443 C   0  0  0  0  0  0  0  0  0  0  0  0
    4.1209   -7.5955    1.7670 C   0  0  0  0  0  0  0  0  0  0  0  0
    4.4326   -8.7507    2.3887 O   0  0  0  0  0  0  0  0  0  0  0  0
    7.0317   -6.2487    0.5938 H   0  0  0  0  0  0  0  0  0  0  0  0
    6.8539   -7.8335    1.3489 H   0  0  0  0  0  0  0  0  0  0  0  0
    6.8823   -6.3730    2.3566 H   0  0  0  0  0  0  0  0  0  0  0  0
    5.9119   -4.7359    0.2659 H   0  0  0  0  0  0  0  0  0  0  0  0
   -0.2709   -8.5023    1.6793 H   0  0  0  0  0  0  0  0  0  0  0  0
    1.1772   -9.4358    1.8466 H   0  0  0  0  0  0  0  0  0  0  0  0
    1.2213  -10.4499    3.9971 H   0  0  0  0  0  0  0  0  0  0  0  0
    0.9160  -10.1861    6.4854 H   0  0  0  0  0  0  0  0  0  0  0  0
   -0.4293   -6.3282    5.9237 H   0  0  0  0  0  0  0  0  0  0  0  0
  1  2  1  0
  1 19  1  0
  1 20  1  0
  1 21  1  0
  2 17  1  0
  2  3  1  0
  3  4  1  0
  3  5  2  0
  4 22  1  0
  5 16  1  0
  5  6  1  0
  6  7  1  0
  7  8  2  0
  8  9  1  0
  8 16  1  0
  9 10  1  0
  9 23  1  0
  9 24  1  0
 10 15  1  0
 10 11  2  0
 11 12  1  0
 11 25  1  0
 12 13  2  0
 12 26  1  0
 13 14  1  0
 14 15  2  0
 14 27  1  0
 16 17  2  0
 17 18  1  0
M  CHG  1  18  -1
M  END
>  <i_m_ct_stereo_status>  (133) 
1

>  <s_m_source_file>  (133) 
/var/tmp/pbs.5076255.sched01/tmp9vbryffn/46pprzbbw9.sdf

>  <i_m_source_file_index>  (133) 
11

>  <i_lp_mmshare_version>  (133) 
48012

>  <i_f3d_flags>  (133) 
0

>  <s_epik_input>  (133) 
W09IXWMxbihbQ0gzXSljKFtPSF0pYyhjMTIpYyhubzIpW0NIMl1jM1tjSF1bY0hdbltjSF1uMw==

>  <s_epik_cmdline>  (133) 
J2VwaWtfcHl0aG9uJywgJy1waHQnLCAnMi4wJywgJy1waCcsICc3LjAnLCAnLXRuJywgJzgnLCAnLW1hJywgJzIwMCcsICctaW1hZScsICc8aW5maWxlLm1hZT4nLCAnLW9tYWUnLCAnPG91dGZpbGUubWFlPic=

>  <r_lp_tautomer_probability>  (133) 
1

>  <r_epik_Ionization_Penalty>  (133) 
1.05896

>  <r_epik_Ionization_Penalty_Charging>  (133) 
1.05837

>  <r_epik_Ionization_Penalty_Neutral>  (133) 
0.000587762

>  <r_epik_State_Penalty>  (133) 
1.12797

>  <r_epik_Charging_Adjusted_Penalty>  (133) 
2.18634

>  <i_epik_Tot_Q>  (133) 
-1

>  <i_epik_Tot_abs_Q>  (133) 
1

>  <s_epik_Chemistry_Notes>  (133) 
This compound contains an electron-poor aromatic ring that is susceptible to covalent hydrolysis at low pH, typically resulting in measured values for nitrogen ring protonation that are around two units higher than predicted values.

>  <s_lp_Force_Field>  (133) 
OPLS3e

>  <r_lp_Energy>  (133) 
13.1232

>  <b_lp_Chiralities_Consistent>  (133) 
1

>  <s_lp_Variant>  (133) 
34:0-2

>  <s_i_glide_gridfile>  (133) 
pfpi4k_grid

>  <i_i_glide_lignum>  (133) 
11

>  <i_i_glide_rotatable_bonds>  (133) 
3

>  <r_i_docking_score>  (133) 
-3.21016

>  <r_i_glide_ligand_efficiency>  (133) 
-0.178342

>  <r_i_glide_ligand_efficiency_sa>  (133) 
-0.467389

>  <r_i_glide_ligand_efficiency_ln>  (133) 
-0.825155

>  <r_i_glide_gscore>  (133) 
-3.21016

>  <r_i_glide_lipo>  (133) 
-0.234117

>  <r_i_glide_hbond>  (133) 
0

>  <r_i_glide_metal>  (133) 
-0

>  <r_i_glide_rewards>  (133) 
-1.85689

>  <r_i_glide_evdw>  (133) 
-18.1798

>  <r_i_glide_ecoul>  (133) 
-3.84827

>  <r_i_glide_erotb>  (133) 
0.578845

>  <r_i_glide_esite>  (133) 
-0.211771

>  <r_i_glide_emodel>  (133) 
-27.7878

>  <r_i_glide_energy>  (133) 
-22.0281

>  <r_i_glide_einternal>  (133) 
1.18344

>  <r_i_glide_intrahb_reward>  (133) 
-0

>  <i_i_glide_confnum>  (133) 
5

>  <i_i_glide_posenum>  (133) 
16

>  <r_i_glide_eff_state_penalty>  (133) 
0

>  <ligand_id>  (133) 
34

>  <original_smiles>  (133) 
Cn1c(O)c2onc(Cc3ccncn3)c2c1O

>  <smiles>  (133) 
[H]Oc1c2onc(C([H])([H])c3nc([H])nc([H])c3[H])c2c([O-])n1C([H])([H])[H]

$$$$
34:1:2
     RDKit          3D

 27 29  0  0  1  0  0  0  0  0999 V2000
    3.7087   -5.8506    0.8626 C   0  0  0  0  0  0  0  0  0  0  0  0
    2.4994   -6.2850    1.5322 N   0  0  0  0  0  0  0  0  0  0  0  0
    1.2074   -6.3114    1.0078 C   0  0  0  0  0  0  0  0  0  0  0  0
    0.9657   -5.8559   -0.2513 O   0  0  0  0  0  0  0  0  0  0  0  0
    0.3419   -6.7934    1.9024 C   0  0  0  0  0  0  0  0  0  0  0  0
   -0.9703   -7.0400    2.0151 O   0  0  0  0  0  0  0  0  0  0  0  0
   -1.0731   -7.5046    3.3632 N   0  0  0  0  0  0  0  0  0  0  0  0
    0.1410   -7.5295    3.9697 C   0  0  0  0  0  0  0  0  0  0  0  0
    0.2835   -8.0114    5.4012 C   0  0  0  0  0  0  0  0  0  0  0  0
    0.2468   -6.9054    6.4499 C   0  0  0  0  0  0  0  0  0  0  0  0
    1.0281   -6.9944    7.6179 C   0  0  0  0  0  0  0  0  0  0  0  0
    0.9590   -5.9097    8.5123 C   0  0  0  0  0  0  0  0  0  0  0  0
    0.1533   -4.8517    8.2854 N   0  0  0  0  0  0  0  0  0  0  0  0
   -0.5639   -4.8873    7.1636 C   0  0  0  0  0  0  0  0  0  0  0  0
   -0.5757   -5.8495    6.2443 N   0  0  0  0  0  0  0  0  0  0  0  0
    1.0297   -7.0423    2.9887 C   0  0  0  0  0  0  0  0  0  0  0  0
    2.3525   -6.7705    2.8550 C   0  0  0  0  0  0  0  0  0  0  0  0
    3.3740   -6.8949    3.7275 O   0  0  0  0  0  0  0  0  0  0  0  0
    3.6319   -5.9991   -0.2156 H   0  0  0  0  0  0  0  0  0  0  0  0
    4.5618   -6.4254    1.2153 H   0  0  0  0  0  0  0  0  0  0  0  0
    3.8859   -4.7927    1.0592 H   0  0  0  0  0  0  0  0  0  0  0  0
    1.8163   -5.7404   -0.6439 H   0  0  0  0  0  0  0  0  0  0  0  0
   -0.5162   -8.7101    5.6505 H   0  0  0  0  0  0  0  0  0  0  0  0
    1.2068   -8.5864    5.5303 H   0  0  0  0  0  0  0  0  0  0  0  0
    1.6719   -7.8379    7.8077 H   0  0  0  0  0  0  0  0  0  0  0  0
    1.5526   -5.8892    9.4128 H   0  0  0  0  0  0  0  0  0  0  0  0
   -1.2036   -4.0350    6.9828 H   0  0  0  0  0  0  0  0  0  0  0  0
  1  2  1  0
  1 19  1  0
  1 20  1  0
  1 21  1  0
  2 17  1  0
  2  3  1  0
  3  4  1  0
  3  5  2  0
  4 22  1  0
  5 16  1  0
  5  6  1  0
  6  7  1  0
  7  8  2  0
  8  9  1  0
  8 16  1  0
  9 10  1  0
  9 23  1  0
  9 24  1  0
 10 15  1  0
 10 11  2  0
 11 12  1  0
 11 25  1  0
 12 13  2  0
 12 26  1  0
 13 14  1  0
 14 15  2  0
 14 27  1  0
 16 17  2  0
 17 18  1  0
M  CHG  1  18  -1
M  END
>  <i_m_ct_stereo_status>  (134) 
1

>  <s_m_source_file>  (134) 
/var/tmp/pbs.5076255.sched01/tmp9vbryffn/46pprzbbw9.sdf

>  <i_m_source_file_index>  (134) 
11

>  <i_lp_mmshare_version>  (134) 
48012

>  <i_f3d_flags>  (134) 
0

>  <s_epik_input>  (134) 
W09IXWMxbihbQ0gzXSljKFtPSF0pYyhjMTIpYyhubzIpW0NIMl1jM1tjSF1bY0hdbltjSF1uMw==

>  <s_epik_cmdline>  (134) 
J2VwaWtfcHl0aG9uJywgJy1waHQnLCAnMi4wJywgJy1waCcsICc3LjAnLCAnLXRuJywgJzgnLCAnLW1hJywgJzIwMCcsICctaW1hZScsICc8aW5maWxlLm1hZT4nLCAnLW9tYWUnLCAnPG91dGZpbGUubWFlPic=

>  <r_lp_tautomer_probability>  (134) 
1

>  <r_epik_Ionization_Penalty>  (134) 
1.05896

>  <r_epik_Ionization_Penalty_Charging>  (134) 
1.05837

>  <r_epik_Ionization_Penalty_Neutral>  (134) 
0.000587762

>  <r_epik_State_Penalty>  (134) 
1.12797

>  <r_epik_Charging_Adjusted_Penalty>  (134) 
2.18634

>  <i_epik_Tot_Q>  (134) 
-1

>  <i_epik_Tot_abs_Q>  (134) 
1

>  <s_epik_Chemistry_Notes>  (134) 
This compound contains an electron-poor aromatic ring that is susceptible to covalent hydrolysis at low pH, typically resulting in measured values for nitrogen ring protonation that are around two units higher than predicted values.

>  <s_lp_Force_Field>  (134) 
OPLS3e

>  <r_lp_Energy>  (134) 
13.1232

>  <b_lp_Chiralities_Consistent>  (134) 
1

>  <s_lp_Variant>  (134) 
34:0-2

>  <s_i_glide_gridfile>  (134) 
pfpi4k_grid

>  <i_i_glide_lignum>  (134) 
11

>  <i_i_glide_rotatable_bonds>  (134) 
3

>  <r_i_docking_score>  (134) 
-3.16743

>  <r_i_glide_ligand_efficiency>  (134) 
-0.175969

>  <r_i_glide_ligand_efficiency_sa>  (134) 
-0.461168

>  <r_i_glide_ligand_efficiency_ln>  (134) 
-0.814173

>  <r_i_glide_gscore>  (134) 
-3.16743

>  <r_i_glide_lipo>  (134) 
-0.0323512

>  <r_i_glide_hbond>  (134) 
0

>  <r_i_glide_metal>  (134) 
-0

>  <r_i_glide_rewards>  (134) 
-1.76564

>  <r_i_glide_evdw>  (134) 
-15.3539

>  <r_i_glide_ecoul>  (134) 
-6.67088

>  <r_i_glide_erotb>  (134) 
0.578845

>  <r_i_glide_esite>  (134) 
-0.179956

>  <r_i_glide_emodel>  (134) 
-27.2719

>  <r_i_glide_energy>  (134) 
-22.0248

>  <r_i_glide_einternal>  (134) 
2.03355

>  <r_i_glide_intrahb_reward>  (134) 
-0

>  <i_i_glide_confnum>  (134) 
5

>  <i_i_glide_posenum>  (134) 
3

>  <r_i_glide_eff_state_penalty>  (134) 
0

>  <ligand_id>  (134) 
34

>  <original_smiles>  (134) 
Cn1c(O)c2onc(Cc3ccncn3)c2c1O

>  <smiles>  (134) 
[H]Oc1c2onc(C([H])([H])c3nc([H])nc([H])c3[H])c2c([O-])n1C([H])([H])[H]

$$$$
34:2:0
     RDKit          3D

 27 29  0  0  1  0  0  0  0  0999 V2000
    5.4717   -2.8044   -2.8645 C   0  0  0  0  0  0  0  0  0  0  0  0
    5.2768   -2.1512   -1.5904 N   0  0  0  0  0  0  0  0  0  0  0  0
    6.1758   -2.0226   -0.5184 C   0  0  0  0  0  0  0  0  0  0  0  0
    7.4257   -2.5061   -0.5874 O   0  0  0  0  0  0  0  0  0  0  0  0
    5.5947   -1.3765    0.4900 C   0  0  0  0  0  0  0  0  0  0  0  0
    5.9145   -0.9511    1.7203 O   0  0  0  0  0  0  0  0  0  0  0  0
    4.7216   -0.2893    2.1331 N   0  0  0  0  0  0  0  0  0  0  0  0
    3.7592   -0.3704    1.1794 C   0  0  0  0  0  0  0  0  0  0  0  0
    2.3959    0.2456    1.4094 C   0  0  0  0  0  0  0  0  0  0  0  0
    1.5854   -0.4047    2.5345 C   0  0  0  0  0  0  0  0  0  0  0  0
    0.6957    0.3399    3.3403 C   0  0  0  0  0  0  0  0  0  0  0  0
   -0.0247   -0.3729    4.3188 C   0  0  0  0  0  0  0  0  0  0  0  0
    0.1275   -1.7005    4.4904 N   0  0  0  0  0  0  0  0  0  0  0  0
    1.0107   -2.3001    3.6906 C   0  0  0  0  0  0  0  0  0  0  0  0
    1.7271   -1.7340    2.7229 N   0  0  0  0  0  0  0  0  0  0  0  0
    4.3756   -1.0721    0.1163 C   0  0  0  0  0  0  0  0  0  0  0  0
    4.0995   -1.5067   -1.1483 C   0  0  0  0  0  0  0  0  0  0  0  0
    3.0122   -1.4219   -1.9572 O   0  0  0  0  0  0  0  0  0  0  0  0
    6.5322   -2.9708   -3.0549 H   0  0  0  0  0  0  0  0  0  0  0  0
    5.0597   -2.1918   -3.6601 H   0  0  0  0  0  0  0  0  0  0  0  0
    4.9579   -3.7632   -2.8772 H   0  0  0  0  0  0  0  0  0  0  0  0
    2.5274    1.2948    1.6785 H   0  0  0  0  0  0  0  0  0  0  0  0
    1.8041    0.2503    0.5011 H   0  0  0  0  0  0  0  0  0  0  0  0
    0.5500    1.4020    3.2094 H   0  0  0  0  0  0  0  0  0  0  0  0
   -0.7413    0.1137    4.9677 H   0  0  0  0  0  0  0  0  0  0  0  0
    1.1361   -3.3602    3.8189 H   0  0  0  0  0  0  0  0  0  0  0  0
    2.2402   -1.2184   -1.4379 H   0  0  0  0  0  0  0  0  0  0  0  0
  1  2  1  0
  1 19  1  0
  1 20  1  0
  1 21  1  0
  2 17  1  0
  2  3  1  0
  3  4  1  0
  3  5  2  0
  5 16  1  0
  5  6  1  0
  6  7  1  0
  7  8  2  0
  8  9  1  0
  8 16  1  0
  9 10  1  0
  9 22  1  0
  9 23  1  0
 10 15  1  0
 10 11  2  0
 11 12  1  0
 11 24  1  0
 12 13  2  0
 12 25  1  0
 13 14  1  0
 14 15  2  0
 14 26  1  0
 16 17  2  0
 17 18  1  0
 18 27  1  0
M  CHG  1   4  -1
M  END
>  <i_m_ct_stereo_status>  (135) 
1

>  <s_m_source_file>  (135) 
/var/tmp/pbs.5076255.sched01/tmp9vbryffn/46pprzbbw9.sdf

>  <i_m_source_file_index>  (135) 
12

>  <i_lp_mmshare_version>  (135) 
48012

>  <i_f3d_flags>  (135) 
0

>  <s_epik_input>  (135) 
W09IXWMxbihbQ0gzXSljKFtPSF0pYyhjMTIpYyhubzIpW0NIMl1jM1tjSF1bY0hdbltjSF1uMw==

>  <s_epik_cmdline>  (135) 
J2VwaWtfcHl0aG9uJywgJy1waHQnLCAnMi4wJywgJy1waCcsICc3LjAnLCAnLXRuJywgJzgnLCAnLW1hJywgJzIwMCcsICctaW1hZScsICc8aW5maWxlLm1hZT4nLCAnLW9tYWUnLCAnPG91dGZpbGUubWFlPic=

>  <r_epik_Ionization_Penalty>  (135) 
1.92826

>  <r_epik_Ionization_Penalty_Charging>  (135) 
1.92544

>  <r_epik_Ionization_Penalty_Neutral>  (135) 
0.00282223

>  <r_epik_State_Penalty>  (135) 
2.14416

>  <r_epik_Charging_Adjusted_Penalty>  (135) 
4.0696

>  <i_epik_Tot_Q>  (135) 
-1

>  <i_epik_Tot_abs_Q>  (135) 
1

>  <s_epik_Chemistry_Notes>  (135) 
This compound contains an electron-poor aromatic ring that is susceptible to covalent hydrolysis at low pH, typically resulting in measured values for nitrogen ring protonation that are around two units higher than predicted values.

>  <s_lp_Force_Field>  (135) 
OPLS3e

>  <r_lp_Energy>  (135) 
16.7778

>  <b_lp_Chiralities_Consistent>  (135) 
1

>  <s_lp_Variant>  (135) 
34:0-3

>  <s_i_glide_gridfile>  (135) 
pfpi4k_grid

>  <i_i_glide_lignum>  (135) 
12

>  <i_i_glide_rotatable_bonds>  (135) 
3

>  <r_i_docking_score>  (135) 
-3.36467

>  <r_i_glide_ligand_efficiency>  (135) 
-0.186926

>  <r_i_glide_ligand_efficiency_sa>  (135) 
-0.489884

>  <r_i_glide_ligand_efficiency_ln>  (135) 
-0.86487

>  <r_i_glide_gscore>  (135) 
-3.36467

>  <r_i_glide_lipo>  (135) 
-0.241739

>  <r_i_glide_hbond>  (135) 
-0.271334

>  <r_i_glide_metal>  (135) 
-0

>  <r_i_glide_rewards>  (135) 
-1.79855

>  <r_i_glide_evdw>  (135) 
-20.5121

>  <r_i_glide_ecoul>  (135) 
-3.82661

>  <r_i_glide_erotb>  (135) 
0.578845

>  <r_i_glide_esite>  (135) 
-0.0322888

>  <r_i_glide_emodel>  (135) 
-31.3051

>  <r_i_glide_energy>  (135) 
-24.3387

>  <r_i_glide_einternal>  (135) 
1.00545

>  <r_i_glide_intrahb_reward>  (135) 
-0

>  <i_i_glide_confnum>  (135) 
6

>  <i_i_glide_posenum>  (135) 
28

>  <r_i_glide_eff_state_penalty>  (135) 
0

>  <ligand_id>  (135) 
34

>  <original_smiles>  (135) 
Cn1c(O)c2onc(Cc3ccncn3)c2c1O

>  <smiles>  (135) 
[H]Oc1c2c(C([H])([H])c3nc([H])nc([H])c3[H])noc2c([O-])n1C([H])([H])[H]

$$$$
34:2:1
     RDKit          3D

 27 29  0  0  1  0  0  0  0  0999 V2000
    7.5089   -5.3915    0.8855 C   0  0  0  0  0  0  0  0  0  0  0  0
    6.0628   -5.5238    0.8480 N   0  0  0  0  0  0  0  0  0  0  0  0
    5.1376   -4.6616    0.2435 C   0  0  0  0  0  0  0  0  0  0  0  0
    5.5291   -3.5449   -0.4071 O   0  0  0  0  0  0  0  0  0  0  0  0
    3.8903   -5.1284    0.4231 C   0  0  0  0  0  0  0  0  0  0  0  0
    2.6331   -4.7938    0.1027 O   0  0  0  0  0  0  0  0  0  0  0  0
    1.8418   -5.8468    0.6691 N   0  0  0  0  0  0  0  0  0  0  0  0
    2.6540   -6.7299    1.3122 C   0  0  0  0  0  0  0  0  0  0  0  0
    2.0702   -7.9409    2.0081 C   0  0  0  0  0  0  0  0  0  0  0  0
    0.8129   -7.6445    2.8288 C   0  0  0  0  0  0  0  0  0  0  0  0
   -0.3834   -8.3797    2.6601 C   0  0  0  0  0  0  0  0  0  0  0  0
   -1.4562   -8.0500    3.5099 C   0  0  0  0  0  0  0  0  0  0  0  0
   -1.3612   -7.0568    4.4126 N   0  0  0  0  0  0  0  0  0  0  0  0
   -0.1854   -6.4353    4.4992 C   0  0  0  0  0  0  0  0  0  0  0  0
    0.8908   -6.6658    3.7554 N   0  0  0  0  0  0  0  0  0  0  0  0
    3.9735   -6.2352    1.1129 C   0  0  0  0  0  0  0  0  0  0  0  0
    5.2694   -6.5497    1.4125 C   0  0  0  0  0  0  0  0  0  0  0  0
    5.8466   -7.5749    2.0885 O   0  0  0  0  0  0  0  0  0  0  0  0
    7.8467   -4.6727    0.1380 H   0  0  0  0  0  0  0  0  0  0  0  0
    7.9785   -6.3529    0.6740 H   0  0  0  0  0  0  0  0  0  0  0  0
    7.8199   -5.0477    1.8727 H   0  0  0  0  0  0  0  0  0  0  0  0
    1.8102   -8.6873    1.2576 H   0  0  0  0  0  0  0  0  0  0  0  0
    2.8073   -8.4151    2.6630 H   0  0  0  0  0  0  0  0  0  0  0  0
   -0.4787   -9.1766    1.9391 H   0  0  0  0  0  0  0  0  0  0  0  0
   -2.4067   -8.5698    3.4554 H   0  0  0  0  0  0  0  0  0  0  0  0
   -0.1184   -5.6411    5.2228 H   0  0  0  0  0  0  0  0  0  0  0  0
    6.7782   -7.4071    2.0708 H   0  0  0  0  0  0  0  0  0  0  0  0
  1  2  1  0
  1 19  1  0
  1 20  1  0
  1 21  1  0
  2 17  1  0
  2  3  1  0
  3  4  1  0
  3  5  2  0
  5 16  1  0
  5  6  1  0
  6  7  1  0
  7  8  2  0
  8  9  1  0
  8 16  1  0
  9 10  1  0
  9 22  1  0
  9 23  1  0
 10 15  1  0
 10 11  2  0
 11 12  1  0
 11 24  1  0
 12 13  2  0
 12 25  1  0
 13 14  1  0
 14 15  2  0
 14 26  1  0
 16 17  2  0
 17 18  1  0
 18 27  1  0
M  CHG  1   4  -1
M  END
>  <i_m_ct_stereo_status>  (136) 
1

>  <s_m_source_file>  (136) 
/var/tmp/pbs.5076255.sched01/tmp9vbryffn/46pprzbbw9.sdf

>  <i_m_source_file_index>  (136) 
12

>  <i_lp_mmshare_version>  (136) 
48012

>  <i_f3d_flags>  (136) 
0

>  <s_epik_input>  (136) 
W09IXWMxbihbQ0gzXSljKFtPSF0pYyhjMTIpYyhubzIpW0NIMl1jM1tjSF1bY0hdbltjSF1uMw==

>  <s_epik_cmdline>  (136) 
J2VwaWtfcHl0aG9uJywgJy1waHQnLCAnMi4wJywgJy1waCcsICc3LjAnLCAnLXRuJywgJzgnLCAnLW1hJywgJzIwMCcsICctaW1hZScsICc8aW5maWxlLm1hZT4nLCAnLW9tYWUnLCAnPG91dGZpbGUubWFlPic=

>  <r_epik_Ionization_Penalty>  (136) 
1.92826

>  <r_epik_Ionization_Penalty_Charging>  (136) 
1.92544

>  <r_epik_Ionization_Penalty_Neutral>  (136) 
0.00282223

>  <r_epik_State_Penalty>  (136) 
2.14416

>  <r_epik_Charging_Adjusted_Penalty>  (136) 
4.0696

>  <i_epik_Tot_Q>  (136) 
-1

>  <i_epik_Tot_abs_Q>  (136) 
1

>  <s_epik_Chemistry_Notes>  (136) 
This compound contains an electron-poor aromatic ring that is susceptible to covalent hydrolysis at low pH, typically resulting in measured values for nitrogen ring protonation that are around two units higher than predicted values.

>  <s_lp_Force_Field>  (136) 
OPLS3e

>  <r_lp_Energy>  (136) 
16.7778

>  <b_lp_Chiralities_Consistent>  (136) 
1

>  <s_lp_Variant>  (136) 
34:0-3

>  <s_i_glide_gridfile>  (136) 
pfpi4k_grid

>  <i_i_glide_lignum>  (136) 
12

>  <i_i_glide_rotatable_bonds>  (136) 
3

>  <r_i_docking_score>  (136) 
-3.08971

>  <r_i_glide_ligand_efficiency>  (136) 
-0.171651

>  <r_i_glide_ligand_efficiency_sa>  (136) 
-0.449852

>  <r_i_glide_ligand_efficiency_ln>  (136) 
-0.794194

>  <r_i_glide_gscore>  (136) 
-3.08971

>  <r_i_glide_lipo>  (136) 
-0.339485

>  <r_i_glide_hbond>  (136) 
0

>  <r_i_glide_metal>  (136) 
-0

>  <r_i_glide_rewards>  (136) 
-1.87378

>  <r_i_glide_evdw>  (136) 
-21.3099

>  <r_i_glide_ecoul>  (136) 
-1.60183

>  <r_i_glide_erotb>  (136) 
0.578845

>  <r_i_glide_esite>  (136) 
-0.149522

>  <r_i_glide_emodel>  (136) 
-29.6157

>  <r_i_glide_energy>  (136) 
-22.9118

>  <r_i_glide_einternal>  (136) 
0.622461

>  <r_i_glide_intrahb_reward>  (136) 
-0

>  <i_i_glide_confnum>  (136) 
1

>  <i_i_glide_posenum>  (136) 
5

>  <r_i_glide_eff_state_penalty>  (136) 
0

>  <ligand_id>  (136) 
34

>  <original_smiles>  (136) 
Cn1c(O)c2onc(Cc3ccncn3)c2c1O

>  <smiles>  (136) 
[H]Oc1c2c(C([H])([H])c3nc([H])nc([H])c3[H])noc2c([O-])n1C([H])([H])[H]

$$$$
34:2:2
     RDKit          3D

 27 29  0  0  1  0  0  0  0  0999 V2000
    4.9203   -4.0626   -2.7501 C   0  0  0  0  0  0  0  0  0  0  0  0
    4.7653   -3.1870   -1.6164 N   0  0  0  0  0  0  0  0  0  0  0  0
    5.7389   -2.3439   -1.0581 C   0  0  0  0  0  0  0  0  0  0  0  0
    6.9961   -2.2694   -1.5290 O   0  0  0  0  0  0  0  0  0  0  0  0
    5.2111   -1.6980   -0.0095 C   0  0  0  0  0  0  0  0  0  0  0  0
    5.6488   -0.8699    0.9348 O   0  0  0  0  0  0  0  0  0  0  0  0
    4.5142   -0.7703    1.7967 N   0  0  0  0  0  0  0  0  0  0  0  0
    3.4438   -1.4274    1.2812 C   0  0  0  0  0  0  0  0  0  0  0  0
    2.0807   -1.3585    1.9600 C   0  0  0  0  0  0  0  0  0  0  0  0
    1.6041    0.0415    2.4243 C   0  0  0  0  0  0  0  0  0  0  0  0
    2.4498    1.1566    2.6431 C   0  0  0  0  0  0  0  0  0  0  0  0
    1.8691    2.3586    3.0648 C   0  0  0  0  0  0  0  0  0  0  0  0
    0.5499    2.4664    3.2942 N   0  0  0  0  0  0  0  0  0  0  0  0
   -0.1766    1.3743    3.0616 C   0  0  0  0  0  0  0  0  0  0  0  0
    0.2767    0.1731    2.6658 N   0  0  0  0  0  0  0  0  0  0  0  0
    3.9690   -2.0868    0.1400 C   0  0  0  0  0  0  0  0  0  0  0  0
    3.6123   -3.0106   -0.8079 C   0  0  0  0  0  0  0  0  0  0  0  0
    2.4902   -3.7399   -1.0155 O   0  0  0  0  0  0  0  0  0  0  0  0
    5.8071   -3.7917   -3.3160 H   0  0  0  0  0  0  0  0  0  0  0  0
    4.0446   -3.9721   -3.3883 H   0  0  0  0  0  0  0  0  0  0  0  0
    5.0362   -5.0803   -2.3914 H   0  0  0  0  0  0  0  0  0  0  0  0
    1.3091   -1.7889    1.3116 H   0  0  0  0  0  0  0  0  0  0  0  0
    2.0963   -1.9985    2.8419 H   0  0  0  0  0  0  0  0  0  0  0  0
    3.5149    1.1756    2.5187 H   0  0  0  0  0  0  0  0  0  0  0  0
    2.5054    3.2192    3.2182 H   0  0  0  0  0  0  0  0  0  0  0  0
   -1.2383    1.4835    3.2453 H   0  0  0  0  0  0  0  0  0  0  0  0
    2.7105   -4.3748   -1.6908 H   0  0  0  0  0  0  0  0  0  0  0  0
  1  2  1  0
  1 19  1  0
  1 20  1  0
  1 21  1  0
  2 17  1  0
  2  3  1  0
  3  4  1  0
  3  5  2  0
  5 16  1  0
  5  6  1  0
  6  7  1  0
  7  8  2  0
  8  9  1  0
  8 16  1  0
  9 10  1  0
  9 22  1  0
  9 23  1  0
 10 15  1  0
 10 11  2  0
 11 12  1  0
 11 24  1  0
 12 13  2  0
 12 25  1  0
 13 14  1  0
 14 15  2  0
 14 26  1  0
 16 17  2  0
 17 18  1  0
 18 27  1  0
M  CHG  1   4  -1
M  END
>  <i_m_ct_stereo_status>  (137) 
1

>  <s_m_source_file>  (137) 
/var/tmp/pbs.5076255.sched01/tmp9vbryffn/46pprzbbw9.sdf

>  <i_m_source_file_index>  (137) 
12

>  <i_lp_mmshare_version>  (137) 
48012

>  <i_f3d_flags>  (137) 
0

>  <s_epik_input>  (137) 
W09IXWMxbihbQ0gzXSljKFtPSF0pYyhjMTIpYyhubzIpW0NIMl1jM1tjSF1bY0hdbltjSF1uMw==

>  <s_epik_cmdline>  (137) 
J2VwaWtfcHl0aG9uJywgJy1waHQnLCAnMi4wJywgJy1waCcsICc3LjAnLCAnLXRuJywgJzgnLCAnLW1hJywgJzIwMCcsICctaW1hZScsICc8aW5maWxlLm1hZT4nLCAnLW9tYWUnLCAnPG91dGZpbGUubWFlPic=

>  <r_epik_Ionization_Penalty>  (137) 
1.92826

>  <r_epik_Ionization_Penalty_Charging>  (137) 
1.92544

>  <r_epik_Ionization_Penalty_Neutral>  (137) 
0.00282223

>  <r_epik_State_Penalty>  (137) 
2.14416

>  <r_epik_Charging_Adjusted_Penalty>  (137) 
4.0696

>  <i_epik_Tot_Q>  (137) 
-1

>  <i_epik_Tot_abs_Q>  (137) 
1

>  <s_epik_Chemistry_Notes>  (137) 
This compound contains an electron-poor aromatic ring that is susceptible to covalent hydrolysis at low pH, typically resulting in measured values for nitrogen ring protonation that are around two units higher than predicted values.

>  <s_lp_Force_Field>  (137) 
OPLS3e

>  <r_lp_Energy>  (137) 
16.7778

>  <b_lp_Chiralities_Consistent>  (137) 
1

>  <s_lp_Variant>  (137) 
34:0-3

>  <s_i_glide_gridfile>  (137) 
pfpi4k_grid

>  <i_i_glide_lignum>  (137) 
12

>  <i_i_glide_rotatable_bonds>  (137) 
3

>  <r_i_docking_score>  (137) 
-3.0802

>  <r_i_glide_ligand_efficiency>  (137) 
-0.171122

>  <r_i_glide_ligand_efficiency_sa>  (137) 
-0.448466

>  <r_i_glide_ligand_efficiency_ln>  (137) 
-0.791748

>  <r_i_glide_gscore>  (137) 
-3.0802

>  <r_i_glide_lipo>  (137) 
-0.00750677

>  <r_i_glide_hbond>  (137) 
-0.52

>  <r_i_glide_metal>  (137) 
-0

>  <r_i_glide_rewards>  (137) 
-1.76192

>  <r_i_glide_evdw>  (137) 
-22.144

>  <r_i_glide_ecoul>  (137) 
-1.4731

>  <r_i_glide_erotb>  (137) 
0.578845

>  <r_i_glide_esite>  (137) 
-0.0414431

>  <r_i_glide_emodel>  (137) 
-28.0835

>  <r_i_glide_energy>  (137) 
-23.6171

>  <r_i_glide_einternal>  (137) 
2.68556

>  <r_i_glide_intrahb_reward>  (137) 
-0

>  <i_i_glide_confnum>  (137) 
4

>  <i_i_glide_posenum>  (137) 
12

>  <r_i_glide_eff_state_penalty>  (137) 
0

>  <ligand_id>  (137) 
34

>  <original_smiles>  (137) 
Cn1c(O)c2onc(Cc3ccncn3)c2c1O

>  <smiles>  (137) 
[H]Oc1c2c(C([H])([H])c3nc([H])nc([H])c3[H])noc2c([O-])n1C([H])([H])[H]

$$$$
35:0:0
     RDKit          3D

 27 29  0  0  1  0  0  0  0  0999 V2000
    1.1591   -8.7937    2.3150 C   0  0  0  0  0  0  0  0  0  0  0  0
    1.5819   -7.5967    1.6743 O   0  0  0  0  0  0  0  0  0  0  0  0
    2.8870   -7.2174    1.6787 C   0  0  0  0  0  0  0  0  0  0  0  0
    3.7607   -7.8447    2.2813 O   0  0  0  0  0  0  0  0  0  0  0  0
    3.0993   -5.9961    0.8896 C   0  0  0  0  0  0  0  0  0  0  0  0
    2.0586   -5.2597    0.2761 N   0  0  0  0  0  0  0  0  0  0  0  0
    2.6464   -4.2240   -0.3414 C   0  0  0  0  0  0  0  0  0  0  0  0
    3.9709   -4.2520   -0.1712 N   0  0  0  0  0  0  0  0  0  0  0  0
    4.2827   -5.3260    0.5838 C   0  0  0  0  0  0  0  0  0  0  0  0
    5.5377   -5.6991    0.9809 N   0  0  0  0  0  0  0  0  0  0  0  0
    6.4975   -4.8377    0.5259 C   0  0  0  0  0  0  0  0  0  0  0  0
    7.8148   -5.1305    0.8827 N   0  0  0  0  0  0  0  0  0  0  0  0
    6.2098   -3.6884   -0.2824 C   0  0  0  0  0  0  0  0  0  0  0  0
    7.0060   -2.7519   -0.8143 N   0  0  0  0  0  0  0  0  0  0  0  0
    6.1603   -1.8736   -1.5105 N   0  0  0  0  0  0  0  0  0  0  0  0
    4.9090   -2.3253   -1.3611 C   0  0  0  0  0  0  0  0  0  0  0  0
    3.7059   -1.6628   -1.9525 C   0  0  0  0  0  0  0  0  0  0  0  0
    4.9350   -3.4365   -0.6085 N   0  0  0  0  0  0  0  0  0  0  0  0
    0.0827   -8.9353    2.2088 H   0  0  0  0  0  0  0  0  0  0  0  0
    1.3760   -8.7790    3.3821 H   0  0  0  0  0  0  0  0  0  0  0  0
    1.6375   -9.6693    1.8784 H   0  0  0  0  0  0  0  0  0  0  0  0
    2.0972   -3.4841   -0.9153 H   0  0  0  0  0  0  0  0  0  0  0  0
    8.5803   -4.5381    0.5905 H   0  0  0  0  0  0  0  0  0  0  0  0
    4.0054   -0.7722   -2.5117 H   0  0  0  0  0  0  0  0  0  0  0  0
    3.0165   -1.3484   -1.1656 H   0  0  0  0  0  0  0  0  0  0  0  0
    3.1965   -2.3404   -2.6413 H   0  0  0  0  0  0  0  0  0  0  0  0
    8.0481   -5.9393    1.4488 H   0  0  0  0  0  0  0  0  0  0  0  0
  1  2  1  0
  1 19  1  0
  1 20  1  0
  1 21  1  0
  2  3  1  0
  3  4  2  0
  3  5  1  0
  5  9  2  0
  5  6  1  0
  6  7  2  0
  7  8  1  0
  7 22  1  0
  8 18  1  0
  8  9  1  0
  9 10  1  0
 10 11  2  0
 11 12  1  0
 11 13  1  0
 12 23  1  0
 12 27  1  0
 13 18  1  0
 13 14  2  0
 14 15  1  0
 15 16  2  0
 16 17  1  0
 16 18  1  0
 17 24  1  0
 17 25  1  0
 17 26  1  0
M  END
>  <i_m_ct_stereo_status>  (138) 
1

>  <s_m_source_file>  (138) 
/var/tmp/pbs.5076255.sched01/tmp9vbryffn/46pprzbbw9.sdf

>  <i_m_source_file_index>  (138) 
13

>  <i_lp_mmshare_version>  (138) 
48012

>  <i_f3d_flags>  (138) 
0

>  <s_epik_input>  (138) 
W0NIM11PQyg9TyljKG5bY0hdMSljKG4xMilbbkhdL2MoPU4vW0hdKWMzbjJjKG5uMylbQ0gzXQ==

>  <s_epik_cmdline>  (138) 
J2VwaWtfcHl0aG9uJywgJy1waHQnLCAnMi4wJywgJy1waCcsICc3LjAnLCAnLXRuJywgJzgnLCAnLW1hJywgJzIwMCcsICctaW1hZScsICc8aW5maWxlLm1hZT4nLCAnLW9tYWUnLCAnPG91dGZpbGUubWFlPic=

>  <r_epik_Ionization_Penalty>  (138) 
0.00707609

>  <r_epik_Ionization_Penalty_Charging>  (138) 
0

>  <r_epik_Ionization_Penalty_Neutral>  (138) 
0.00707609

>  <r_epik_State_Penalty>  (138) 
0.00523652

>  <r_epik_Charging_Adjusted_Penalty>  (138) 
0.00523652

>  <i_epik_Tot_Q>  (138) 
0

>  <i_epik_Tot_abs_Q>  (138) 
0

>  <s_epik_Chemistry_Notes>  (138) 
This compound has an ester and may undergo hydrolysis at high or low pH.

>  <s_lp_Force_Field>  (138) 
OPLS3e

>  <r_lp_Energy>  (138) 
17.1014

>  <b_lp_Chiralities_Consistent>  (138) 
1

>  <s_lp_Variant>  (138) 
35:0-1

>  <s_i_glide_gridfile>  (138) 
pfpi4k_grid

>  <i_i_glide_lignum>  (138) 
13

>  <i_i_glide_rotatable_bonds>  (138) 
2

>  <r_i_docking_score>  (138) 
-4.01218

>  <r_i_glide_ligand_efficiency>  (138) 
-0.222899

>  <r_i_glide_ligand_efficiency_sa>  (138) 
-0.584161

>  <r_i_glide_ligand_efficiency_ln>  (138) 
-1.03131

>  <r_i_glide_gscore>  (138) 
-4.01218

>  <r_i_glide_lipo>  (138) 
-0.116153

>  <r_i_glide_hbond>  (138) 
-0.0389494

>  <r_i_glide_metal>  (138) 
-0

>  <r_i_glide_rewards>  (138) 
-1.99172

>  <r_i_glide_evdw>  (138) 
-21.7614

>  <r_i_glide_ecoul>  (138) 
-5.93892

>  <r_i_glide_erotb>  (138) 
0.285429

>  <r_i_glide_esite>  (138) 
-0.171881

>  <r_i_glide_emodel>  (138) 
-34.6027

>  <r_i_glide_energy>  (138) 
-27.7004

>  <r_i_glide_einternal>  (138) 
1.10971

>  <r_i_glide_intrahb_reward>  (138) 
-0

>  <i_i_glide_confnum>  (138) 
1

>  <i_i_glide_posenum>  (138) 
20

>  <r_i_glide_eff_state_penalty>  (138) 
0

>  <ligand_id>  (138) 
35

>  <original_smiles>  (138) 
COC(=O)c1ncn2c1[nH]c(=N)c1nnc(C)n12

>  <smiles>  (138) 
[H]c1nc(C(=O)OC([H])([H])[H])c2nc(N([H])[H])c3nnc(C([H])([H])[H])n3n12

$$$$
35:0:1
     RDKit          3D

 27 29  0  0  1  0  0  0  0  0999 V2000
    4.8379   -4.4944    4.9150 C   0  0  0  0  0  0  0  0  0  0  0  0
    4.4326   -4.1841    3.5957 O   0  0  0  0  0  0  0  0  0  0  0  0
    3.4332   -4.8693    3.0123 C   0  0  0  0  0  0  0  0  0  0  0  0
    2.8196   -5.7677    3.5887 O   0  0  0  0  0  0  0  0  0  0  0  0
    3.1458   -4.4632    1.6331 C   0  0  0  0  0  0  0  0  0  0  0  0
    2.2092   -5.1115    0.8006 N   0  0  0  0  0  0  0  0  0  0  0  0
    2.2402   -4.4443   -0.3572 C   0  0  0  0  0  0  0  0  0  0  0  0
    3.1127   -3.4345   -0.3216 N   0  0  0  0  0  0  0  0  0  0  0  0
    3.6878   -3.4169    0.8952 C   0  0  0  0  0  0  0  0  0  0  0  0
    4.6310   -2.5311    1.3311 N   0  0  0  0  0  0  0  0  0  0  0  0
    4.9668   -1.6222    0.3768 C   0  0  0  0  0  0  0  0  0  0  0  0
    5.9427   -0.6935    0.7292 N   0  0  0  0  0  0  0  0  0  0  0  0
    4.3902   -1.6069   -0.9295 C   0  0  0  0  0  0  0  0  0  0  0  0
    4.6160   -0.8208   -1.9867 N   0  0  0  0  0  0  0  0  0  0  0  0
    3.7588   -1.2761   -2.9994 N   0  0  0  0  0  0  0  0  0  0  0  0
    3.0732   -2.3128   -2.5049 C   0  0  0  0  0  0  0  0  0  0  0  0
    2.0542   -3.0848   -3.2741 C   0  0  0  0  0  0  0  0  0  0  0  0
    3.4633   -2.5270   -1.2385 N   0  0  0  0  0  0  0  0  0  0  0  0
    5.6505   -3.8170    5.1729 H   0  0  0  0  0  0  0  0  0  0  0  0
    5.2117   -5.5196    4.9951 H   0  0  0  0  0  0  0  0  0  0  0  0
    4.0305   -4.3480    5.6380 H   0  0  0  0  0  0  0  0  0  0  0  0
    1.6289   -4.7081   -1.2075 H   0  0  0  0  0  0  0  0  0  0  0  0
    6.2050    0.0579    0.1048 H   0  0  0  0  0  0  0  0  0  0  0  0
    1.9393   -2.6672   -4.2780 H   0  0  0  0  0  0  0  0  0  0  0  0
    1.0864   -3.0514   -2.7699 H   0  0  0  0  0  0  0  0  0  0  0  0
    2.3665   -4.1235   -3.3872 H   0  0  0  0  0  0  0  0  0  0  0  0
    6.3526   -0.6771    1.6538 H   0  0  0  0  0  0  0  0  0  0  0  0
  1  2  1  0
  1 19  1  0
  1 20  1  0
  1 21  1  0
  2  3  1  0
  3  4  2  0
  3  5  1  0
  5  9  2  0
  5  6  1  0
  6  7  2  0
  7  8  1  0
  7 22  1  0
  8 18  1  0
  8  9  1  0
  9 10  1  0
 10 11  2  0
 11 12  1  0
 11 13  1  0
 12 23  1  0
 12 27  1  0
 13 18  1  0
 13 14  2  0
 14 15  1  0
 15 16  2  0
 16 17  1  0
 16 18  1  0
 17 24  1  0
 17 25  1  0
 17 26  1  0
M  END
>  <i_m_ct_stereo_status>  (139) 
1

>  <s_m_source_file>  (139) 
/var/tmp/pbs.5076255.sched01/tmp9vbryffn/46pprzbbw9.sdf

>  <i_m_source_file_index>  (139) 
13

>  <i_lp_mmshare_version>  (139) 
48012

>  <i_f3d_flags>  (139) 
0

>  <s_epik_input>  (139) 
W0NIM11PQyg9TyljKG5bY0hdMSljKG4xMilbbkhdL2MoPU4vW0hdKWMzbjJjKG5uMylbQ0gzXQ==

>  <s_epik_cmdline>  (139) 
J2VwaWtfcHl0aG9uJywgJy1waHQnLCAnMi4wJywgJy1waCcsICc3LjAnLCAnLXRuJywgJzgnLCAnLW1hJywgJzIwMCcsICctaW1hZScsICc8aW5maWxlLm1hZT4nLCAnLW9tYWUnLCAnPG91dGZpbGUubWFlPic=

>  <r_epik_Ionization_Penalty>  (139) 
0.00707609

>  <r_epik_Ionization_Penalty_Charging>  (139) 
0

>  <r_epik_Ionization_Penalty_Neutral>  (139) 
0.00707609

>  <r_epik_State_Penalty>  (139) 
0.00523652

>  <r_epik_Charging_Adjusted_Penalty>  (139) 
0.00523652

>  <i_epik_Tot_Q>  (139) 
0

>  <i_epik_Tot_abs_Q>  (139) 
0

>  <s_epik_Chemistry_Notes>  (139) 
This compound has an ester and may undergo hydrolysis at high or low pH.

>  <s_lp_Force_Field>  (139) 
OPLS3e

>  <r_lp_Energy>  (139) 
17.1014

>  <b_lp_Chiralities_Consistent>  (139) 
1

>  <s_lp_Variant>  (139) 
35:0-1

>  <s_i_glide_gridfile>  (139) 
pfpi4k_grid

>  <i_i_glide_lignum>  (139) 
13

>  <i_i_glide_rotatable_bonds>  (139) 
2

>  <r_i_docking_score>  (139) 
-3.87875

>  <r_i_glide_ligand_efficiency>  (139) 
-0.215486

>  <r_i_glide_ligand_efficiency_sa>  (139) 
-0.564734

>  <r_i_glide_ligand_efficiency_ln>  (139) 
-0.997014

>  <r_i_glide_gscore>  (139) 
-3.87875

>  <r_i_glide_lipo>  (139) 
-0.242158

>  <r_i_glide_hbond>  (139) 
-0.07243

>  <r_i_glide_metal>  (139) 
-0

>  <r_i_glide_rewards>  (139) 
-1.77014

>  <r_i_glide_evdw>  (139) 
-20.7365

>  <r_i_glide_ecoul>  (139) 
-5.40004

>  <r_i_glide_erotb>  (139) 
0.285429

>  <r_i_glide_esite>  (139) 
-0.23263

>  <r_i_glide_emodel>  (139) 
-33.5075

>  <r_i_glide_energy>  (139) 
-26.1365

>  <r_i_glide_einternal>  (139) 
0.0338688

>  <r_i_glide_intrahb_reward>  (139) 
-0

>  <i_i_glide_confnum>  (139) 
3

>  <i_i_glide_posenum>  (139) 
23

>  <r_i_glide_eff_state_penalty>  (139) 
0

>  <ligand_id>  (139) 
35

>  <original_smiles>  (139) 
COC(=O)c1ncn2c1[nH]c(=N)c1nnc(C)n12

>  <smiles>  (139) 
[H]c1nc(C(=O)OC([H])([H])[H])c2nc(N([H])[H])c3nnc(C([H])([H])[H])n3n12

$$$$
35:0:2
     RDKit          3D

 27 29  0  0  1  0  0  0  0  0999 V2000
    2.7791   -4.7497    5.7471 C   0  0  0  0  0  0  0  0  0  0  0  0
    3.0174   -4.4277    4.3893 O   0  0  0  0  0  0  0  0  0  0  0  0
    2.2402   -4.9480    3.4255 C   0  0  0  0  0  0  0  0  0  0  0  0
    1.2920   -5.7004    3.6575 O   0  0  0  0  0  0  0  0  0  0  0  0
    2.6258   -4.5522    2.0699 C   0  0  0  0  0  0  0  0  0  0  0  0
    2.1104   -5.1536    0.9013 N   0  0  0  0  0  0  0  0  0  0  0  0
    2.6732   -4.4869   -0.1128 C   0  0  0  0  0  0  0  0  0  0  0  0
    3.5170   -3.5506    0.3162 N   0  0  0  0  0  0  0  0  0  0  0  0
    3.5073   -3.5599    1.6584 C   0  0  0  0  0  0  0  0  0  0  0  0
    4.2273   -2.7338    2.4737 N   0  0  0  0  0  0  0  0  0  0  0  0
    5.0106   -1.8702    1.7744 C   0  0  0  0  0  0  0  0  0  0  0  0
    5.7889   -0.9917    2.5259 N   0  0  0  0  0  0  0  0  0  0  0  0
    5.0603   -1.8372    0.3456 C   0  0  0  0  0  0  0  0  0  0  0  0
    5.7710   -1.0802   -0.4963 N   0  0  0  0  0  0  0  0  0  0  0  0
    5.4041   -1.4942   -1.7867 N   0  0  0  0  0  0  0  0  0  0  0  0
    4.4983   -2.4717   -1.6510 C   0  0  0  0  0  0  0  0  0  0  0  0
    3.8676   -3.1903   -2.8013 C   0  0  0  0  0  0  0  0  0  0  0  0
    4.2912   -2.6877   -0.3442 N   0  0  0  0  0  0  0  0  0  0  0  0
    3.5203   -4.2210    6.3453 H   0  0  0  0  0  0  0  0  0  0  0  0
    2.8876   -5.8216    5.9436 H   0  0  0  0  0  0  0  0  0  0  0  0
    1.7860   -4.4262    6.0742 H   0  0  0  0  0  0  0  0  0  0  0  0
    2.4401   -4.6809   -1.1301 H   0  0  0  0  0  0  0  0  0  0  0  0
    6.4214   -0.3302    2.0912 H   0  0  0  0  0  0  0  0  0  0  0  0
    4.2388   -2.7826   -3.7467 H   0  0  0  0  0  0  0  0  0  0  0  0
    2.7817   -3.0664   -2.7795 H   0  0  0  0  0  0  0  0  0  0  0  0
    4.1340   -4.2491   -2.7702 H   0  0  0  0  0  0  0  0  0  0  0  0
    5.7681   -1.0097    3.5369 H   0  0  0  0  0  0  0  0  0  0  0  0
  1  2  1  0
  1 19  1  0
  1 20  1  0
  1 21  1  0
  2  3  1  0
  3  4  2  0
  3  5  1  0
  5  9  2  0
  5  6  1  0
  6  7  2  0
  7  8  1  0
  7 22  1  0
  8 18  1  0
  8  9  1  0
  9 10  1  0
 10 11  2  0
 11 12  1  0
 11 13  1  0
 12 23  1  0
 12 27  1  0
 13 18  1  0
 13 14  2  0
 14 15  1  0
 15 16  2  0
 16 17  1  0
 16 18  1  0
 17 24  1  0
 17 25  1  0
 17 26  1  0
M  END
>  <i_m_ct_stereo_status>  (140) 
1

>  <s_m_source_file>  (140) 
/var/tmp/pbs.5076255.sched01/tmp9vbryffn/46pprzbbw9.sdf

>  <i_m_source_file_index>  (140) 
13

>  <i_lp_mmshare_version>  (140) 
48012

>  <i_f3d_flags>  (140) 
0

>  <s_epik_input>  (140) 
W0NIM11PQyg9TyljKG5bY0hdMSljKG4xMilbbkhdL2MoPU4vW0hdKWMzbjJjKG5uMylbQ0gzXQ==

>  <s_epik_cmdline>  (140) 
J2VwaWtfcHl0aG9uJywgJy1waHQnLCAnMi4wJywgJy1waCcsICc3LjAnLCAnLXRuJywgJzgnLCAnLW1hJywgJzIwMCcsICctaW1hZScsICc8aW5maWxlLm1hZT4nLCAnLW9tYWUnLCAnPG91dGZpbGUubWFlPic=

>  <r_epik_Ionization_Penalty>  (140) 
0.00707609

>  <r_epik_Ionization_Penalty_Charging>  (140) 
0

>  <r_epik_Ionization_Penalty_Neutral>  (140) 
0.00707609

>  <r_epik_State_Penalty>  (140) 
0.00523652

>  <r_epik_Charging_Adjusted_Penalty>  (140) 
0.00523652

>  <i_epik_Tot_Q>  (140) 
0

>  <i_epik_Tot_abs_Q>  (140) 
0

>  <s_epik_Chemistry_Notes>  (140) 
This compound has an ester and may undergo hydrolysis at high or low pH.

>  <s_lp_Force_Field>  (140) 
OPLS3e

>  <r_lp_Energy>  (140) 
17.1014

>  <b_lp_Chiralities_Consistent>  (140) 
1

>  <s_lp_Variant>  (140) 
35:0-1

>  <s_i_glide_gridfile>  (140) 
pfpi4k_grid

>  <i_i_glide_lignum>  (140) 
13

>  <i_i_glide_rotatable_bonds>  (140) 
2

>  <r_i_docking_score>  (140) 
-3.61156

>  <r_i_glide_ligand_efficiency>  (140) 
-0.200642

>  <r_i_glide_ligand_efficiency_sa>  (140) 
-0.525831

>  <r_i_glide_ligand_efficiency_ln>  (140) 
-0.928332

>  <r_i_glide_gscore>  (140) 
-3.61156

>  <r_i_glide_lipo>  (140) 
-0.0631679

>  <r_i_glide_hbond>  (140) 
-0.195174

>  <r_i_glide_metal>  (140) 
-0

>  <r_i_glide_rewards>  (140) 
-1.77774

>  <r_i_glide_evdw>  (140) 
-16.3365

>  <r_i_glide_ecoul>  (140) 
-5.73613

>  <r_i_glide_erotb>  (140) 
0.285429

>  <r_i_glide_esite>  (140) 
-0.183661

>  <r_i_glide_emodel>  (140) 
-28.8512

>  <r_i_glide_energy>  (140) 
-22.0727

>  <r_i_glide_einternal>  (140) 
0.16605

>  <r_i_glide_intrahb_reward>  (140) 
-0

>  <i_i_glide_confnum>  (140) 
1

>  <i_i_glide_posenum>  (140) 
13

>  <r_i_glide_eff_state_penalty>  (140) 
0

>  <ligand_id>  (140) 
35

>  <original_smiles>  (140) 
COC(=O)c1ncn2c1[nH]c(=N)c1nnc(C)n12

>  <smiles>  (140) 
[H]c1nc(C(=O)OC([H])([H])[H])c2nc(N([H])[H])c3nnc(C([H])([H])[H])n3n12

$$$$
36:1:0
     RDKit          3D

 53 57  0  0  1  0  0  0  0  0999 V2000
    3.7455   -2.2819   -4.3359 C   0  0  0  0  0  0  0  0  0  0  0  0
    3.2592   -2.0067   -2.9242 C   0  0  0  0  0  0  0  0  0  0  0  0
    4.2382   -1.1485   -2.0971 C   0  0  0  0  0  0  0  0  0  0  0  0
    3.9234   -1.1212   -0.5916 C   0  0  0  0  0  0  0  0  0  0  0  0
    3.8887   -2.5090    0.0423 C   0  0  2  0  0  0  0  0  0  0  0  0
    2.6525   -3.3360   -0.0826 C   0  0  0  0  0  0  0  0  0  0  0  0
    3.1429   -2.9434    1.2938 C   0  0  2  0  0  0  0  0  0  0  0  0
    2.7651   -1.7569    2.0892 C   0  0  0  0  0  0  0  0  0  0  0  0
    1.4156   -1.3668    2.1196 C   0  0  0  0  0  0  0  0  0  0  0  0
    1.1451   -0.2092    2.8649 C   0  0  0  0  0  0  0  0  0  0  0  0
    2.1508    0.4930    3.5507 C   0  0  0  0  0  0  0  0  0  0  0  0
    3.5068    0.1041    3.5365 C   0  0  0  0  0  0  0  0  0  0  0  0
    3.7904   -1.0494    2.7460 C   0  0  0  0  0  0  0  0  0  0  0  0
    5.2013   -1.4179    2.5256 N   0  0  0  0  0  0  0  0  0  0  0  0
    6.1327   -0.3932    3.0110 C   0  0  0  0  0  0  0  0  0  0  0  0
    5.8458   -2.8050    2.6539 C   0  0  2  0  0  0  0  0  0  0  0  0
    5.9802   -4.4061    2.2194 C   0  0  0  0  0  0  0  0  0  0  0  0
    4.5443   -5.3770    1.6144 S   0  0  0  0  0  0  0  0  0  0  0  0
    3.3291   -4.1846    2.1853 C   0  0  1  0  0  0  0  0  0  0  0  0
    3.6814   -3.9209    3.5943 N   0  0  0  0  0  0  0  0  0  0  0  0
    2.8641   -4.2778    4.6329 C   0  0  0  0  0  0  0  0  0  0  0  0
    3.1675   -4.3814    5.8235 O   0  0  0  0  0  0  0  0  0  0  0  0
    1.6274   -4.4731    4.1575 O   0  0  0  0  0  0  0  0  0  0  0  0
    0.6153   -4.9433    5.0119 C   0  0  0  0  0  0  0  0  0  0  0  0
    4.9080   -3.3388    3.8037 C   0  0  0  0  0  0  0  0  0  0  0  0
    5.3883   -3.1438    4.9214 O   0  0  0  0  0  0  0  0  0  0  0  0
    6.0798   -2.6793    1.0572 C   0  0  0  0  0  0  0  0  0  0  0  0
    7.1784   -2.2761    0.6730 O   0  0  0  0  0  0  0  0  0  0  0  0
    5.1713   -3.0631    0.0985 O   0  0  0  0  0  0  0  0  0  0  0  0
    3.0254   -2.9286   -4.8315 H   0  0  0  0  0  0  0  0  0  0  0  0
    4.6895   -2.8237   -4.3078 H   0  0  0  0  0  0  0  0  0  0  0  0
    3.8654   -1.3598   -4.8968 H   0  0  0  0  0  0  0  0  0  0  0  0
    2.2656   -1.5534   -2.9314 H   0  0  0  0  0  0  0  0  0  0  0  0
    3.1436   -3.0090   -2.5163 H   0  0  0  0  0  0  0  0  0  0  0  0
    5.2563   -1.5127   -2.2355 H   0  0  0  0  0  0  0  0  0  0  0  0
    4.2169   -0.1283   -2.4838 H   0  0  0  0  0  0  0  0  0  0  0  0
    4.6422   -0.4907   -0.0682 H   0  0  0  0  0  0  0  0  0  0  0  0
    2.9582   -0.6627   -0.4355 H   0  0  0  0  0  0  0  0  0  0  0  0
    1.8024   -2.8239   -0.4999 H   0  0  0  0  0  0  0  0  0  0  0  0
    2.7942   -4.3605   -0.4262 H   0  0  0  0  0  0  0  0  0  0  0  0
    0.6374   -1.8498    1.5686 H   0  0  0  0  0  0  0  0  0  0  0  0
    0.1301    0.1631    2.9077 H   0  0  0  0  0  0  0  0  0  0  0  0
    1.8706    1.3841    4.0956 H   0  0  0  0  0  0  0  0  0  0  0  0
    4.2249    0.7129    4.0615 H   0  0  0  0  0  0  0  0  0  0  0  0
    5.8872    0.5418    2.5485 H   0  0  0  0  0  0  0  0  0  0  0  0
    7.1472   -0.6360    2.7297 H   0  0  0  0  0  0  0  0  0  0  0  0
    6.1324   -0.2830    4.0970 H   0  0  0  0  0  0  0  0  0  0  0  0
    6.8460   -4.7197    1.6158 H   0  0  0  0  0  0  0  0  0  0  0  0
    6.3186   -4.9984    3.0875 H   0  0  0  0  0  0  0  0  0  0  0  0
    2.4093   -4.7545    2.0343 H   0  0  0  0  0  0  0  0  0  0  0  0
   -0.2997   -5.0709    4.4386 H   0  0  0  0  0  0  0  0  0  0  0  0
    0.4370   -4.2258    5.8114 H   0  0  0  0  0  0  0  0  0  0  0  0
    0.8944   -5.9074    5.4381 H   0  0  0  0  0  0  0  0  0  0  0  0
  1  2  1  0
  1 30  1  0
  1 31  1  0
  1 32  1  0
  2  3  1  0
  2 33  1  0
  2 34  1  0
  3  4  1  0
  3 35  1  0
  3 36  1  0
  5  4  1  6
  4 37  1  0
  4 38  1  0
  5  7  1  0
  5 29  1  0
  5  6  1  0
  7  6  1  6
  6 39  1  0
  6 40  1  0
  7 19  1  0
  7  8  1  0
  8 13  2  0
  8  9  1  0
  9 10  2  0
  9 41  1  0
 10 11  1  0
 10 42  1  0
 11 12  2  0
 11 43  1  0
 12 13  1  0
 12 44  1  0
 13 14  1  0
 14 15  1  0
 16 14  1  6
 15 45  1  0
 15 46  1  0
 15 47  1  0
 16 25  1  0
 16 17  1  0
 16 27  1  0
 17 18  1  0
 17 48  1  0
 17 49  1  0
 18 19  1  0
 19 20  1  0
 19 50  1  1
 20 21  1  0
 20 25  1  0
 21 22  2  0
 21 23  1  0
 23 24  1  0
 24 51  1  0
 24 52  1  0
 24 53  1  0
 25 26  2  0
 27 28  2  0
 27 29  1  0
M  END
>  <i_m_ct_stereo_status>  (141) 
1

>  <s_m_source_file>  (141) 
/var/tmp/pbs.5076255.sched01/tmp9vbryffn/46pprzbbw9.sdf

>  <i_m_source_file_index>  (141) 
15

>  <i_lp_mmshare_version>  (141) 
48012

>  <i_f3d_flags>  (141) 
2

>  <s_epik_input>  (141) 
W0NIM11bQ0gyXVtDSDJdW0NIMl1bQ0BdKFtDQEBdMTIzKShbQ0gyXTEpT0MoPU8pQzQoTihbQ0gzXSljNWMyW2NIXVtjSF1bY0hdW2NIXTUpW0NIMl1TW0NAQEhdM04oQzQ9TylDKD1PKU9bQ0gzXQ==

>  <s_epik_cmdline>  (141) 
J2VwaWtfcHl0aG9uJywgJy1waHQnLCAnMi4wJywgJy1waCcsICc3LjAnLCAnLXRuJywgJzgnLCAnLW1hJywgJzIwMCcsICctaW1hZScsICc8aW5maWxlLm1hZT4nLCAnLW9tYWUnLCAnPG91dGZpbGUubWFlPic=

>  <r_lp_tautomer_probability>  (141) 
1

>  <r_epik_Ionization_Penalty>  (141) 
6.64027e-12

>  <r_epik_Ionization_Penalty_Charging>  (141) 
0

>  <r_epik_Ionization_Penalty_Neutral>  (141) 
6.64027e-12

>  <r_epik_State_Penalty>  (141) 
-0

>  <r_epik_Charging_Adjusted_Penalty>  (141) 
0

>  <i_epik_Tot_Q>  (141) 
0

>  <i_epik_Tot_abs_Q>  (141) 
0

>  <s_epik_Chemistry_Notes>  (141) 
This compound has an ester and may undergo hydrolysis at high or low pH. This compound contains an acetal/aminal-like group ( X-CH(R)-Y where X, Y are N, S, or O) that may be acid/base labile, releasing an aldehyde.

>  <s_lp_Force_Field>  (141) 
OPLS3e

>  <r_lp_Energy>  (141) 
257.958

>  <b_lp_Chiralities_Consistent>  (141) 
0

>  <s_lp_Variant>  (141) 
36:0-2

>  <s_i_glide_gridfile>  (141) 
pfpi4k_grid

>  <i_i_glide_lignum>  (141) 
15

>  <i_i_glide_rotatable_bonds>  (141) 
5

>  <r_i_docking_score>  (141) 
-2.10476

>  <r_i_glide_ligand_efficiency>  (141) 
-0.0725778

>  <r_i_glide_ligand_efficiency_sa>  (141) 
-0.222982

>  <r_i_glide_ligand_efficiency_ln>  (141) 
-0.481936

>  <r_i_glide_gscore>  (141) 
-2.10476

>  <r_i_glide_lipo>  (141) 
-0.172463

>  <r_i_glide_hbond>  (141) 
0

>  <r_i_glide_metal>  (141) 
-0

>  <r_i_glide_rewards>  (141) 
-0.885736

>  <r_i_glide_evdw>  (141) 
-22.6222

>  <r_i_glide_ecoul>  (141) 
-1.71419

>  <r_i_glide_erotb>  (141) 
0.341679

>  <r_i_glide_esite>  (141) 
0

>  <r_i_glide_emodel>  (141) 
-25.639

>  <r_i_glide_energy>  (141) 
-24.3364

>  <r_i_glide_einternal>  (141) 
1.35762

>  <r_i_glide_intrahb_reward>  (141) 
-0

>  <i_i_glide_confnum>  (141) 
2

>  <i_i_glide_posenum>  (141) 
10

>  <r_i_glide_eff_state_penalty>  (141) 
0

>  <ligand_id>  (141) 
36

>  <original_smiles>  (141) 
CCCCC12CC13c1ccccc1N(C)C1(CSC3N(C(=O)OC)C1=O)C(=O)O2

>  <smiles>  (141) 
[H]c1c([H])c([H])c2c(c1[H])N(C([H])([H])[H])C13C(=O)OC4(C([H])([H])C([H])([H])C([H])([H])C([H])([H])[H])C([H])([H])C24C([H])(SC1([H])[H])N(C(=O)OC([H])([H])[H])C3=O

$$$$
36:1:1
     RDKit          3D

 53 57  0  0  1  0  0  0  0  0999 V2000
    4.1484    0.3260   -4.0201 C   0  0  0  0  0  0  0  0  0  0  0  0
    2.7998   -0.3399   -3.8193 C   0  0  0  0  0  0  0  0  0  0  0  0
    2.9079   -1.7528   -3.2398 C   0  0  0  0  0  0  0  0  0  0  0  0
    3.3277   -1.7502   -1.7584 C   0  0  0  0  0  0  0  0  0  0  0  0
    3.2444   -3.1427   -1.1423 C   0  0  2  0  0  0  0  0  0  0  0  0
    1.9097   -3.7386   -0.8666 C   0  0  0  0  0  0  0  0  0  0  0  0
    2.8765   -3.5038    0.2891 C   0  0  2  0  0  0  0  0  0  0  0  0
    3.0168   -2.3149    1.1778 C   0  0  0  0  0  0  0  0  0  0  0  0
    1.8647   -1.7227    1.7051 C   0  0  0  0  0  0  0  0  0  0  0  0
    2.0905   -0.5692    2.4838 C   0  0  0  0  0  0  0  0  0  0  0  0
    3.3757   -0.0902    2.7520 C   0  0  0  0  0  0  0  0  0  0  0  0
    4.5474   -0.7119    2.2681 C   0  0  0  0  0  0  0  0  0  0  0  0
    4.3227   -1.8239    1.4329 C   0  0  0  0  0  0  0  0  0  0  0  0
    5.4762   -2.4152    0.7191 N   0  0  0  0  0  0  0  0  0  0  0  0
    6.6775   -1.5806    0.8336 C   0  0  0  0  0  0  0  0  0  0  0  0
    5.8794   -3.8805    0.6536 C   0  0  2  0  0  0  0  0  0  0  0  0
    5.5763   -5.4633    0.2402 C   0  0  0  0  0  0  0  0  0  0  0  0
    3.8828   -6.1677    0.1996 S   0  0  0  0  0  0  0  0  0  0  0  0
    3.1221   -4.8026    1.0877 C   0  0  1  0  0  0  0  0  0  0  0  0
    3.9805   -4.6640    2.2833 N   0  0  0  0  0  0  0  0  0  0  0  0
    3.5275   -4.9527    3.5394 C   0  0  0  0  0  0  0  0  0  0  0  0
    4.2078   -5.1727    4.5493 O   0  0  0  0  0  0  0  0  0  0  0  0
    2.1850   -4.9105    3.5295 O   0  0  0  0  0  0  0  0  0  0  0  0
    1.4797   -5.2063    4.7048 C   0  0  0  0  0  0  0  0  0  0  0  0
    5.2930   -4.3492    2.0420 C   0  0  0  0  0  0  0  0  0  0  0  0
    6.1710   -4.4586    2.8962 O   0  0  0  0  0  0  0  0  0  0  0  0
    5.5829   -3.7040   -0.9225 C   0  0  0  0  0  0  0  0  0  0  0  0
    6.5498   -3.4541   -1.6460 O   0  0  0  0  0  0  0  0  0  0  0  0
    4.3615   -3.8965   -1.5161 O   0  0  0  0  0  0  0  0  0  0  0  0
    4.0538    1.3364   -4.4181 H   0  0  0  0  0  0  0  0  0  0  0  0
    4.7177   -0.2789   -4.7262 H   0  0  0  0  0  0  0  0  0  0  0  0
    4.6677    0.3975   -3.0667 H   0  0  0  0  0  0  0  0  0  0  0  0
    2.2135    0.2388   -3.1198 H   0  0  0  0  0  0  0  0  0  0  0  0
    2.2525   -0.3449   -4.7628 H   0  0  0  0  0  0  0  0  0  0  0  0
    1.9255   -2.2215   -3.3173 H   0  0  0  0  0  0  0  0  0  0  0  0
    3.5886   -2.3614   -3.8341 H   0  0  0  0  0  0  0  0  0  0  0  0
    4.3238   -1.3321   -1.6089 H   0  0  0  0  0  0  0  0  0  0  0  0
    2.6559   -1.0950   -1.2141 H   0  0  0  0  0  0  0  0  0  0  0  0
    1.0589   -3.0873   -1.0134 H   0  0  0  0  0  0  0  0  0  0  0  0
    1.7529   -4.7697   -1.1957 H   0  0  0  0  0  0  0  0  0  0  0  0
    0.8576   -1.9896    1.4825 H   0  0  0  0  0  0  0  0  0  0  0  0
    1.2365   -0.0338    2.8408 H   0  0  0  0  0  0  0  0  0  0  0  0
    3.4582    0.8080    3.3325 H   0  0  0  0  0  0  0  0  0  0  0  0
    5.4964   -0.2517    2.5048 H   0  0  0  0  0  0  0  0  0  0  0  0
    6.4999   -0.5791    0.4439 H   0  0  0  0  0  0  0  0  0  0  0  0
    7.5346   -1.9908    0.2924 H   0  0  0  0  0  0  0  0  0  0  0  0
    6.9716   -1.5183    1.8790 H   0  0  0  0  0  0  0  0  0  0  0  0
    6.0644   -5.8505   -0.6481 H   0  0  0  0  0  0  0  0  0  0  0  0
    6.1178   -6.1580    0.9096 H   0  0  0  0  0  0  0  0  0  0  0  0
    2.1211   -5.2134    1.2535 H   0  0  0  0  0  0  0  0  0  0  0  0
    0.4197   -5.1443    4.4799 H   0  0  0  0  0  0  0  0  0  0  0  0
    1.7224   -4.4862    5.4875 H   0  0  0  0  0  0  0  0  0  0  0  0
    1.7076   -6.2167    5.0491 H   0  0  0  0  0  0  0  0  0  0  0  0
  1  2  1  0
  1 30  1  0
  1 31  1  0
  1 32  1  0
  2  3  1  0
  2 33  1  0
  2 34  1  0
  3  4  1  0
  3 35  1  0
  3 36  1  0
  5  4  1  1
  4 37  1  0
  4 38  1  0
  5  7  1  0
  5 29  1  0
  5  6  1  0
  7  6  1  6
  6 39  1  0
  6 40  1  0
  7 19  1  0
  7  8  1  0
  8 13  2  0
  8  9  1  0
  9 10  2  0
  9 41  1  0
 10 11  1  0
 10 42  1  0
 11 12  2  0
 11 43  1  0
 12 13  1  0
 12 44  1  0
 13 14  1  0
 14 15  1  0
 16 14  1  6
 15 45  1  0
 15 46  1  0
 15 47  1  0
 16 25  1  0
 16 17  1  0
 16 27  1  0
 17 18  1  0
 17 48  1  0
 17 49  1  0
 18 19  1  0
 19 20  1  0
 19 50  1  1
 20 21  1  0
 20 25  1  0
 21 22  2  0
 21 23  1  0
 23 24  1  0
 24 51  1  0
 24 52  1  0
 24 53  1  0
 25 26  2  0
 27 28  2  0
 27 29  1  0
M  END
>  <i_m_ct_stereo_status>  (142) 
1

>  <s_m_source_file>  (142) 
/var/tmp/pbs.5076255.sched01/tmp9vbryffn/46pprzbbw9.sdf

>  <i_m_source_file_index>  (142) 
15

>  <i_lp_mmshare_version>  (142) 
48012

>  <i_f3d_flags>  (142) 
2

>  <s_epik_input>  (142) 
W0NIM11bQ0gyXVtDSDJdW0NIMl1bQ0BdKFtDQEBdMTIzKShbQ0gyXTEpT0MoPU8pQzQoTihbQ0gzXSljNWMyW2NIXVtjSF1bY0hdW2NIXTUpW0NIMl1TW0NAQEhdM04oQzQ9TylDKD1PKU9bQ0gzXQ==

>  <s_epik_cmdline>  (142) 
J2VwaWtfcHl0aG9uJywgJy1waHQnLCAnMi4wJywgJy1waCcsICc3LjAnLCAnLXRuJywgJzgnLCAnLW1hJywgJzIwMCcsICctaW1hZScsICc8aW5maWxlLm1hZT4nLCAnLW9tYWUnLCAnPG91dGZpbGUubWFlPic=

>  <r_lp_tautomer_probability>  (142) 
1

>  <r_epik_Ionization_Penalty>  (142) 
6.64027e-12

>  <r_epik_Ionization_Penalty_Charging>  (142) 
0

>  <r_epik_Ionization_Penalty_Neutral>  (142) 
6.64027e-12

>  <r_epik_State_Penalty>  (142) 
-0

>  <r_epik_Charging_Adjusted_Penalty>  (142) 
0

>  <i_epik_Tot_Q>  (142) 
0

>  <i_epik_Tot_abs_Q>  (142) 
0

>  <s_epik_Chemistry_Notes>  (142) 
This compound has an ester and may undergo hydrolysis at high or low pH. This compound contains an acetal/aminal-like group ( X-CH(R)-Y where X, Y are N, S, or O) that may be acid/base labile, releasing an aldehyde.

>  <s_lp_Force_Field>  (142) 
OPLS3e

>  <r_lp_Energy>  (142) 
257.958

>  <b_lp_Chiralities_Consistent>  (142) 
0

>  <s_lp_Variant>  (142) 
36:0-2

>  <s_i_glide_gridfile>  (142) 
pfpi4k_grid

>  <i_i_glide_lignum>  (142) 
15

>  <i_i_glide_rotatable_bonds>  (142) 
5

>  <r_i_docking_score>  (142) 
-1.94969

>  <r_i_glide_ligand_efficiency>  (142) 
-0.0672307

>  <r_i_glide_ligand_efficiency_sa>  (142) 
-0.206554

>  <r_i_glide_ligand_efficiency_ln>  (142) 
-0.446429

>  <r_i_glide_gscore>  (142) 
-1.94969

>  <r_i_glide_lipo>  (142) 
-0.65816

>  <r_i_glide_hbond>  (142) 
0

>  <r_i_glide_metal>  (142) 
-0

>  <r_i_glide_rewards>  (142) 
-0.762322

>  <r_i_glide_evdw>  (142) 
-15.3789

>  <r_i_glide_ecoul>  (142) 
-0.679612

>  <r_i_glide_erotb>  (142) 
0.341679

>  <r_i_glide_esite>  (142) 
0

>  <r_i_glide_emodel>  (142) 
-17.0343

>  <r_i_glide_energy>  (142) 
-16.0585

>  <r_i_glide_einternal>  (142) 
1.33795

>  <r_i_glide_intrahb_reward>  (142) 
-0

>  <i_i_glide_confnum>  (142) 
1

>  <i_i_glide_posenum>  (142) 
6

>  <r_i_glide_eff_state_penalty>  (142) 
0

>  <ligand_id>  (142) 
36

>  <original_smiles>  (142) 
CCCCC12CC13c1ccccc1N(C)C1(CSC3N(C(=O)OC)C1=O)C(=O)O2

>  <smiles>  (142) 
[H]c1c([H])c([H])c2c(c1[H])N(C([H])([H])[H])C13C(=O)OC4(C([H])([H])C([H])([H])C([H])([H])C([H])([H])[H])C([H])([H])C24C([H])(SC1([H])[H])N(C(=O)OC([H])([H])[H])C3=O

$$$$
37:1:0
     RDKit          3D

 80 83  0  0  1  0  0  0  0  0999 V2000
    7.1261   -3.4398    0.9803 C   0  0  0  0  0  0  0  0  0  0  0  0
    6.2382   -2.7690    0.2345 C   0  0  0  0  0  0  0  0  0  0  0  0
    5.2435   -1.8158    0.8017 C   0  0  0  0  0  0  0  0  0  0  0  0
    5.4464   -1.2323    2.0288 C   0  0  0  0  0  0  0  0  0  0  0  0
    4.5550   -0.2815    2.6905 C   0  0  0  0  0  0  0  0  0  0  0  0
    4.5681    0.0610    4.0019 C   0  0  0  0  0  0  0  0  0  0  0  0
    5.4132   -0.5834    5.0800 C   0  0  1  0  0  0  0  0  0  0  0  0
    6.7585    0.1611    5.3768 C   0  0  2  0  0  0  0  0  0  0  0  0
    7.5636   -0.4715    6.5454 C   0  0  0  0  0  0  0  0  0  0  0  0
    6.6714    1.5063    5.7462 O   0  0  0  0  0  0  0  0  0  0  0  0
    4.4102   -0.6818    6.2417 C   0  0  0  0  0  0  0  0  0  0  0  0
    3.4497    0.5231    6.1621 C   0  0  1  0  0  0  0  0  0  0  0  0
    2.0053    0.0953    6.4888 C   0  0  0  0  0  0  0  0  0  0  0  0
    3.8633    1.6432    7.1744 C   0  0  0  0  0  0  0  0  0  0  0  0
    3.1433    2.9964    6.8982 C   0  0  0  0  0  0  0  0  0  0  0  0
    3.0256    3.3444    5.4077 C   0  0  0  0  0  0  0  0  0  0  0  0
    2.3849    4.3236    4.9321 N   0  0  0  0  0  0  0  0  0  0  0  0
    1.7393    5.0538    5.9288 O   0  0  0  0  0  0  0  0  0  0  0  0
    0.7400    5.8187    5.2909 C   0  0  0  0  0  0  0  0  0  0  0  0
   -0.3774    4.9008    5.0027 C   0  0  0  0  0  0  0  0  0  0  0  0
   -0.7450    4.5126    3.7571 N   0  0  0  0  0  0  0  0  0  0  0  0
   -1.7712    3.7299    3.9335 N   0  0  0  0  0  0  0  0  0  0  0  0
   -1.9744    3.7102    5.2636 N   0  0  0  0  0  0  0  0  0  0  0  0
   -3.0815    2.9979    5.8216 C   0  0  0  0  0  0  0  0  0  0  0  0
   -2.6064    1.6915    6.5248 C   0  0  0  0  0  0  0  0  0  0  0  0
   -1.6475    1.8966    7.7270 C   0  0  0  0  0  0  0  0  0  0  0  0
   -2.1727    2.7229    8.9188 C   0  0  0  0  0  0  0  0  0  0  0  0
   -3.2619    3.2988    8.9099 O   0  0  0  0  0  0  0  0  0  0  0  0
   -1.3017    2.7350    9.9339 O   0  0  0  0  0  0  0  0  0  0  0  0
   -1.6129    3.4810   11.0945 C   0  0  0  0  0  0  0  0  0  0  0  0
   -1.0808    4.3964    5.9866 N   0  0  0  0  0  0  0  0  0  0  0  0
    3.8290    2.4640    4.4942 C   0  0  0  0  0  0  0  0  0  0  0  0
    3.5261    0.9639    4.6694 C   0  0  1  0  0  0  0  0  0  0  0  0
    3.9594   -1.5552   -0.0052 C   0  0  0  0  0  0  0  0  0  0  0  0
    4.1316   -1.6958   -1.5343 C   0  0  1  0  0  0  0  0  0  0  0  0
    4.8582   -0.6142   -2.0787 O   0  0  0  0  0  0  0  0  0  0  0  0
    4.8648   -2.9848   -1.9147 C   0  0  0  0  0  0  0  0  0  0  0  0
    6.2557   -3.0601   -1.2521 C   0  0  1  0  0  0  0  0  0  0  0  0
    7.2367   -2.2642   -1.9011 O   0  0  0  0  0  0  0  0  0  0  0  0
    7.8281   -4.1042    0.4982 H   0  0  0  0  0  0  0  0  0  0  0  0
    7.1447   -3.3200    2.0344 H   0  0  0  0  0  0  0  0  0  0  0  0
    6.3484   -1.4527    2.5752 H   0  0  0  0  0  0  0  0  0  0  0  0
    3.8044    0.2164    2.1075 H   0  0  0  0  0  0  0  0  0  0  0  0
    5.6385   -1.5934    4.7489 H   0  0  0  0  0  0  0  0  0  0  0  0
    7.3671    0.1979    4.4650 H   0  0  0  0  0  0  0  0  0  0  0  0
    7.8832   -1.5053    6.4236 H   0  0  0  0  0  0  0  0  0  0  0  0
    6.9856   -0.4627    7.4686 H   0  0  0  0  0  0  0  0  0  0  0  0
    8.4474    0.1328    6.7711 H   0  0  0  0  0  0  0  0  0  0  0  0
    7.5730    1.7695    5.9212 H   0  0  0  0  0  0  0  0  0  0  0  0
    3.8282   -1.5936    6.0808 H   0  0  0  0  0  0  0  0  0  0  0  0
    4.8523   -0.8052    7.2226 H   0  0  0  0  0  0  0  0  0  0  0  0
    1.3118    0.9368    6.3789 H   0  0  0  0  0  0  0  0  0  0  0  0
    1.9420   -0.2472    7.5233 H   0  0  0  0  0  0  0  0  0  0  0  0
    1.6461   -0.7089    5.8382 H   0  0  0  0  0  0  0  0  0  0  0  0
    3.5849    1.3197    8.1938 H   0  0  0  0  0  0  0  0  0  0  0  0
    4.9466    1.8216    7.1635 H   0  0  0  0  0  0  0  0  0  0  0  0
    2.1323    3.0096    7.3170 H   0  0  0  0  0  0  0  0  0  0  0  0
    3.7232    3.7859    7.3841 H   0  0  0  0  0  0  0  0  0  0  0  0
    0.3959    6.5576    5.9977 H   0  0  0  0  0  0  0  0  0  0  0  0
    1.0618    6.3251    4.3792 H   0  0  0  0  0  0  0  0  0  0  0  0
   -3.5843    3.6190    6.5442 H   0  0  0  0  0  0  0  0  0  0  0  0
   -3.7997    2.9473    4.9884 H   0  0  0  0  0  0  0  0  0  0  0  0
   -3.4580    1.1177    6.8924 H   0  0  0  0  0  0  0  0  0  0  0  0
   -2.1190    1.0520    5.7853 H   0  0  0  0  0  0  0  0  0  0  0  0
   -1.3486    0.9266    8.1191 H   0  0  0  0  0  0  0  0  0  0  0  0
   -0.7267    2.3636    7.3759 H   0  0  0  0  0  0  0  0  0  0  0  0
   -0.8366    3.3266   11.8432 H   0  0  0  0  0  0  0  0  0  0  0  0
   -2.5762    3.1840   11.5082 H   0  0  0  0  0  0  0  0  0  0  0  0
   -1.6704    4.5409   10.8493 H   0  0  0  0  0  0  0  0  0  0  0  0
    3.6821    2.7840    3.4536 H   0  0  0  0  0  0  0  0  0  0  0  0
    4.8377    2.6555    4.8422 H   0  0  0  0  0  0  0  0  0  0  0  0
    2.5895    0.7520    4.1432 H   0  0  0  0  0  0  0  0  0  0  0  0
    3.2133   -2.2768    0.3390 H   0  0  0  0  0  0  0  0  0  0  0  0
    3.5517   -0.5577    0.1645 H   0  0  0  0  0  0  0  0  0  0  0  0
    3.1375   -1.6767   -1.9862 H   0  0  0  0  0  0  0  0  0  0  0  0
    4.5223    0.1885   -1.6980 H   0  0  0  0  0  0  0  0  0  0  0  0
    4.2573   -3.8177   -1.5644 H   0  0  0  0  0  0  0  0  0  0  0  0
    4.9372   -3.1006   -3.0032 H   0  0  0  0  0  0  0  0  0  0  0  0
    6.5456   -4.1067   -1.3368 H   0  0  0  0  0  0  0  0  0  0  0  0
    7.5352   -2.7306   -2.6832 H   0  0  0  0  0  0  0  0  0  0  0  0
  1  2  2  0
  1 40  1  0
  1 41  1  0
  2 38  1  0
  2  3  1  0
  3  4  2  3
  3 34  1  0
  4  5  1  0
  4 42  1  0
  5  6  2  3
  5 43  1  0
  6 33  1  0
  6  7  1  0
  7  8  1  0
  7 11  1  0
  7 44  1  6
  8  9  1  0
  8 10  1  0
  8 45  1  6
  9 46  1  0
  9 47  1  0
  9 48  1  0
 10 49  1  0
 11 12  1  0
 11 50  1  0
 11 51  1  0
 12 33  1  0
 12 13  1  1
 12 14  1  0
 13 52  1  0
 13 53  1  0
 13 54  1  0
 14 15  1  0
 14 55  1  0
 14 56  1  0
 15 16  1  0
 15 57  1  0
 15 58  1  0
 16 17  2  3
 16 32  1  0
 17 18  1  0
 18 19  1  0
 19 20  1  0
 19 59  1  0
 19 60  1  0
 20 31  2  0
 20 21  1  0
 21 22  2  0
 22 23  1  0
 23 24  1  0
 23 31  1  0
 24 25  1  0
 24 61  1  0
 24 62  1  0
 25 26  1  0
 25 63  1  0
 25 64  1  0
 26 27  1  0
 26 65  1  0
 26 66  1  0
 27 28  2  0
 27 29  1  0
 29 30  1  0
 30 67  1  0
 30 68  1  0
 30 69  1  0
 32 33  1  0
 32 70  1  0
 32 71  1  0
 33 72  1  6
 34 35  1  0
 34 73  1  0
 34 74  1  0
 35 36  1  0
 35 37  1  0
 35 75  1  6
 36 76  1  0
 37 38  1  0
 37 77  1  0
 37 78  1  0
 38 39  1  0
 38 79  1  1
 39 80  1  0
M  END
>  <i_m_ct_stereo_status>  (143) 
1

>  <s_m_source_file>  (143) 
/var/tmp/pbs.5076255.sched01/tmp9vbryffn/46pprzbbw9.sdf

>  <i_m_source_file_index>  (143) 
17

>  <i_lp_mmshare_version>  (143) 
48012

>  <i_f3d_flags>  (143) 
0

>  <s_epik_input>  (143) 
W09IXVtDQEBIXTFbQ0gyXVtDQEhdKFtPSF0pW0NIMl1DKFxDMT1bQ0gyXSk9W0NIXVxbQ0hdPUMoL1tDQEhdKFtDSDJdMilbQ0BIXShbQ0gzXSlbT0hdKVtDQEBIXShbQ0BAXTIzW0NIM10pW0NIMl1DKFxbQ0gyXVtDSDJdMyk9TlxPW0NIMl1jNG5ubihuNClbQ0gyXVtDSDJdW0NIMl1DKD1PKU9bQ0gzXQ==

>  <s_epik_cmdline>  (143) 
J2VwaWtfcHl0aG9uJywgJy1waHQnLCAnMi4wJywgJy1waCcsICc3LjAnLCAnLXRuJywgJzgnLCAnLW1hJywgJzIwMCcsICctaW1hZScsICc8aW5maWxlLm1hZT4nLCAnLW9tYWUnLCAnPG91dGZpbGUubWFlPic=

>  <r_lp_tautomer_probability>  (143) 
1

>  <r_epik_Ionization_Penalty>  (143) 
5.38978e-07

>  <r_epik_Ionization_Penalty_Charging>  (143) 
0

>  <r_epik_Ionization_Penalty_Neutral>  (143) 
5.38978e-07

>  <r_epik_State_Penalty>  (143) 
-0

>  <r_epik_Charging_Adjusted_Penalty>  (143) 
0

>  <i_epik_Tot_Q>  (143) 
0

>  <i_epik_Tot_abs_Q>  (143) 
0

>  <s_epik_Chemistry_Notes>  (143) 
This compound has an ester and may undergo hydrolysis at high or low pH. This compound has an imine and may undergo hydrolysis.

>  <s_lp_Force_Field>  (143) 
OPLS3e

>  <r_lp_Energy>  (143) 
34.8827

>  <b_lp_Chiralities_Consistent>  (143) 
1

>  <s_lp_Variant>  (143) 
37:0-2

>  <s_i_glide_gridfile>  (143) 
pfpi4k_grid

>  <i_i_glide_lignum>  (143) 
17

>  <i_i_glide_rotatable_bonds>  (143) 
13

>  <r_i_docking_score>  (143) 
-2.81159

>  <r_i_glide_ligand_efficiency>  (143) 
-0.0720922

>  <r_i_glide_ligand_efficiency_sa>  (143) 
-0.24448

>  <r_i_glide_ligand_efficiency_ln>  (143) 
-0.602886

>  <r_i_glide_gscore>  (143) 
-2.81159

>  <r_i_glide_lipo>  (143) 
-0.838265

>  <r_i_glide_hbond>  (143) 
0

>  <r_i_glide_metal>  (143) 
-0

>  <r_i_glide_rewards>  (143) 
0

>  <r_i_glide_evdw>  (143) 
-22.4654

>  <r_i_glide_ecoul>  (143) 
-8.10471

>  <r_i_glide_erotb>  (143) 
0.630133

>  <r_i_glide_esite>  (143) 
-0.264486

>  <r_i_glide_emodel>  (143) 
-25.7579

>  <r_i_glide_energy>  (143) 
-30.5701

>  <r_i_glide_einternal>  (143) 
8.3709

>  <r_i_glide_intrahb_reward>  (143) 
-0

>  <i_i_glide_confnum>  (143) 
13

>  <i_i_glide_posenum>  (143) 
5

>  <r_i_glide_eff_state_penalty>  (143) 
0

>  <ligand_id>  (143) 
37

>  <original_smiles>  (143) 
C=C1C(=CC=C2C(C(C)O)CC3(C)CCC(=NOCc4nnn(CCCC(=O)OC)n4)CC23)CC(O)CC1O

>  <smiles>  (143) 
[H]OC1([H])C(=C([H])[H])C(=C([H])C([H])=C2C([H])(C([H])(O[H])C([H])([H])[H])C([H])([H])C3(C([H])([H])[H])C([H])([H])C([H])([H])C(=NOC([H])([H])c4nnn(C([H])([H])C([H])([H])C([H])([H])C(=O)OC([H])([H])[H])n4)C([H])([H])C23[H])C([H])([H])C([H])(O[H])C1([H])[H]

$$$$
37:1:1
     RDKit          3D

 80 83  0  0  1  0  0  0  0  0999 V2000
    0.3608  -10.0643    4.9447 C   0  0  0  0  0  0  0  0  0  0  0  0
   -0.0361   -9.1047    4.0923 C   0  0  0  0  0  0  0  0  0  0  0  0
    0.9737   -8.1324    3.6371 C   0  0  0  0  0  0  0  0  0  0  0  0
    2.2933   -8.4176    3.7171 C   0  0  0  0  0  0  0  0  0  0  0  0
    3.3842   -7.5506    3.2950 C   0  0  0  0  0  0  0  0  0  0  0  0
    4.6859   -7.8089    3.5070 C   0  0  0  0  0  0  0  0  0  0  0  0
    5.2662   -8.9463    4.3240 C   0  0  1  0  0  0  0  0  0  0  0  0
    5.6465  -10.1869    3.4651 C   0  0  2  0  0  0  0  0  0  0  0  0
    6.3177  -11.3024    4.2749 C   0  0  0  0  0  0  0  0  0  0  0  0
    6.5436   -9.9338    2.3836 O   0  0  0  0  0  0  0  0  0  0  0  0
    6.4109   -8.2219    5.0732 C   0  0  0  0  0  0  0  0  0  0  0  0
    6.9463   -7.0994    4.1630 C   0  0  1  0  0  0  0  0  0  0  0  0
    7.2625   -5.8806    5.0087 C   0  0  0  0  0  0  0  0  0  0  0  0
    8.2774   -7.5101    3.4527 C   0  0  0  0  0  0  0  0  0  0  0  0
    8.6273   -6.5210    2.3539 C   0  0  0  0  0  0  0  0  0  0  0  0
    7.4888   -6.1625    1.4170 C   0  0  0  0  0  0  0  0  0  0  0  0
    7.6130   -5.3711    0.4663 N   0  0  0  0  0  0  0  0  0  0  0  0
    8.8418   -4.6948    0.4421 O   0  0  0  0  0  0  0  0  0  0  0  0
    8.7728   -3.6200   -0.4977 C   0  0  0  0  0  0  0  0  0  0  0  0
    7.6935   -2.6737   -0.1026 C   0  0  0  0  0  0  0  0  0  0  0  0
    7.8845   -1.4824    0.5170 N   0  0  0  0  0  0  0  0  0  0  0  0
    6.7121   -0.9975    0.7259 N   0  0  0  0  0  0  0  0  0  0  0  0
    5.8414   -1.8723    0.2316 N   0  0  0  0  0  0  0  0  0  0  0  0
    4.4229   -1.6360    0.2016 C   0  0  0  0  0  0  0  0  0  0  0  0
    4.0114   -0.8971   -1.0773 C   0  0  0  0  0  0  0  0  0  0  0  0
    4.5380   -1.4245   -2.4229 C   0  0  0  0  0  0  0  0  0  0  0  0
    4.1697   -2.8742   -2.7180 C   0  0  0  0  0  0  0  0  0  0  0  0
    3.4832   -3.5299   -1.9407 O   0  0  0  0  0  0  0  0  0  0  0  0
    4.6994   -3.3094   -3.8732 O   0  0  0  0  0  0  0  0  0  0  0  0
    4.5593   -4.6641   -4.2455 C   0  0  0  0  0  0  0  0  0  0  0  0
    6.4108   -2.9297   -0.3620 N   0  0  0  0  0  0  0  0  0  0  0  0
    6.1761   -6.8884    1.6537 C   0  0  0  0  0  0  0  0  0  0  0  0
    5.7821   -6.8223    3.1500 C   0  0  1  0  0  0  0  0  0  0  0  0
    0.4893   -6.8052    3.0779 C   0  0  0  0  0  0  0  0  0  0  0  0
   -0.8005   -6.9715    2.3148 C   0  0  1  0  0  0  0  0  0  0  0  0
   -0.4990   -7.6110    1.1322 O   0  0  0  0  0  0  0  0  0  0  0  0
   -1.9082   -7.6070    3.1759 C   0  0  0  0  0  0  0  0  0  0  0  0
   -1.4830   -9.0320    3.5331 C   0  0  1  0  0  0  0  0  0  0  0  0
   -1.6096   -9.8619    2.3889 O   0  0  0  0  0  0  0  0  0  0  0  0
   -0.2021  -10.8871    5.2706 H   0  0  0  0  0  0  0  0  0  0  0  0
    1.3466  -10.1835    5.3678 H   0  0  0  0  0  0  0  0  0  0  0  0
    2.6028   -9.3633    4.1127 H   0  0  0  0  0  0  0  0  0  0  0  0
    3.1581   -6.6378    2.7706 H   0  0  0  0  0  0  0  0  0  0  0  0
    4.5418   -9.2573    5.0781 H   0  0  0  0  0  0  0  0  0  0  0  0
    4.7345  -10.5723    3.0050 H   0  0  0  0  0  0  0  0  0  0  0  0
    5.6429  -11.7167    5.0259 H   0  0  0  0  0  0  0  0  0  0  0  0
    7.2216  -10.9547    4.7888 H   0  0  0  0  0  0  0  0  0  0  0  0
    6.6402  -12.1124    3.6171 H   0  0  0  0  0  0  0  0  0  0  0  0
    6.4550  -10.6162    1.7719 H   0  0  0  0  0  0  0  0  0  0  0  0
    5.9656   -7.7424    5.9564 H   0  0  0  0  0  0  0  0  0  0  0  0
    7.1949   -8.8718    5.4604 H   0  0  0  0  0  0  0  0  0  0  0  0
    7.6199   -5.0640    4.3351 H   0  0  0  0  0  0  0  0  0  0  0  0
    8.0758   -6.0403    5.6959 H   0  0  0  0  0  0  0  0  0  0  0  0
    6.4168   -5.4652    5.5239 H   0  0  0  0  0  0  0  0  0  0  0  0
    9.0980   -7.6045    4.1702 H   0  0  0  0  0  0  0  0  0  0  0  0
    8.2557   -8.5122    2.9974 H   0  0  0  0  0  0  0  0  0  0  0  0
    9.1234   -5.6229    2.7304 H   0  0  0  0  0  0  0  0  0  0  0  0
    9.2449   -7.0874    1.6873 H   0  0  0  0  0  0  0  0  0  0  0  0
    9.7219   -3.0897   -0.4489 H   0  0  0  0  0  0  0  0  0  0  0  0
    8.6320   -3.9376   -1.5368 H   0  0  0  0  0  0  0  0  0  0  0  0
    3.9193   -2.5967    0.2940 H   0  0  0  0  0  0  0  0  0  0  0  0
    4.1241   -1.0759    1.0965 H   0  0  0  0  0  0  0  0  0  0  0  0
    2.9402   -0.8285   -1.1128 H   0  0  0  0  0  0  0  0  0  0  0  0
    4.3770    0.1353   -0.9759 H   0  0  0  0  0  0  0  0  0  0  0  0
    4.1400   -0.8286   -3.2429 H   0  0  0  0  0  0  0  0  0  0  0  0
    5.6239   -1.3500   -2.4574 H   0  0  0  0  0  0  0  0  0  0  0  0
    5.0274   -4.8466   -5.2127 H   0  0  0  0  0  0  0  0  0  0  0  0
    3.5057   -4.9329   -4.3195 H   0  0  0  0  0  0  0  0  0  0  0  0
    5.0088   -5.3261   -3.5143 H   0  0  0  0  0  0  0  0  0  0  0  0
    5.3854   -6.4610    1.0162 H   0  0  0  0  0  0  0  0  0  0  0  0
    6.2962   -7.8928    1.2492 H   0  0  0  0  0  0  0  0  0  0  0  0
    5.3970   -5.8191    3.3120 H   0  0  0  0  0  0  0  0  0  0  0  0
    0.3926   -6.0754    3.8857 H   0  0  0  0  0  0  0  0  0  0  0  0
    1.1626   -6.4060    2.3215 H   0  0  0  0  0  0  0  0  0  0  0  0
   -1.0882   -6.0675    1.8463 H   0  0  0  0  0  0  0  0  0  0  0  0
   -0.4844   -8.5414    1.2954 H   0  0  0  0  0  0  0  0  0  0  0  0
   -2.0657   -7.0499    4.1165 H   0  0  0  0  0  0  0  0  0  0  0  0
   -2.8995   -7.6064    2.7010 H   0  0  0  0  0  0  0  0  0  0  0  0
   -2.2846   -9.3095    4.2148 H   0  0  0  0  0  0  0  0  0  0  0  0
   -1.5208  -10.7440    2.6892 H   0  0  0  0  0  0  0  0  0  0  0  0
  1  2  2  0
  1 40  1  0
  1 41  1  0
  2 38  1  0
  2  3  1  0
  3  4  2  3
  3 34  1  0
  4  5  1  0
  4 42  1  0
  5  6  2  3
  5 43  1  0
  6 33  1  0
  6  7  1  0
  7  8  1  0
  7 11  1  0
  7 44  1  1
  8  9  1  0
  8 10  1  0
  8 45  1  6
  9 46  1  0
  9 47  1  0
  9 48  1  0
 10 49  1  0
 11 12  1  0
 11 50  1  0
 11 51  1  0
 12 33  1  0
 12 13  1  1
 12 14  1  0
 13 52  1  0
 13 53  1  0
 13 54  1  0
 14 15  1  0
 14 55  1  0
 14 56  1  0
 15 16  1  0
 15 57  1  0
 15 58  1  0
 16 17  2  3
 16 32  1  0
 17 18  1  0
 18 19  1  0
 19 20  1  0
 19 59  1  0
 19 60  1  0
 20 31  2  0
 20 21  1  0
 21 22  2  0
 22 23  1  0
 23 24  1  0
 23 31  1  0
 24 25  1  0
 24 61  1  0
 24 62  1  0
 25 26  1  0
 25 63  1  0
 25 64  1  0
 26 27  1  0
 26 65  1  0
 26 66  1  0
 27 28  2  0
 27 29  1  0
 29 30  1  0
 30 67  1  0
 30 68  1  0
 30 69  1  0
 32 33  1  0
 32 70  1  0
 32 71  1  0
 33 72  1  1
 34 35  1  0
 34 73  1  0
 34 74  1  0
 35 36  1  0
 35 37  1  0
 35 75  1  6
 36 76  1  0
 37 38  1  0
 37 77  1  0
 37 78  1  0
 38 39  1  0
 38 79  1  1
 39 80  1  0
M  END
>  <i_m_ct_stereo_status>  (144) 
1

>  <s_m_source_file>  (144) 
/var/tmp/pbs.5076255.sched01/tmp9vbryffn/46pprzbbw9.sdf

>  <i_m_source_file_index>  (144) 
17

>  <i_lp_mmshare_version>  (144) 
48012

>  <i_f3d_flags>  (144) 
0

>  <s_epik_input>  (144) 
W09IXVtDQEBIXTFbQ0gyXVtDQEhdKFtPSF0pW0NIMl1DKFxDMT1bQ0gyXSk9W0NIXVxbQ0hdPUMoL1tDQEhdKFtDSDJdMilbQ0BIXShbQ0gzXSlbT0hdKVtDQEBIXShbQ0BAXTIzW0NIM10pW0NIMl1DKFxbQ0gyXVtDSDJdMyk9TlxPW0NIMl1jNG5ubihuNClbQ0gyXVtDSDJdW0NIMl1DKD1PKU9bQ0gzXQ==

>  <s_epik_cmdline>  (144) 
J2VwaWtfcHl0aG9uJywgJy1waHQnLCAnMi4wJywgJy1waCcsICc3LjAnLCAnLXRuJywgJzgnLCAnLW1hJywgJzIwMCcsICctaW1hZScsICc8aW5maWxlLm1hZT4nLCAnLW9tYWUnLCAnPG91dGZpbGUubWFlPic=

>  <r_lp_tautomer_probability>  (144) 
1

>  <r_epik_Ionization_Penalty>  (144) 
5.38978e-07

>  <r_epik_Ionization_Penalty_Charging>  (144) 
0

>  <r_epik_Ionization_Penalty_Neutral>  (144) 
5.38978e-07

>  <r_epik_State_Penalty>  (144) 
-0

>  <r_epik_Charging_Adjusted_Penalty>  (144) 
0

>  <i_epik_Tot_Q>  (144) 
0

>  <i_epik_Tot_abs_Q>  (144) 
0

>  <s_epik_Chemistry_Notes>  (144) 
This compound has an ester and may undergo hydrolysis at high or low pH. This compound has an imine and may undergo hydrolysis.

>  <s_lp_Force_Field>  (144) 
OPLS3e

>  <r_lp_Energy>  (144) 
34.8827

>  <b_lp_Chiralities_Consistent>  (144) 
1

>  <s_lp_Variant>  (144) 
37:0-2

>  <s_i_glide_gridfile>  (144) 
pfpi4k_grid

>  <i_i_glide_lignum>  (144) 
17

>  <i_i_glide_rotatable_bonds>  (144) 
13

>  <r_i_docking_score>  (144) 
-1.15784

>  <r_i_glide_ligand_efficiency>  (144) 
-0.0296882

>  <r_i_glide_ligand_efficiency_sa>  (144) 
-0.100679

>  <r_i_glide_ligand_efficiency_ln>  (144) 
-0.248274

>  <r_i_glide_gscore>  (144) 
-1.15784

>  <r_i_glide_lipo>  (144) 
-0.0943357

>  <r_i_glide_hbond>  (144) 
0

>  <r_i_glide_metal>  (144) 
-0

>  <r_i_glide_rewards>  (144) 
-0.716007

>  <r_i_glide_evdw>  (144) 
-14.6557

>  <r_i_glide_ecoul>  (144) 
-1.10953

>  <r_i_glide_erotb>  (144) 
0.630133

>  <r_i_glide_esite>  (144) 
-0.0784157

>  <r_i_glide_emodel>  (144) 
-14.5351

>  <r_i_glide_energy>  (144) 
-15.7652

>  <r_i_glide_einternal>  (144) 
7.81634

>  <r_i_glide_intrahb_reward>  (144) 
-0.5

>  <i_i_glide_confnum>  (144) 
9

>  <i_i_glide_posenum>  (144) 
9

>  <r_i_glide_eff_state_penalty>  (144) 
0

>  <ligand_id>  (144) 
37

>  <original_smiles>  (144) 
C=C1C(=CC=C2C(C(C)O)CC3(C)CCC(=NOCc4nnn(CCCC(=O)OC)n4)CC23)CC(O)CC1O

>  <smiles>  (144) 
[H]OC1([H])C(=C([H])[H])C(=C([H])C([H])=C2C([H])(C([H])(O[H])C([H])([H])[H])C([H])([H])C3(C([H])([H])[H])C([H])([H])C([H])([H])C(=NOC([H])([H])c4nnn(C([H])([H])C([H])([H])C([H])([H])C(=O)OC([H])([H])[H])n4)C([H])([H])C23[H])C([H])([H])C([H])(O[H])C1([H])[H]

$$$$
37:3:0
     RDKit          3D

 80 83  0  0  1  0  0  0  0  0999 V2000
    3.0318   -1.7816    0.9535 C   0  0  0  0  0  0  0  0  0  0  0  0
    3.6265   -2.4340   -0.0432 C   0  0  0  0  0  0  0  0  0  0  0  0
    3.7970   -3.9178   -0.0656 C   0  0  0  0  0  0  0  0  0  0  0  0
    2.9794   -4.6960    0.7109 C   0  0  0  0  0  0  0  0  0  0  0  0
    3.0753   -6.1502    0.7899 C   0  0  0  0  0  0  0  0  0  0  0  0
    2.4330   -6.8923    1.7140 C   0  0  0  0  0  0  0  0  0  0  0  0
    2.5214   -8.4154    1.8392 C   0  0  1  0  0  0  0  0  0  0  0  0
    3.9369   -8.9800    2.1619 C   0  0  2  0  0  0  0  0  0  0  0  0
    5.0052   -8.8611    1.0578 C   0  0  0  0  0  0  0  0  0  0  0  0
    3.8212  -10.3483    2.4757 O   0  0  0  0  0  0  0  0  0  0  0  0
    1.4390   -8.7626    2.8883 C   0  0  0  0  0  0  0  0  0  0  0  0
    0.4469   -7.5815    2.9203 C   0  0  1  0  0  0  0  0  0  0  0  0
   -0.5314   -7.7081    1.7352 C   0  0  0  0  0  0  0  0  0  0  0  0
   -0.4199   -7.4909    4.2124 C   0  0  0  0  0  0  0  0  0  0  0  0
    0.2872   -6.8972    5.4385 C   0  0  0  0  0  0  0  0  0  0  0  0
    1.0048   -5.6188    5.0652 C   0  0  0  0  0  0  0  0  0  0  0  0
    0.7655   -4.4599    5.5138 N   0  0  0  0  0  0  0  0  0  0  0  0
   -0.4010   -4.3942    6.2798 O   0  0  0  0  0  0  0  0  0  0  0  0
   -0.4243   -3.1171    6.9125 C   0  0  0  0  0  0  0  0  0  0  0  0
   -0.6273   -2.0511    5.8921 C   0  0  0  0  0  0  0  0  0  0  0  0
   -1.8508   -1.5690    5.5962 N   0  0  0  0  0  0  0  0  0  0  0  0
   -1.6583   -0.6768    4.6748 N   0  0  0  0  0  0  0  0  0  0  0  0
   -0.3100   -0.6389    4.4719 N   0  0  0  0  0  0  0  0  0  0  0  0
    0.3251    0.2269    3.4752 C   0  0  0  0  0  0  0  0  0  0  0  0
   -0.0286    1.7108    3.6480 C   0  0  0  0  0  0  0  0  0  0  0  0
   -1.4800    2.0498    3.2187 C   0  0  0  0  0  0  0  0  0  0  0  0
   -1.9162    3.5018    3.4822 C   0  0  0  0  0  0  0  0  0  0  0  0
   -1.3679    4.1853    4.3509 O   0  0  0  0  0  0  0  0  0  0  0  0
   -2.9881    3.9373    2.7708 O   0  0  0  0  0  0  0  0  0  0  0  0
   -3.8250    3.0495    2.0386 C   0  0  0  0  0  0  0  0  0  0  0  0
    0.3841   -1.4876    5.2302 N   0  0  0  0  0  0  0  0  0  0  0  0
    2.0445   -5.8550    4.0034 C   0  0  0  0  0  0  0  0  0  0  0  0
    1.3851   -6.3728    2.7043 C   0  0  1  0  0  0  0  0  0  0  0  0
    4.9397   -4.5109   -0.9163 C   0  0  0  0  0  0  0  0  0  0  0  0
    5.2809   -3.6859   -2.1746 C   0  0  1  0  0  0  0  0  0  0  0  0
    4.3033   -3.8331   -3.1994 O   0  0  0  0  0  0  0  0  0  0  0  0
    5.4556   -2.1997   -1.8368 C   0  0  0  0  0  0  0  0  0  0  0  0
    4.1883   -1.5939   -1.1996 C   0  0  1  0  0  0  0  0  0  0  0  0
    3.1850   -1.3474   -2.1633 O   0  0  0  0  0  0  0  0  0  0  0  0
    2.9212   -0.7110    0.8493 H   0  0  0  0  0  0  0  0  0  0  0  0
    2.6359   -2.2528    1.8491 H   0  0  0  0  0  0  0  0  0  0  0  0
    2.2274   -4.1929    1.3223 H   0  0  0  0  0  0  0  0  0  0  0  0
    3.6757   -6.7245    0.1035 H   0  0  0  0  0  0  0  0  0  0  0  0
    2.1777   -8.8087    0.8827 H   0  0  0  0  0  0  0  0  0  0  0  0
    4.2937   -8.4930    3.0653 H   0  0  0  0  0  0  0  0  0  0  0  0
    5.2457   -7.8262    0.8216 H   0  0  0  0  0  0  0  0  0  0  0  0
    4.6177   -9.3216    0.1556 H   0  0  0  0  0  0  0  0  0  0  0  0
    5.8975   -9.4658    1.3227 H   0  0  0  0  0  0  0  0  0  0  0  0
    3.8116  -10.8784    1.6614 H   0  0  0  0  0  0  0  0  0  0  0  0
    0.9541   -9.7139    2.6688 H   0  0  0  0  0  0  0  0  0  0  0  0
    1.9212   -8.8863    3.8586 H   0  0  0  0  0  0  0  0  0  0  0  0
   -1.1794   -6.8371    1.6783 H   0  0  0  0  0  0  0  0  0  0  0  0
   -1.1595   -8.6002    1.8381 H   0  0  0  0  0  0  0  0  0  0  0  0
   -0.0073   -7.7704    0.7844 H   0  0  0  0  0  0  0  0  0  0  0  0
   -1.3183   -6.8883    4.0092 H   0  0  0  0  0  0  0  0  0  0  0  0
   -0.7873   -8.4830    4.4782 H   0  0  0  0  0  0  0  0  0  0  0  0
   -0.4270   -6.7307    6.2381 H   0  0  0  0  0  0  0  0  0  0  0  0
    1.0262   -7.5997    5.8151 H   0  0  0  0  0  0  0  0  0  0  0  0
   -1.2829   -3.0982    7.5810 H   0  0  0  0  0  0  0  0  0  0  0  0
    0.4701   -2.9179    7.5093 H   0  0  0  0  0  0  0  0  0  0  0  0
    1.3996    0.1039    3.5529 H   0  0  0  0  0  0  0  0  0  0  0  0
    0.0329   -0.1540    2.5005 H   0  0  0  0  0  0  0  0  0  0  0  0
    0.2270    2.0230    4.6614 H   0  0  0  0  0  0  0  0  0  0  0  0
    0.6428    2.2684    2.9885 H   0  0  0  0  0  0  0  0  0  0  0  0
   -1.5532    1.7452    2.1623 H   0  0  0  0  0  0  0  0  0  0  0  0
   -2.1905    1.4743    3.8020 H   0  0  0  0  0  0  0  0  0  0  0  0
   -4.5342    3.6347    1.4423 H   0  0  0  0  0  0  0  0  0  0  0  0
   -4.3890    2.4825    2.7740 H   0  0  0  0  0  0  0  0  0  0  0  0
   -3.3048    2.3467    1.3778 H   0  0  0  0  0  0  0  0  0  0  0  0
    2.5754   -4.9223    3.8101 H   0  0  0  0  0  0  0  0  0  0  0  0
    2.7684   -6.5751    4.3761 H   0  0  0  0  0  0  0  0  0  0  0  0
    0.8197   -5.5689    2.2427 H   0  0  0  0  0  0  0  0  0  0  0  0
    5.8297   -4.5588   -0.2909 H   0  0  0  0  0  0  0  0  0  0  0  0
    4.7667   -5.5219   -1.2606 H   0  0  0  0  0  0  0  0  0  0  0  0
    6.2040   -4.0630   -2.6149 H   0  0  0  0  0  0  0  0  0  0  0  0
    3.7258   -4.5402   -2.9644 H   0  0  0  0  0  0  0  0  0  0  0  0
    6.2899   -2.1483   -1.1254 H   0  0  0  0  0  0  0  0  0  0  0  0
    5.7303   -1.6381   -2.7214 H   0  0  0  0  0  0  0  0  0  0  0  0
    4.4867   -0.6259   -0.8019 H   0  0  0  0  0  0  0  0  0  0  0  0
    2.3506   -1.2166   -1.7168 H   0  0  0  0  0  0  0  0  0  0  0  0
  1  2  2  0
  1 40  1  0
  1 41  1  0
  2 38  1  0
  2  3  1  0
  3  4  2  3
  3 34  1  0
  4  5  1  0
  4 42  1  0
  5  6  2  3
  5 43  1  0
  6 33  1  0
  6  7  1  0
  7  8  1  0
  7 11  1  0
  7 44  1  6
  8  9  1  0
  8 10  1  0
  8 45  1  1
  9 46  1  0
  9 47  1  0
  9 48  1  0
 10 49  1  0
 11 12  1  0
 11 50  1  0
 11 51  1  0
 12 33  1  0
 12 13  1  6
 12 14  1  0
 13 52  1  0
 13 53  1  0
 13 54  1  0
 14 15  1  0
 14 55  1  0
 14 56  1  0
 15 16  1  0
 15 57  1  0
 15 58  1  0
 16 17  2  3
 16 32  1  0
 17 18  1  0
 18 19  1  0
 19 20  1  0
 19 59  1  0
 19 60  1  0
 20 31  2  0
 20 21  1  0
 21 22  2  0
 22 23  1  0
 23 24  1  0
 23 31  1  0
 24 25  1  0
 24 61  1  0
 24 62  1  0
 25 26  1  0
 25 63  1  0
 25 64  1  0
 26 27  1  0
 26 65  1  0
 26 66  1  0
 27 28  2  0
 27 29  1  0
 29 30  1  0
 30 67  1  0
 30 68  1  0
 30 69  1  0
 32 33  1  0
 32 70  1  0
 32 71  1  0
 33 72  1  6
 34 35  1  0
 34 73  1  0
 34 74  1  0
 35 36  1  0
 35 37  1  0
 35 75  1  6
 36 76  1  0
 37 38  1  0
 37 77  1  0
 37 78  1  0
 38 39  1  0
 38 79  1  1
 39 80  1  0
M  END
>  <i_m_ct_stereo_status>  (145) 
1

>  <s_m_source_file>  (145) 
/var/tmp/pbs.5076255.sched01/tmp9vbryffn/46pprzbbw9.sdf

>  <i_m_source_file_index>  (145) 
19

>  <i_lp_mmshare_version>  (145) 
48012

>  <i_f3d_flags>  (145) 
0

>  <s_epik_input>  (145) 
W09IXVtDQEBIXTFbQ0gyXVtDQEhdKFtPSF0pW0NIMl1DKFxDMT1bQ0gyXSk9W0NIXVxbQ0hdPUMoL1tDQEhdKFtDSDJdMilbQ0BIXShbQ0gzXSlbT0hdKVtDQEBIXShbQ0BAXTIzW0NIM10pW0NIMl1DKFxbQ0gyXVtDSDJdMyk9TlxPW0NIMl1jNG5ubihuNClbQ0gyXVtDSDJdW0NIMl1DKD1PKU9bQ0gzXQ==

>  <s_epik_cmdline>  (145) 
J2VwaWtfcHl0aG9uJywgJy1waHQnLCAnMi4wJywgJy1waCcsICc3LjAnLCAnLXRuJywgJzgnLCAnLW1hJywgJzIwMCcsICctaW1hZScsICc8aW5maWxlLm1hZT4nLCAnLW9tYWUnLCAnPG91dGZpbGUubWFlPic=

>  <r_lp_tautomer_probability>  (145) 
1

>  <r_epik_Ionization_Penalty>  (145) 
5.38978e-07

>  <r_epik_Ionization_Penalty_Charging>  (145) 
0

>  <r_epik_Ionization_Penalty_Neutral>  (145) 
5.38978e-07

>  <r_epik_State_Penalty>  (145) 
-0

>  <r_epik_Charging_Adjusted_Penalty>  (145) 
0

>  <i_epik_Tot_Q>  (145) 
0

>  <i_epik_Tot_abs_Q>  (145) 
0

>  <s_epik_Chemistry_Notes>  (145) 
This compound has an ester and may undergo hydrolysis at high or low pH. This compound has an imine and may undergo hydrolysis.

>  <s_lp_Force_Field>  (145) 
OPLS3e

>  <r_lp_Energy>  (145) 
32.5656

>  <b_lp_Chiralities_Consistent>  (145) 
1

>  <s_lp_Variant>  (145) 
37:0-4

>  <s_i_glide_gridfile>  (145) 
pfpi4k_grid

>  <i_i_glide_lignum>  (145) 
19

>  <i_i_glide_rotatable_bonds>  (145) 
13

>  <r_i_docking_score>  (145) 
-3.67522

>  <r_i_glide_ligand_efficiency>  (145) 
-0.0942365

>  <r_i_glide_ligand_efficiency_sa>  (145) 
-0.319576

>  <r_i_glide_ligand_efficiency_ln>  (145) 
-0.788073

>  <r_i_glide_gscore>  (145) 
-3.67522

>  <r_i_glide_lipo>  (145) 
-0.0775333

>  <r_i_glide_hbond>  (145) 
-0.144

>  <r_i_glide_metal>  (145) 
-0

>  <r_i_glide_rewards>  (145) 
0

>  <r_i_glide_evdw>  (145) 
-39.0505

>  <r_i_glide_ecoul>  (145) 
-12.6025

>  <r_i_glide_erotb>  (145) 
0.630133

>  <r_i_glide_esite>  (145) 
-0.240929

>  <r_i_glide_emodel>  (145) 
-55.3312

>  <r_i_glide_energy>  (145) 
-51.6529

>  <r_i_glide_einternal>  (145) 
13.7668

>  <r_i_glide_intrahb_reward>  (145) 
-0

>  <i_i_glide_confnum>  (145) 
13

>  <i_i_glide_posenum>  (145) 
27

>  <r_i_glide_eff_state_penalty>  (145) 
0

>  <ligand_id>  (145) 
37

>  <original_smiles>  (145) 
C=C1C(=CC=C2C(C(C)O)CC3(C)CCC(=NOCc4nnn(CCCC(=O)OC)n4)CC23)CC(O)CC1O

>  <smiles>  (145) 
[H]OC1([H])C(=C([H])[H])C(=C([H])C([H])=C2C([H])(C([H])(O[H])C([H])([H])[H])C([H])([H])C3(C([H])([H])[H])C([H])([H])C([H])([H])C(=NOC([H])([H])c4nnn(C([H])([H])C([H])([H])C([H])([H])C(=O)OC([H])([H])[H])n4)C([H])([H])C23[H])C([H])([H])C([H])(O[H])C1([H])[H]

$$$$
37:3:1
     RDKit          3D

 80 83  0  0  1  0  0  0  0  0999 V2000
    3.1720   -1.8880    1.1724 C   0  0  0  0  0  0  0  0  0  0  0  0
    3.7616   -2.5310    0.1397 C   0  0  0  0  0  0  0  0  0  0  0  0
    3.8639   -3.9996    0.0865 C   0  0  0  0  0  0  0  0  0  0  0  0
    3.0495   -4.7838    0.8527 C   0  0  0  0  0  0  0  0  0  0  0  0
    3.0737   -6.2428    0.9053 C   0  0  0  0  0  0  0  0  0  0  0  0
    2.4244   -6.9867    1.8288 C   0  0  0  0  0  0  0  0  0  0  0  0
    2.4170   -8.5149    1.8878 C   0  0  1  0  0  0  0  0  0  0  0  0
    3.8206   -9.1665    2.0782 C   0  0  2  0  0  0  0  0  0  0  0  0
    4.7048   -9.1553    0.8116 C   0  0  0  0  0  0  0  0  0  0  0  0
    3.6925  -10.5201    2.4789 O   0  0  0  0  0  0  0  0  0  0  0  0
    1.4062   -8.8461    3.0133 C   0  0  0  0  0  0  0  0  0  0  0  0
    0.4926   -7.6135    3.1547 C   0  0  1  0  0  0  0  0  0  0  0  0
   -0.5899   -7.6450    2.0487 C   0  0  0  0  0  0  0  0  0  0  0  0
   -0.2458   -7.5321    4.5242 C   0  0  0  0  0  0  0  0  0  0  0  0
    0.5840   -6.9932    5.7039 C   0  0  0  0  0  0  0  0  0  0  0  0
    1.2991   -5.7142    5.2937 C   0  0  0  0  0  0  0  0  0  0  0  0
    1.1153   -4.5406    5.7497 N   0  0  0  0  0  0  0  0  0  0  0  0
    0.0958   -4.4870    6.7074 O   0  0  0  0  0  0  0  0  0  0  0  0
    0.1543   -3.2284    7.3694 C   0  0  0  0  0  0  0  0  0  0  0  0
   -0.4325   -2.1588    6.4946 C   0  0  0  0  0  0  0  0  0  0  0  0
   -1.6828   -2.2292    5.9572 N   0  0  0  0  0  0  0  0  0  0  0  0
   -1.8743   -1.1087    5.3432 N   0  0  0  0  0  0  0  0  0  0  0  0
   -0.7286   -0.4050    5.4840 N   0  0  0  0  0  0  0  0  0  0  0  0
   -0.5510    0.9361    4.9399 C   0  0  0  0  0  0  0  0  0  0  0  0
   -0.7058    0.9601    3.4012 C   0  0  0  0  0  0  0  0  0  0  0  0
   -0.6438    2.3732    2.7830 C   0  0  0  0  0  0  0  0  0  0  0  0
   -1.7596    3.3168    3.2955 C   0  0  0  0  0  0  0  0  0  0  0  0
   -2.9493    3.0093    3.2071 O   0  0  0  0  0  0  0  0  0  0  0  0
   -1.3594    4.4842    3.8551 O   0  0  0  0  0  0  0  0  0  0  0  0
    0.0110    4.8426    3.9232 C   0  0  0  0  0  0  0  0  0  0  0  0
    0.1942   -1.0214    6.2448 N   0  0  0  0  0  0  0  0  0  0  0  0
    2.2609   -5.9894    4.1615 C   0  0  0  0  0  0  0  0  0  0  0  0
    1.4830   -6.4461    2.9021 C   0  0  1  0  0  0  0  0  0  0  0  0
    4.9496   -4.6263   -0.8106 C   0  0  0  0  0  0  0  0  0  0  0  0
    5.2900   -3.7839   -2.0563 C   0  0  1  0  0  0  0  0  0  0  0  0
    4.2607   -3.8607   -3.0239 O   0  0  0  0  0  0  0  0  0  0  0  0
    5.5504   -2.3236   -1.6815 C   0  0  0  0  0  0  0  0  0  0  0  0
    4.3372   -1.6660   -0.9892 C   0  0  1  0  0  0  0  0  0  0  0  0
    3.3428   -1.3601   -1.9496 O   0  0  0  0  0  0  0  0  0  0  0  0
    3.1021   -0.8070    1.1551 H   0  0  0  0  0  0  0  0  0  0  0  0
    2.7455   -2.3969    2.0260 H   0  0  0  0  0  0  0  0  0  0  0  0
    2.3159   -4.2916    1.4771 H   0  0  0  0  0  0  0  0  0  0  0  0
    3.6115   -6.7847    0.1486 H   0  0  0  0  0  0  0  0  0  0  0  0
    1.9867   -8.8718    0.9534 H   0  0  0  0  0  0  0  0  0  0  0  0
    4.3416   -8.6471    2.8781 H   0  0  0  0  0  0  0  0  0  0  0  0
    4.9365   -8.1530    0.4637 H   0  0  0  0  0  0  0  0  0  0  0  0
    4.1885   -9.6893    0.0102 H   0  0  0  0  0  0  0  0  0  0  0  0
    5.6529   -9.6836    0.9854 H   0  0  0  0  0  0  0  0  0  0  0  0
    3.7673  -11.0932    1.7227 H   0  0  0  0  0  0  0  0  0  0  0  0
    0.8519   -9.7625    2.8092 H   0  0  0  0  0  0  0  0  0  0  0  0
    1.9432   -9.0198    3.9455 H   0  0  0  0  0  0  0  0  0  0  0  0
   -1.2028   -6.7460    2.0838 H   0  0  0  0  0  0  0  0  0  0  0  0
   -1.2580   -8.5001    2.1723 H   0  0  0  0  0  0  0  0  0  0  0  0
   -0.1621   -7.7080    1.0476 H   0  0  0  0  0  0  0  0  0  0  0  0
   -1.1095   -6.8751    4.4240 H   0  0  0  0  0  0  0  0  0  0  0  0
   -0.6539   -8.5103    4.7855 H   0  0  0  0  0  0  0  0  0  0  0  0
   -0.0545   -6.8379    6.5722 H   0  0  0  0  0  0  0  0  0  0  0  0
    1.3310   -7.7273    6.0092 H   0  0  0  0  0  0  0  0  0  0  0  0
   -0.4406   -3.2883    8.2734 H   0  0  0  0  0  0  0  0  0  0  0  0
    1.1626   -2.9675    7.6731 H   0  0  0  0  0  0  0  0  0  0  0  0
   -1.2821    1.5840    5.4271 H   0  0  0  0  0  0  0  0  0  0  0  0
    0.4377    1.3026    5.2350 H   0  0  0  0  0  0  0  0  0  0  0  0
    0.1133    0.3812    2.9698 H   0  0  0  0  0  0  0  0  0  0  0  0
   -1.6322    0.4607    3.0971 H   0  0  0  0  0  0  0  0  0  0  0  0
    0.3587    2.7685    2.9643 H   0  0  0  0  0  0  0  0  0  0  0  0
   -0.7555    2.2886    1.6957 H   0  0  0  0  0  0  0  0  0  0  0  0
    0.1402    5.8069    4.3843 H   0  0  0  0  0  0  0  0  0  0  0  0
    0.4299    4.8830    2.9126 H   0  0  0  0  0  0  0  0  0  0  0  0
    0.5582    4.0979    4.5138 H   0  0  0  0  0  0  0  0  0  0  0  0
    2.8512   -5.0986    3.9417 H   0  0  0  0  0  0  0  0  0  0  0  0
    2.9675   -6.7588    4.4758 H   0  0  0  0  0  0  0  0  0  0  0  0
    0.9298   -5.5970    2.5189 H   0  0  0  0  0  0  0  0  0  0  0  0
    5.8551   -4.7647   -0.2124 H   0  0  0  0  0  0  0  0  0  0  0  0
    4.6752   -5.6172   -1.1635 H   0  0  0  0  0  0  0  0  0  0  0  0
    6.1681   -4.1974   -2.5462 H   0  0  0  0  0  0  0  0  0  0  0  0
    3.8211   -4.6886   -2.9315 H   0  0  0  0  0  0  0  0  0  0  0  0
    6.4129   -2.2985   -1.0106 H   0  0  0  0  0  0  0  0  0  0  0  0
    5.8153   -1.7617   -2.5738 H   0  0  0  0  0  0  0  0  0  0  0  0
    4.6689   -0.7122   -0.5728 H   0  0  0  0  0  0  0  0  0  0  0  0
    2.5061   -1.2382   -1.5084 H   0  0  0  0  0  0  0  0  0  0  0  0
  1  2  2  0
  1 40  1  0
  1 41  1  0
  2 38  1  0
  2  3  1  0
  3  4  2  3
  3 34  1  0
  4  5  1  0
  4 42  1  0
  5  6  2  3
  5 43  1  0
  6 33  1  0
  6  7  1  0
  7  8  1  0
  7 11  1  0
  7 44  1  6
  8  9  1  0
  8 10  1  0
  8 45  1  1
  9 46  1  0
  9 47  1  0
  9 48  1  0
 10 49  1  0
 11 12  1  0
 11 50  1  0
 11 51  1  0
 12 33  1  0
 12 13  1  6
 12 14  1  0
 13 52  1  0
 13 53  1  0
 13 54  1  0
 14 15  1  0
 14 55  1  0
 14 56  1  0
 15 16  1  0
 15 57  1  0
 15 58  1  0
 16 17  2  3
 16 32  1  0
 17 18  1  0
 18 19  1  0
 19 20  1  0
 19 59  1  0
 19 60  1  0
 20 31  2  0
 20 21  1  0
 21 22  2  0
 22 23  1  0
 23 24  1  0
 23 31  1  0
 24 25  1  0
 24 61  1  0
 24 62  1  0
 25 26  1  0
 25 63  1  0
 25 64  1  0
 26 27  1  0
 26 65  1  0
 26 66  1  0
 27 28  2  0
 27 29  1  0
 29 30  1  0
 30 67  1  0
 30 68  1  0
 30 69  1  0
 32 33  1  0
 32 70  1  0
 32 71  1  0
 33 72  1  6
 34 35  1  0
 34 73  1  0
 34 74  1  0
 35 36  1  0
 35 37  1  0
 35 75  1  6
 36 76  1  0
 37 38  1  0
 37 77  1  0
 37 78  1  0
 38 39  1  0
 38 79  1  1
 39 80  1  0
M  END
>  <i_m_ct_stereo_status>  (146) 
1

>  <s_m_source_file>  (146) 
/var/tmp/pbs.5076255.sched01/tmp9vbryffn/46pprzbbw9.sdf

>  <i_m_source_file_index>  (146) 
19

>  <i_lp_mmshare_version>  (146) 
48012

>  <i_f3d_flags>  (146) 
0

>  <s_epik_input>  (146) 
W09IXVtDQEBIXTFbQ0gyXVtDQEhdKFtPSF0pW0NIMl1DKFxDMT1bQ0gyXSk9W0NIXVxbQ0hdPUMoL1tDQEhdKFtDSDJdMilbQ0BIXShbQ0gzXSlbT0hdKVtDQEBIXShbQ0BAXTIzW0NIM10pW0NIMl1DKFxbQ0gyXVtDSDJdMyk9TlxPW0NIMl1jNG5ubihuNClbQ0gyXVtDSDJdW0NIMl1DKD1PKU9bQ0gzXQ==

>  <s_epik_cmdline>  (146) 
J2VwaWtfcHl0aG9uJywgJy1waHQnLCAnMi4wJywgJy1waCcsICc3LjAnLCAnLXRuJywgJzgnLCAnLW1hJywgJzIwMCcsICctaW1hZScsICc8aW5maWxlLm1hZT4nLCAnLW9tYWUnLCAnPG91dGZpbGUubWFlPic=

>  <r_lp_tautomer_probability>  (146) 
1

>  <r_epik_Ionization_Penalty>  (146) 
5.38978e-07

>  <r_epik_Ionization_Penalty_Charging>  (146) 
0

>  <r_epik_Ionization_Penalty_Neutral>  (146) 
5.38978e-07

>  <r_epik_State_Penalty>  (146) 
-0

>  <r_epik_Charging_Adjusted_Penalty>  (146) 
0

>  <i_epik_Tot_Q>  (146) 
0

>  <i_epik_Tot_abs_Q>  (146) 
0

>  <s_epik_Chemistry_Notes>  (146) 
This compound has an ester and may undergo hydrolysis at high or low pH. This compound has an imine and may undergo hydrolysis.

>  <s_lp_Force_Field>  (146) 
OPLS3e

>  <r_lp_Energy>  (146) 
32.5656

>  <b_lp_Chiralities_Consistent>  (146) 
1

>  <s_lp_Variant>  (146) 
37:0-4

>  <s_i_glide_gridfile>  (146) 
pfpi4k_grid

>  <i_i_glide_lignum>  (146) 
19

>  <i_i_glide_rotatable_bonds>  (146) 
13

>  <r_i_docking_score>  (146) 
-3.52839

>  <r_i_glide_ligand_efficiency>  (146) 
-0.0904716

>  <r_i_glide_ligand_efficiency_sa>  (146) 
-0.306808

>  <r_i_glide_ligand_efficiency_ln>  (146) 
-0.756587

>  <r_i_glide_gscore>  (146) 
-3.52839

>  <r_i_glide_lipo>  (146) 
-0.0418902

>  <r_i_glide_hbond>  (146) 
-0.243423

>  <r_i_glide_metal>  (146) 
-0

>  <r_i_glide_rewards>  (146) 
0

>  <r_i_glide_evdw>  (146) 
-35.4835

>  <r_i_glide_ecoul>  (146) 
-12.2357

>  <r_i_glide_erotb>  (146) 
0.630133

>  <r_i_glide_esite>  (146) 
-0.263684

>  <r_i_glide_emodel>  (146) 
-53.6343

>  <r_i_glide_energy>  (146) 
-47.7192

>  <r_i_glide_einternal>  (146) 
9.87676

>  <r_i_glide_intrahb_reward>  (146) 
-0

>  <i_i_glide_confnum>  (146) 
13

>  <i_i_glide_posenum>  (146) 
24

>  <r_i_glide_eff_state_penalty>  (146) 
0

>  <ligand_id>  (146) 
37

>  <original_smiles>  (146) 
C=C1C(=CC=C2C(C(C)O)CC3(C)CCC(=NOCc4nnn(CCCC(=O)OC)n4)CC23)CC(O)CC1O

>  <smiles>  (146) 
[H]OC1([H])C(=C([H])[H])C(=C([H])C([H])=C2C([H])(C([H])(O[H])C([H])([H])[H])C([H])([H])C3(C([H])([H])[H])C([H])([H])C([H])([H])C(=NOC([H])([H])c4nnn(C([H])([H])C([H])([H])C([H])([H])C(=O)OC([H])([H])[H])n4)C([H])([H])C23[H])C([H])([H])C([H])(O[H])C1([H])[H]

$$$$
37:3:2
     RDKit          3D

 80 83  0  0  1  0  0  0  0  0999 V2000
    2.9853   -1.8209    0.9786 C   0  0  0  0  0  0  0  0  0  0  0  0
    3.6232   -2.4666   -0.0195 C   0  0  0  0  0  0  0  0  0  0  0  0
    3.8020   -3.9198   -0.0245 C   0  0  0  0  0  0  0  0  0  0  0  0
    3.0063   -4.7148    0.7512 C   0  0  0  0  0  0  0  0  0  0  0  0
    3.1077   -6.1716    0.8464 C   0  0  0  0  0  0  0  0  0  0  0  0
    2.4704   -6.9296    1.7708 C   0  0  0  0  0  0  0  0  0  0  0  0
    2.5614   -8.4545    1.8656 C   0  0  1  0  0  0  0  0  0  0  0  0
    3.9882   -9.0171    2.1557 C   0  0  2  0  0  0  0  0  0  0  0  0
    4.9978   -8.9005    0.9875 C   0  0  0  0  0  0  0  0  0  0  0  0
    3.9083  -10.3905    2.4843 O   0  0  0  0  0  0  0  0  0  0  0  0
    1.5147   -8.8171    2.9523 C   0  0  0  0  0  0  0  0  0  0  0  0
    0.5183   -7.6389    3.0073 C   0  0  1  0  0  0  0  0  0  0  0  0
   -0.4928   -7.7729    1.8463 C   0  0  0  0  0  0  0  0  0  0  0  0
   -0.3092   -7.5563    4.3244 C   0  0  0  0  0  0  0  0  0  0  0  0
    0.4206   -6.9377    5.5292 C   0  0  0  0  0  0  0  0  0  0  0  0
    1.0886   -5.6343    5.1229 C   0  0  0  0  0  0  0  0  0  0  0  0
    0.8224   -4.4635    5.5405 N   0  0  0  0  0  0  0  0  0  0  0  0
   -0.2762   -4.4284    6.4053 O   0  0  0  0  0  0  0  0  0  0  0  0
   -0.2246   -3.2158    7.1544 C   0  0  0  0  0  0  0  0  0  0  0  0
   -0.5637   -2.0648    6.2719 C   0  0  0  0  0  0  0  0  0  0  0  0
   -1.7797   -1.8909    5.6784 N   0  0  0  0  0  0  0  0  0  0  0  0
   -1.7263   -0.7704    5.0639 N   0  0  0  0  0  0  0  0  0  0  0  0
   -0.4669   -0.3036    5.2278 N   0  0  0  0  0  0  0  0  0  0  0  0
   -0.0250    0.9814    4.7173 C   0  0  0  0  0  0  0  0  0  0  0  0
   -0.7412    1.3816    3.3948 C   0  0  0  0  0  0  0  0  0  0  0  0
   -0.4702    2.8092    2.9003 C   0  0  0  0  0  0  0  0  0  0  0  0
   -0.6895    3.8957    3.9880 C   0  0  0  0  0  0  0  0  0  0  0  0
   -1.8083    4.0875    4.4683 O   0  0  0  0  0  0  0  0  0  0  0  0
    0.3885    4.6019    4.4007 O   0  0  0  0  0  0  0  0  0  0  0  0
    1.6524    4.4668    3.7788 C   0  0  0  0  0  0  0  0  0  0  0  0
    0.2934   -1.0727    6.0413 N   0  0  0  0  0  0  0  0  0  0  0  0
    2.1216   -5.8813    4.0514 C   0  0  0  0  0  0  0  0  0  0  0  0
    1.4436   -6.4197    2.7690 C   0  0  1  0  0  0  0  0  0  0  0  0
    4.9495   -4.5090   -0.8748 C   0  0  0  0  0  0  0  0  0  0  0  0
    5.2684   -3.6885   -2.1449 C   0  0  1  0  0  0  0  0  0  0  0  0
    4.2758   -3.8587   -3.1407 O   0  0  0  0  0  0  0  0  0  0  0  0
    5.4330   -2.2049   -1.8126 C   0  0  0  0  0  0  0  0  0  0  0  0
    4.1656   -1.6020   -1.1686 C   0  0  1  0  0  0  0  0  0  0  0  0
    3.1615   -1.3775   -2.1442 O   0  0  0  0  0  0  0  0  0  0  0  0
    2.8443   -0.7503    0.9087 H   0  0  0  0  0  0  0  0  0  0  0  0
    2.5700   -2.3143    1.8504 H   0  0  0  0  0  0  0  0  0  0  0  0
    2.2371   -4.2538    1.3494 H   0  0  0  0  0  0  0  0  0  0  0  0
    3.6899   -6.7051    0.1127 H   0  0  0  0  0  0  0  0  0  0  0  0
    2.2053   -8.8607    0.9214 H   0  0  0  0  0  0  0  0  0  0  0  0
    4.3936   -8.5015    3.0243 H   0  0  0  0  0  0  0  0  0  0  0  0
    5.2305   -7.8657    0.7271 H   0  0  0  0  0  0  0  0  0  0  0  0
    4.5867   -9.4000    0.1049 H   0  0  0  0  0  0  0  0  0  0  0  0
    5.9442   -9.4018    1.2368 H   0  0  0  0  0  0  0  0  0  0  0  0
    3.8168  -10.9148    1.6862 H   0  0  0  0  0  0  0  0  0  0  0  0
    1.0267   -9.7714    2.7456 H   0  0  0  0  0  0  0  0  0  0  0  0
    2.0124   -8.9300    3.9172 H   0  0  0  0  0  0  0  0  0  0  0  0
   -1.1545   -6.9104    1.8136 H   0  0  0  0  0  0  0  0  0  0  0  0
   -1.1164   -8.6635    1.9570 H   0  0  0  0  0  0  0  0  0  0  0  0
    0.0002   -7.8400    0.8779 H   0  0  0  0  0  0  0  0  0  0  0  0
   -1.2091   -6.9632    4.1499 H   0  0  0  0  0  0  0  0  0  0  0  0
   -0.6628   -8.5521    4.5989 H   0  0  0  0  0  0  0  0  0  0  0  0
   -0.2676   -6.7884    6.3559 H   0  0  0  0  0  0  0  0  0  0  0  0
    1.1907   -7.6173    5.8968 H   0  0  0  0  0  0  0  0  0  0  0  0
   -0.9786   -3.2673    7.9349 H   0  0  0  0  0  0  0  0  0  0  0  0
    0.7365   -3.0654    7.6404 H   0  0  0  0  0  0  0  0  0  0  0  0
   -0.2079    1.7067    5.5130 H   0  0  0  0  0  0  0  0  0  0  0  0
    1.0553    0.9388    4.5688 H   0  0  0  0  0  0  0  0  0  0  0  0
   -0.4005    0.7006    2.6139 H   0  0  0  0  0  0  0  0  0  0  0  0
   -1.8235    1.2583    3.4714 H   0  0  0  0  0  0  0  0  0  0  0  0
    0.5269    2.8119    2.4445 H   0  0  0  0  0  0  0  0  0  0  0  0
   -1.1839    3.0253    2.0932 H   0  0  0  0  0  0  0  0  0  0  0  0
    2.3921    5.1169    4.2295 H   0  0  0  0  0  0  0  0  0  0  0  0
    1.5541    4.7362    2.7244 H   0  0  0  0  0  0  0  0  0  0  0  0
    2.0052    3.4346    3.8596 H   0  0  0  0  0  0  0  0  0  0  0  0
    2.6644   -4.9588    3.8368 H   0  0  0  0  0  0  0  0  0  0  0  0
    2.8535   -6.5956    4.4269 H   0  0  0  0  0  0  0  0  0  0  0  0
    0.8633   -5.6197    2.3228 H   0  0  0  0  0  0  0  0  0  0  0  0
    5.8449   -4.5721   -0.2506 H   0  0  0  0  0  0  0  0  0  0  0  0
    4.7567   -5.5210   -1.2166 H   0  0  0  0  0  0  0  0  0  0  0  0
    6.1913   -4.0628   -2.5914 H   0  0  0  0  0  0  0  0  0  0  0  0
    3.8398   -4.6697   -2.9868 H   0  0  0  0  0  0  0  0  0  0  0  0
    6.2724   -2.1108   -1.1199 H   0  0  0  0  0  0  0  0  0  0  0  0
    5.7027   -1.6575   -2.7139 H   0  0  0  0  0  0  0  0  0  0  0  0
    4.4351   -0.6188   -0.7769 H   0  0  0  0  0  0  0  0  0  0  0  0
    2.3318   -1.2479   -1.6962 H   0  0  0  0  0  0  0  0  0  0  0  0
  1  2  2  0
  1 40  1  0
  1 41  1  0
  2 38  1  0
  2  3  1  0
  3  4  2  3
  3 34  1  0
  4  5  1  0
  4 42  1  0
  5  6  2  3
  5 43  1  0
  6 33  1  0
  6  7  1  0
  7  8  1  0
  7 11  1  0
  7 44  1  6
  8  9  1  0
  8 10  1  0
  8 45  1  1
  9 46  1  0
  9 47  1  0
  9 48  1  0
 10 49  1  0
 11 12  1  0
 11 50  1  0
 11 51  1  0
 12 33  1  0
 12 13  1  6
 12 14  1  0
 13 52  1  0
 13 53  1  0
 13 54  1  0
 14 15  1  0
 14 55  1  0
 14 56  1  0
 15 16  1  0
 15 57  1  0
 15 58  1  0
 16 17  2  3
 16 32  1  0
 17 18  1  0
 18 19  1  0
 19 20  1  0
 19 59  1  0
 19 60  1  0
 20 31  2  0
 20 21  1  0
 21 22  2  0
 22 23  1  0
 23 24  1  0
 23 31  1  0
 24 25  1  0
 24 61  1  0
 24 62  1  0
 25 26  1  0
 25 63  1  0
 25 64  1  0
 26 27  1  0
 26 65  1  0
 26 66  1  0
 27 28  2  0
 27 29  1  0
 29 30  1  0
 30 67  1  0
 30 68  1  0
 30 69  1  0
 32 33  1  0
 32 70  1  0
 32 71  1  0
 33 72  1  6
 34 35  1  0
 34 73  1  0
 34 74  1  0
 35 36  1  0
 35 37  1  0
 35 75  1  6
 36 76  1  0
 37 38  1  0
 37 77  1  0
 37 78  1  0
 38 39  1  0
 38 79  1  1
 39 80  1  0
M  END
>  <i_m_ct_stereo_status>  (147) 
1

>  <s_m_source_file>  (147) 
/var/tmp/pbs.5076255.sched01/tmp9vbryffn/46pprzbbw9.sdf

>  <i_m_source_file_index>  (147) 
19

>  <i_lp_mmshare_version>  (147) 
48012

>  <i_f3d_flags>  (147) 
0

>  <s_epik_input>  (147) 
W09IXVtDQEBIXTFbQ0gyXVtDQEhdKFtPSF0pW0NIMl1DKFxDMT1bQ0gyXSk9W0NIXVxbQ0hdPUMoL1tDQEhdKFtDSDJdMilbQ0BIXShbQ0gzXSlbT0hdKVtDQEBIXShbQ0BAXTIzW0NIM10pW0NIMl1DKFxbQ0gyXVtDSDJdMyk9TlxPW0NIMl1jNG5ubihuNClbQ0gyXVtDSDJdW0NIMl1DKD1PKU9bQ0gzXQ==

>  <s_epik_cmdline>  (147) 
J2VwaWtfcHl0aG9uJywgJy1waHQnLCAnMi4wJywgJy1waCcsICc3LjAnLCAnLXRuJywgJzgnLCAnLW1hJywgJzIwMCcsICctaW1hZScsICc8aW5maWxlLm1hZT4nLCAnLW9tYWUnLCAnPG91dGZpbGUubWFlPic=

>  <r_lp_tautomer_probability>  (147) 
1

>  <r_epik_Ionization_Penalty>  (147) 
5.38978e-07

>  <r_epik_Ionization_Penalty_Charging>  (147) 
0

>  <r_epik_Ionization_Penalty_Neutral>  (147) 
5.38978e-07

>  <r_epik_State_Penalty>  (147) 
-0

>  <r_epik_Charging_Adjusted_Penalty>  (147) 
0

>  <i_epik_Tot_Q>  (147) 
0

>  <i_epik_Tot_abs_Q>  (147) 
0

>  <s_epik_Chemistry_Notes>  (147) 
This compound has an ester and may undergo hydrolysis at high or low pH. This compound has an imine and may undergo hydrolysis.

>  <s_lp_Force_Field>  (147) 
OPLS3e

>  <r_lp_Energy>  (147) 
32.5656

>  <b_lp_Chiralities_Consistent>  (147) 
1

>  <s_lp_Variant>  (147) 
37:0-4

>  <s_i_glide_gridfile>  (147) 
pfpi4k_grid

>  <i_i_glide_lignum>  (147) 
19

>  <i_i_glide_rotatable_bonds>  (147) 
13

>  <r_i_docking_score>  (147) 
-3.51635

>  <r_i_glide_ligand_efficiency>  (147) 
-0.0901627

>  <r_i_glide_ligand_efficiency_sa>  (147) 
-0.305761

>  <r_i_glide_ligand_efficiency_ln>  (147) 
-0.754005

>  <r_i_glide_gscore>  (147) 
-3.51635

>  <r_i_glide_lipo>  (147) 
-0.072991

>  <r_i_glide_hbond>  (147) 
-0.15374

>  <r_i_glide_metal>  (147) 
-0

>  <r_i_glide_rewards>  (147) 
0

>  <r_i_glide_evdw>  (147) 
-35.553

>  <r_i_glide_ecoul>  (147) 
-12.5498

>  <r_i_glide_erotb>  (147) 
0.630133

>  <r_i_glide_esite>  (147) 
-0.259638

>  <r_i_glide_emodel>  (147) 
-53.6208

>  <r_i_glide_energy>  (147) 
-48.1027

>  <r_i_glide_einternal>  (147) 
10.4675

>  <r_i_glide_intrahb_reward>  (147) 
-0

>  <i_i_glide_confnum>  (147) 
13

>  <i_i_glide_posenum>  (147) 
26

>  <r_i_glide_eff_state_penalty>  (147) 
0

>  <ligand_id>  (147) 
37

>  <original_smiles>  (147) 
C=C1C(=CC=C2C(C(C)O)CC3(C)CCC(=NOCc4nnn(CCCC(=O)OC)n4)CC23)CC(O)CC1O

>  <smiles>  (147) 
[H]OC1([H])C(=C([H])[H])C(=C([H])C([H])=C2C([H])(C([H])(O[H])C([H])([H])[H])C([H])([H])C3(C([H])([H])[H])C([H])([H])C([H])([H])C(=NOC([H])([H])c4nnn(C([H])([H])C([H])([H])C([H])([H])C(=O)OC([H])([H])[H])n4)C([H])([H])C23[H])C([H])([H])C([H])(O[H])C1([H])[H]

$$$$
37:5:0
     RDKit          3D

 80 83  0  0  1  0  0  0  0  0999 V2000
    5.0651   -0.6540   -0.6603 C   0  0  0  0  0  0  0  0  0  0  0  0
    4.6658   -1.9060   -0.3708 C   0  0  0  0  0  0  0  0  0  0  0  0
    4.1392   -2.2968    0.9640 C   0  0  0  0  0  0  0  0  0  0  0  0
    3.6450   -1.3571    1.8085 C   0  0  0  0  0  0  0  0  0  0  0  0
    3.1278   -1.5950    3.1556 C   0  0  0  0  0  0  0  0  0  0  0  0
    2.7355   -0.6394    4.0306 C   0  0  0  0  0  0  0  0  0  0  0  0
    2.9035    0.8546    3.8717 C   0  0  1  0  0  0  0  0  0  0  0  0
    1.6834    1.5785    3.2524 C   0  0  2  0  0  0  0  0  0  0  0  0
    1.8299    3.0982    3.1632 C   0  0  0  0  0  0  0  0  0  0  0  0
    0.5079    1.3595    3.9919 O   0  0  0  0  0  0  0  0  0  0  0  0
    3.3659    1.2617    5.2751 C   0  0  0  0  0  0  0  0  0  0  0  0
    2.6965    0.3160    6.2951 C   0  0  1  0  0  0  0  0  0  0  0  0
    3.7008   -0.0672    7.4110 C   0  0  0  0  0  0  0  0  0  0  0  0
    1.4667    0.9891    6.9426 C   0  0  0  0  0  0  0  0  0  0  0  0
    0.5698   -0.0013    7.7191 C   0  0  0  0  0  0  0  0  0  0  0  0
    0.3663   -1.3428    7.0022 C   0  0  0  0  0  0  0  0  0  0  0  0
   -0.1118   -2.3347    7.6379 N   0  0  0  0  0  0  0  0  0  0  0  0
   -0.2626   -3.4694    6.8370 O   0  0  0  0  0  0  0  0  0  0  0  0
   -0.2904   -4.5949    7.7048 C   0  0  0  0  0  0  0  0  0  0  0  0
   -0.1557   -5.8058    6.8617 C   0  0  0  0  0  0  0  0  0  0  0  0
   -0.5375   -5.8266    5.5596 N   0  0  0  0  0  0  0  0  0  0  0  0
   -0.2740   -7.0393    5.1584 N   0  0  0  0  0  0  0  0  0  0  0  0
    0.2591   -7.6880    6.2162 N   0  0  0  0  0  0  0  0  0  0  0  0
    0.7064   -9.0738    6.1391 C   0  0  0  0  0  0  0  0  0  0  0  0
    1.8741   -9.3286    5.1511 C   0  0  0  0  0  0  0  0  0  0  0  0
    1.6920   -8.8925    3.6781 C   0  0  0  0  0  0  0  0  0  0  0  0
    0.4655   -9.5067    2.9986 C   0  0  0  0  0  0  0  0  0  0  0  0
    0.4357  -10.6919    2.6797 O   0  0  0  0  0  0  0  0  0  0  0  0
   -0.5346   -8.6254    2.8307 O   0  0  0  0  0  0  0  0  0  0  0  0
   -1.7922   -9.0450    2.3309 C   0  0  0  0  0  0  0  0  0  0  0  0
    0.3246   -6.9413    7.3371 N   0  0  0  0  0  0  0  0  0  0  0  0
    0.8294   -1.3704    5.5531 C   0  0  0  0  0  0  0  0  0  0  0  0
    2.3143   -0.9431    5.4636 C   0  0  1  0  0  0  0  0  0  0  0  0
    4.2061   -3.7804    1.3683 C   0  0  0  0  0  0  0  0  0  0  0  0
    4.0613   -4.7573    0.1967 C   0  0  1  0  0  0  0  0  0  0  0  0
    2.6956   -4.7870   -0.1265 O   0  0  0  0  0  0  0  0  0  0  0  0
    4.9960   -4.3818   -0.9743 C   0  0  0  0  0  0  0  0  0  0  0  0
    4.7675   -2.9523   -1.4909 C   0  0  1  0  0  0  0  0  0  0  0  0
    3.6047   -2.9454   -2.2801 O   0  0  0  0  0  0  0  0  0  0  0  0
    5.3928   -0.4555   -1.6768 H   0  0  0  0  0  0  0  0  0  0  0  0
    5.0672    0.1628    0.0558 H   0  0  0  0  0  0  0  0  0  0  0  0
    3.6243   -0.3283    1.4888 H   0  0  0  0  0  0  0  0  0  0  0  0
    3.0534   -2.6135    3.5157 H   0  0  0  0  0  0  0  0  0  0  0  0
    3.7377    1.0098    3.2097 H   0  0  0  0  0  0  0  0  0  0  0  0
    1.5594    1.1850    2.2426 H   0  0  0  0  0  0  0  0  0  0  0  0
    2.6182    3.3833    2.4643 H   0  0  0  0  0  0  0  0  0  0  0  0
    2.0488    3.5413    4.1392 H   0  0  0  0  0  0  0  0  0  0  0  0
    0.8840    3.5517    2.8468 H   0  0  0  0  0  0  0  0  0  0  0  0
    0.3748    0.4282    4.0922 H   0  0  0  0  0  0  0  0  0  0  0  0
    4.4516    1.1027    5.3268 H   0  0  0  0  0  0  0  0  0  0  0  0
    3.2341    2.3087    5.5172 H   0  0  0  0  0  0  0  0  0  0  0  0
    3.2659   -0.7762    8.1283 H   0  0  0  0  0  0  0  0  0  0  0  0
    4.0128    0.8157    7.9808 H   0  0  0  0  0  0  0  0  0  0  0  0
    4.6118   -0.5368    7.0168 H   0  0  0  0  0  0  0  0  0  0  0  0
    1.8087    1.7423    7.6565 H   0  0  0  0  0  0  0  0  0  0  0  0
    0.8920    1.4872    6.1608 H   0  0  0  0  0  0  0  0  0  0  0  0
    0.9661   -0.2113    8.7189 H   0  0  0  0  0  0  0  0  0  0  0  0
   -0.4009    0.4592    7.8788 H   0  0  0  0  0  0  0  0  0  0  0  0
    0.5494   -4.5552    8.4017 H   0  0  0  0  0  0  0  0  0  0  0  0
   -1.2406   -4.6459    8.2437 H   0  0  0  0  0  0  0  0  0  0  0  0
    1.0150   -9.4077    7.1262 H   0  0  0  0  0  0  0  0  0  0  0  0
   -0.1578   -9.6865    5.8767 H   0  0  0  0  0  0  0  0  0  0  0  0
    2.7331   -8.7993    5.5431 H   0  0  0  0  0  0  0  0  0  0  0  0
    2.1528  -10.3894    5.2021 H   0  0  0  0  0  0  0  0  0  0  0  0
    1.6260   -7.8056    3.6284 H   0  0  0  0  0  0  0  0  0  0  0  0
    2.5764   -9.1611    3.1005 H   0  0  0  0  0  0  0  0  0  0  0  0
   -2.4923   -8.2162    2.3933 H   0  0  0  0  0  0  0  0  0  0  0  0
   -2.2172   -9.8584    2.9112 H   0  0  0  0  0  0  0  0  0  0  0  0
   -1.7216   -9.3435    1.2868 H   0  0  0  0  0  0  0  0  0  0  0  0
    0.7242   -2.3688    5.1118 H   0  0  0  0  0  0  0  0  0  0  0  0
    0.1654   -0.6969    5.0182 H   0  0  0  0  0  0  0  0  0  0  0  0
    2.9310   -1.7968    5.7784 H   0  0  0  0  0  0  0  0  0  0  0  0
    5.1608   -3.9696    1.8509 H   0  0  0  0  0  0  0  0  0  0  0  0
    3.4085   -4.0737    2.0486 H   0  0  0  0  0  0  0  0  0  0  0  0
    4.3019   -5.7776    0.5190 H   0  0  0  0  0  0  0  0  0  0  0  0
    2.6301   -5.1959   -1.0052 H   0  0  0  0  0  0  0  0  0  0  0  0
    6.0110   -4.4387   -0.5875 H   0  0  0  0  0  0  0  0  0  0  0  0
    4.9739   -5.1111   -1.7960 H   0  0  0  0  0  0  0  0  0  0  0  0
    5.5940   -2.7088   -2.1645 H   0  0  0  0  0  0  0  0  0  0  0  0
    2.8816   -3.2329   -1.7380 H   0  0  0  0  0  0  0  0  0  0  0  0
  1  2  2  0
  1 40  1  0
  1 41  1  0
  2 38  1  0
  2  3  1  0
  3  4  2  3
  3 34  1  0
  4  5  1  0
  4 42  1  0
  5  6  2  3
  5 43  1  0
  6 33  1  0
  6  7  1  0
  7  8  1  0
  7 11  1  0
  7 44  1  6
  8  9  1  0
  8 10  1  0
  8 45  1  6
  9 46  1  0
  9 47  1  0
  9 48  1  0
 10 49  1  0
 11 12  1  0
 11 50  1  0
 11 51  1  0
 12 33  1  0
 12 13  1  1
 12 14  1  0
 13 52  1  0
 13 53  1  0
 13 54  1  0
 14 15  1  0
 14 55  1  0
 14 56  1  0
 15 16  1  0
 15 57  1  0
 15 58  1  0
 16 17  2  3
 16 32  1  0
 17 18  1  0
 18 19  1  0
 19 20  1  0
 19 59  1  0
 19 60  1  0
 20 31  2  0
 20 21  1  0
 21 22  2  0
 22 23  1  0
 23 24  1  0
 23 31  1  0
 24 25  1  0
 24 61  1  0
 24 62  1  0
 25 26  1  0
 25 63  1  0
 25 64  1  0
 26 27  1  0
 26 65  1  0
 26 66  1  0
 27 28  2  0
 27 29  1  0
 29 30  1  0
 30 67  1  0
 30 68  1  0
 30 69  1  0
 32 33  1  0
 32 70  1  0
 32 71  1  0
 33 72  1  1
 34 35  1  0
 34 73  1  0
 34 74  1  0
 35 36  1  0
 35 37  1  0
 35 75  1  1
 36 76  1  0
 37 38  1  0
 37 77  1  0
 37 78  1  0
 38 39  1  0
 38 79  1  6
 39 80  1  0
M  END
>  <i_m_ct_stereo_status>  (148) 
1

>  <s_m_source_file>  (148) 
/var/tmp/pbs.5076255.sched01/tmp9vbryffn/46pprzbbw9.sdf

>  <i_m_source_file_index>  (148) 
21

>  <i_lp_mmshare_version>  (148) 
48012

>  <i_f3d_flags>  (148) 
0

>  <s_epik_input>  (148) 
W09IXVtDQEBIXTFbQ0gyXVtDQEhdKFtPSF0pW0NIMl1DKFxDMT1bQ0gyXSk9W0NIXVxbQ0hdPUMoL1tDQEhdKFtDSDJdMilbQ0BIXShbQ0gzXSlbT0hdKVtDQEBIXShbQ0BAXTIzW0NIM10pW0NIMl1DKFxbQ0gyXVtDSDJdMyk9TlxPW0NIMl1jNG5ubihuNClbQ0gyXVtDSDJdW0NIMl1DKD1PKU9bQ0gzXQ==

>  <s_epik_cmdline>  (148) 
J2VwaWtfcHl0aG9uJywgJy1waHQnLCAnMi4wJywgJy1waCcsICc3LjAnLCAnLXRuJywgJzgnLCAnLW1hJywgJzIwMCcsICctaW1hZScsICc8aW5maWxlLm1hZT4nLCAnLW9tYWUnLCAnPG91dGZpbGUubWFlPic=

>  <r_lp_tautomer_probability>  (148) 
1

>  <r_epik_Ionization_Penalty>  (148) 
5.38978e-07

>  <r_epik_Ionization_Penalty_Charging>  (148) 
0

>  <r_epik_Ionization_Penalty_Neutral>  (148) 
5.38978e-07

>  <r_epik_State_Penalty>  (148) 
-0

>  <r_epik_Charging_Adjusted_Penalty>  (148) 
0

>  <i_epik_Tot_Q>  (148) 
0

>  <i_epik_Tot_abs_Q>  (148) 
0

>  <s_epik_Chemistry_Notes>  (148) 
This compound has an ester and may undergo hydrolysis at high or low pH. This compound has an imine and may undergo hydrolysis.

>  <s_lp_Force_Field>  (148) 
OPLS3e

>  <r_lp_Energy>  (148) 
35.6979

>  <b_lp_Chiralities_Consistent>  (148) 
1

>  <s_lp_Variant>  (148) 
37:0-6

>  <s_i_glide_gridfile>  (148) 
pfpi4k_grid

>  <i_i_glide_lignum>  (148) 
21

>  <i_i_glide_rotatable_bonds>  (148) 
13

>  <r_i_docking_score>  (148) 
-2.26455

>  <r_i_glide_ligand_efficiency>  (148) 
-0.0580653

>  <r_i_glide_ligand_efficiency_sa>  (148) 
-0.196912

>  <r_i_glide_ligand_efficiency_ln>  (148) 
-0.485583

>  <r_i_glide_gscore>  (148) 
-2.26455

>  <r_i_glide_lipo>  (148) 
-0.301728

>  <r_i_glide_hbond>  (148) 
0

>  <r_i_glide_metal>  (148) 
-0

>  <r_i_glide_rewards>  (148) 
-0.0113935

>  <r_i_glide_evdw>  (148) 
-30.958

>  <r_i_glide_ecoul>  (148) 
-5.62523

>  <r_i_glide_erotb>  (148) 
0.630133

>  <r_i_glide_esite>  (148) 
-0.189875

>  <r_i_glide_emodel>  (148) 
-36.0857

>  <r_i_glide_energy>  (148) 
-36.5832

>  <r_i_glide_einternal>  (148) 
7.46662

>  <r_i_glide_intrahb_reward>  (148) 
-0

>  <i_i_glide_confnum>  (148) 
2

>  <i_i_glide_posenum>  (148) 
4

>  <r_i_glide_eff_state_penalty>  (148) 
0

>  <ligand_id>  (148) 
37

>  <original_smiles>  (148) 
C=C1C(=CC=C2C(C(C)O)CC3(C)CCC(=NOCc4nnn(CCCC(=O)OC)n4)CC23)CC(O)CC1O

>  <smiles>  (148) 
[H]OC1([H])C(=C([H])[H])C(=C([H])C([H])=C2C([H])(C([H])(O[H])C([H])([H])[H])C([H])([H])C3(C([H])([H])[H])C([H])([H])C([H])([H])C(=NOC([H])([H])c4nnn(C([H])([H])C([H])([H])C([H])([H])C(=O)OC([H])([H])[H])n4)C([H])([H])C23[H])C([H])([H])C([H])(O[H])C1([H])[H]

$$$$
37:5:1
     RDKit          3D

 80 83  0  0  1  0  0  0  0  0999 V2000
    5.2465   -0.7652   -0.9323 C   0  0  0  0  0  0  0  0  0  0  0  0
    4.7836   -1.9641   -0.5647 C   0  0  0  0  0  0  0  0  0  0  0  0
    4.2548   -2.1973    0.7931 C   0  0  0  0  0  0  0  0  0  0  0  0
    3.7879   -1.1663    1.6012 C   0  0  0  0  0  0  0  0  0  0  0  0
    3.2357   -1.3013    2.9378 C   0  0  0  0  0  0  0  0  0  0  0  0
    2.9312   -0.2701    3.7838 C   0  0  0  0  0  0  0  0  0  0  0  0
    3.2691    1.1841    3.5795 C   0  0  1  0  0  0  0  0  0  0  0  0
    2.1292    2.0382    2.9390 C   0  0  2  0  0  0  0  0  0  0  0  0
    2.4392    3.5357    2.8427 C   0  0  0  0  0  0  0  0  0  0  0  0
    0.9079    1.9459    3.6288 O   0  0  0  0  0  0  0  0  0  0  0  0
    3.7827    1.5879    4.9744 C   0  0  0  0  0  0  0  0  0  0  0  0
    3.0006    0.7616    6.0189 C   0  0  1  0  0  0  0  0  0  0  0  0
    3.9462    0.3107    7.1551 C   0  0  0  0  0  0  0  0  0  0  0  0
    1.8475    1.6025    6.6300 C   0  0  0  0  0  0  0  0  0  0  0  0
    0.8243    0.7477    7.4265 C   0  0  0  0  0  0  0  0  0  0  0  0
    0.4679   -0.5770    6.7493 C   0  0  0  0  0  0  0  0  0  0  0  0
   -0.1579   -1.4894    7.3893 N   0  0  0  0  0  0  0  0  0  0  0  0
   -0.3745   -2.6315    6.6118 O   0  0  0  0  0  0  0  0  0  0  0  0
   -0.0876   -3.7622    7.4204 C   0  0  0  0  0  0  0  0  0  0  0  0
    0.2842   -4.8443    6.4920 C   0  0  0  0  0  0  0  0  0  0  0  0
   -0.5769   -5.8158    6.1048 N   0  0  0  0  0  0  0  0  0  0  0  0
    0.1112   -6.6229    5.3641 N   0  0  0  0  0  0  0  0  0  0  0  0
    1.3484   -6.0842    5.2718 N   0  0  0  0  0  0  0  0  0  0  0  0
    2.3999   -6.6510    4.4415 C   0  0  0  0  0  0  0  0  0  0  0  0
    2.2183   -6.3354    2.9402 C   0  0  0  0  0  0  0  0  0  0  0  0
    0.8377   -6.5865    2.3064 C   0  0  0  0  0  0  0  0  0  0  0  0
    0.3095   -8.0111    2.4637 C   0  0  0  0  0  0  0  0  0  0  0  0
    1.0351   -8.9529    2.7807 O   0  0  0  0  0  0  0  0  0  0  0  0
   -1.0010   -8.0853    2.2087 O   0  0  0  0  0  0  0  0  0  0  0  0
   -1.6497   -9.3352    2.3552 C   0  0  0  0  0  0  0  0  0  0  0  0
    1.4994   -4.9464    5.9792 N   0  0  0  0  0  0  0  0  0  0  0  0
    0.9418   -0.7058    5.3148 C   0  0  0  0  0  0  0  0  0  0  0  0
    2.4729   -0.4733    5.2183 C   0  0  1  0  0  0  0  0  0  0  0  0
    4.2669   -3.6313    1.3040 C   0  0  0  0  0  0  0  0  0  0  0  0
    4.0896   -4.6850    0.1999 C   0  0  1  0  0  0  0  0  0  0  0  0
    2.7393   -4.7174   -0.2207 O   0  0  0  0  0  0  0  0  0  0  0  0
    5.0621   -4.4426   -0.9647 C   0  0  0  0  0  0  0  0  0  0  0  0
    4.8799   -3.0687   -1.6111 C   0  0  1  0  0  0  0  0  0  0  0  0
    3.7454   -3.0573   -2.4349 O   0  0  0  0  0  0  0  0  0  0  0  0
    5.5819   -0.5540   -1.9332 H   0  0  0  0  0  0  0  0  0  0  0  0
    5.2651   -0.0210   -0.1660 H   0  0  0  0  0  0  0  0  0  0  0  0
    3.7891   -0.1591    1.2161 H   0  0  0  0  0  0  0  0  0  0  0  0
    3.0172   -2.2708    3.3396 H   0  0  0  0  0  0  0  0  0  0  0  0
    4.1130    1.2050    2.9100 H   0  0  0  0  0  0  0  0  0  0  0  0
    1.9719    1.6431    1.9276 H   0  0  0  0  0  0  0  0  0  0  0  0
    3.2706    3.7451    2.1715 H   0  0  0  0  0  0  0  0  0  0  0  0
    2.6659    3.9646    3.8209 H   0  0  0  0  0  0  0  0  0  0  0  0
    1.5586    4.0660    2.4752 H   0  0  0  0  0  0  0  0  0  0  0  0
    0.6669    1.0320    3.6618 H   0  0  0  0  0  0  0  0  0  0  0  0
    4.8391    1.3034    5.0274 H   0  0  0  0  0  0  0  0  0  0  0  0
    3.7771    2.6545    5.1732 H   0  0  0  0  0  0  0  0  0  0  0  0
    3.4250   -0.3143    7.8859 H   0  0  0  0  0  0  0  0  0  0  0  0
    4.3503    1.1714    7.6930 H   0  0  0  0  0  0  0  0  0  0  0  0
    4.7932   -0.2702    6.7820 H   0  0  0  0  0  0  0  0  0  0  0  0
    2.2673    2.3684    7.2966 H   0  0  0  0  0  0  0  0  0  0  0  0
    1.3220    2.1374    5.8381 H   0  0  0  0  0  0  0  0  0  0  0  0
    1.2049    0.5420    8.4298 H   0  0  0  0  0  0  0  0  0  0  0  0
   -0.0802    1.3384    7.5593 H   0  0  0  0  0  0  0  0  0  0  0  0
    0.7516   -3.5973    8.0924 H   0  0  0  0  0  0  0  0  0  0  0  0
   -0.9611   -4.0431    8.0148 H   0  0  0  0  0  0  0  0  0  0  0  0
    3.3587   -6.2578    4.7697 H   0  0  0  0  0  0  0  0  0  0  0  0
    2.4410   -7.7278    4.6145 H   0  0  0  0  0  0  0  0  0  0  0  0
    2.3717   -5.2665    2.8605 H   0  0  0  0  0  0  0  0  0  0  0  0
    3.0066   -6.8204    2.3517 H   0  0  0  0  0  0  0  0  0  0  0  0
    0.1261   -5.9014    2.7618 H   0  0  0  0  0  0  0  0  0  0  0  0
    0.8696   -6.3372    1.2462 H   0  0  0  0  0  0  0  0  0  0  0  0
   -2.7053   -9.2198    2.1250 H   0  0  0  0  0  0  0  0  0  0  0  0
   -1.5558   -9.7075    3.3751 H   0  0  0  0  0  0  0  0  0  0  0  0
   -1.2269  -10.0760    1.6792 H   0  0  0  0  0  0  0  0  0  0  0  0
    0.7224   -1.6869    4.8832 H   0  0  0  0  0  0  0  0  0  0  0  0
    0.3660    0.0145    4.7443 H   0  0  0  0  0  0  0  0  0  0  0  0
    2.9710   -1.3805    5.5822 H   0  0  0  0  0  0  0  0  0  0  0  0
    5.1988   -3.8070    1.8378 H   0  0  0  0  0  0  0  0  0  0  0  0
    3.4415   -3.7625    1.9785 H   0  0  0  0  0  0  0  0  0  0  0  0
    4.2897   -5.6736    0.6068 H   0  0  0  0  0  0  0  0  0  0  0  0
    2.7017   -5.2019   -1.0387 H   0  0  0  0  0  0  0  0  0  0  0  0
    6.0701   -4.4873   -0.5543 H   0  0  0  0  0  0  0  0  0  0  0  0
    5.0102   -5.2216   -1.7247 H   0  0  0  0  0  0  0  0  0  0  0  0
    5.7359   -2.8554   -2.2516 H   0  0  0  0  0  0  0  0  0  0  0  0
    3.0609   -3.5061   -1.9608 H   0  0  0  0  0  0  0  0  0  0  0  0
  1  2  2  0
  1 40  1  0
  1 41  1  0
  2 38  1  0
  2  3  1  0
  3  4  2  3
  3 34  1  0
  4  5  1  0
  4 42  1  0
  5  6  2  3
  5 43  1  0
  6 33  1  0
  6  7  1  0
  7  8  1  0
  7 11  1  0
  7 44  1  6
  8  9  1  0
  8 10  1  0
  8 45  1  6
  9 46  1  0
  9 47  1  0
  9 48  1  0
 10 49  1  0
 11 12  1  0
 11 50  1  0
 11 51  1  0
 12 33  1  0
 12 13  1  1
 12 14  1  0
 13 52  1  0
 13 53  1  0
 13 54  1  0
 14 15  1  0
 14 55  1  0
 14 56  1  0
 15 16  1  0
 15 57  1  0
 15 58  1  0
 16 17  2  3
 16 32  1  0
 17 18  1  0
 18 19  1  0
 19 20  1  0
 19 59  1  0
 19 60  1  0
 20 31  2  0
 20 21  1  0
 21 22  2  0
 22 23  1  0
 23 24  1  0
 23 31  1  0
 24 25  1  0
 24 61  1  0
 24 62  1  0
 25 26  1  0
 25 63  1  0
 25 64  1  0
 26 27  1  0
 26 65  1  0
 26 66  1  0
 27 28  2  0
 27 29  1  0
 29 30  1  0
 30 67  1  0
 30 68  1  0
 30 69  1  0
 32 33  1  0
 32 70  1  0
 32 71  1  0
 33 72  1  1
 34 35  1  0
 34 73  1  0
 34 74  1  0
 35 36  1  0
 35 37  1  0
 35 75  1  1
 36 76  1  0
 37 38  1  0
 37 77  1  0
 37 78  1  0
 38 39  1  0
 38 79  1  6
 39 80  1  0
M  END
>  <i_m_ct_stereo_status>  (149) 
1

>  <s_m_source_file>  (149) 
/var/tmp/pbs.5076255.sched01/tmp9vbryffn/46pprzbbw9.sdf

>  <i_m_source_file_index>  (149) 
21

>  <i_lp_mmshare_version>  (149) 
48012

>  <i_f3d_flags>  (149) 
0

>  <s_epik_input>  (149) 
W09IXVtDQEBIXTFbQ0gyXVtDQEhdKFtPSF0pW0NIMl1DKFxDMT1bQ0gyXSk9W0NIXVxbQ0hdPUMoL1tDQEhdKFtDSDJdMilbQ0BIXShbQ0gzXSlbT0hdKVtDQEBIXShbQ0BAXTIzW0NIM10pW0NIMl1DKFxbQ0gyXVtDSDJdMyk9TlxPW0NIMl1jNG5ubihuNClbQ0gyXVtDSDJdW0NIMl1DKD1PKU9bQ0gzXQ==

>  <s_epik_cmdline>  (149) 
J2VwaWtfcHl0aG9uJywgJy1waHQnLCAnMi4wJywgJy1waCcsICc3LjAnLCAnLXRuJywgJzgnLCAnLW1hJywgJzIwMCcsICctaW1hZScsICc8aW5maWxlLm1hZT4nLCAnLW9tYWUnLCAnPG91dGZpbGUubWFlPic=

>  <r_lp_tautomer_probability>  (149) 
1

>  <r_epik_Ionization_Penalty>  (149) 
5.38978e-07

>  <r_epik_Ionization_Penalty_Charging>  (149) 
0

>  <r_epik_Ionization_Penalty_Neutral>  (149) 
5.38978e-07

>  <r_epik_State_Penalty>  (149) 
-0

>  <r_epik_Charging_Adjusted_Penalty>  (149) 
0

>  <i_epik_Tot_Q>  (149) 
0

>  <i_epik_Tot_abs_Q>  (149) 
0

>  <s_epik_Chemistry_Notes>  (149) 
This compound has an ester and may undergo hydrolysis at high or low pH. This compound has an imine and may undergo hydrolysis.

>  <s_lp_Force_Field>  (149) 
OPLS3e

>  <r_lp_Energy>  (149) 
35.6979

>  <b_lp_Chiralities_Consistent>  (149) 
1

>  <s_lp_Variant>  (149) 
37:0-6

>  <s_i_glide_gridfile>  (149) 
pfpi4k_grid

>  <i_i_glide_lignum>  (149) 
21

>  <i_i_glide_rotatable_bonds>  (149) 
13

>  <r_i_docking_score>  (149) 
-2.239

>  <r_i_glide_ligand_efficiency>  (149) 
-0.0574102

>  <r_i_glide_ligand_efficiency_sa>  (149) 
-0.19469

>  <r_i_glide_ligand_efficiency_ln>  (149) 
-0.480105

>  <r_i_glide_gscore>  (149) 
-2.239

>  <r_i_glide_lipo>  (149) 
-0.363097

>  <r_i_glide_hbond>  (149) 
0

>  <r_i_glide_metal>  (149) 
-0

>  <r_i_glide_rewards>  (149) 
0

>  <r_i_glide_evdw>  (149) 
-29.2102

>  <r_i_glide_ecoul>  (149) 
-5.75362

>  <r_i_glide_erotb>  (149) 
0.630133

>  <r_i_glide_esite>  (149) 
-0.18248

>  <r_i_glide_emodel>  (149) 
-33.0599

>  <r_i_glide_energy>  (149) 
-34.9638

>  <r_i_glide_einternal>  (149) 
9.14233

>  <r_i_glide_intrahb_reward>  (149) 
-0

>  <i_i_glide_confnum>  (149) 
2

>  <i_i_glide_posenum>  (149) 
40

>  <r_i_glide_eff_state_penalty>  (149) 
0

>  <ligand_id>  (149) 
37

>  <original_smiles>  (149) 
C=C1C(=CC=C2C(C(C)O)CC3(C)CCC(=NOCc4nnn(CCCC(=O)OC)n4)CC23)CC(O)CC1O

>  <smiles>  (149) 
[H]OC1([H])C(=C([H])[H])C(=C([H])C([H])=C2C([H])(C([H])(O[H])C([H])([H])[H])C([H])([H])C3(C([H])([H])[H])C([H])([H])C([H])([H])C(=NOC([H])([H])c4nnn(C([H])([H])C([H])([H])C([H])([H])C(=O)OC([H])([H])[H])n4)C([H])([H])C23[H])C([H])([H])C([H])(O[H])C1([H])[H]

$$$$
37:5:2
     RDKit          3D

 80 83  0  0  1  0  0  0  0  0999 V2000
    5.4349   -0.6370   -0.7161 C   0  0  0  0  0  0  0  0  0  0  0  0
    4.7651   -1.7898   -0.6618 C   0  0  0  0  0  0  0  0  0  0  0  0
    4.1080   -2.2657    0.5958 C   0  0  0  0  0  0  0  0  0  0  0  0
    3.7580   -1.4045    1.5756 C   0  0  0  0  0  0  0  0  0  0  0  0
    3.1485   -1.7720    2.8344 C   0  0  0  0  0  0  0  0  0  0  0  0
    2.6054   -0.9135    3.7260 C   0  0  0  0  0  0  0  0  0  0  0  0
    2.6214    0.6047    3.6314 C   0  0  1  0  0  0  0  0  0  0  0  0
    1.3569    1.1887    2.9391 C   0  0  2  0  0  0  0  0  0  0  0  0
    1.3571    2.7162    2.8656 C   0  0  0  0  0  0  0  0  0  0  0  0
    0.1224    0.8503    3.6200 O   0  0  0  0  0  0  0  0  0  0  0  0
    2.8918    1.0009    5.0954 C   0  0  0  0  0  0  0  0  0  0  0  0
    2.2598   -0.0637    6.0210 C   0  0  1  0  0  0  0  0  0  0  0  0
    3.1912   -0.3785    7.2069 C   0  0  0  0  0  0  0  0  0  0  0  0
    0.9071    0.4388    6.6194 C   0  0  0  0  0  0  0  0  0  0  0  0
    0.0546   -0.6951    7.2405 C   0  0  0  0  0  0  0  0  0  0  0  0
    0.0667   -2.0200    6.4501 C   0  0  0  0  0  0  0  0  0  0  0  0
   -0.4060   -3.0798    6.9607 N   0  0  0  0  0  0  0  0  0  0  0  0
   -0.3257   -4.1870    6.0987 O   0  0  0  0  0  0  0  0  0  0  0  0
   -0.1797   -5.3516    6.8935 C   0  0  0  0  0  0  0  0  0  0  0  0
   -0.1408   -6.5393    5.9784 C   0  0  0  0  0  0  0  0  0  0  0  0
   -0.8583   -6.6106    4.8374 N   0  0  0  0  0  0  0  0  0  0  0  0
   -0.5897   -7.8329    4.3395 N   0  0  0  0  0  0  0  0  0  0  0  0
    0.2641   -8.3735    5.2304 N   0  0  0  0  0  0  0  0  0  0  0  0
    0.8633   -9.6848    5.0087 C   0  0  0  0  0  0  0  0  0  0  0  0
    1.8199   -9.7116    3.8004 C   0  0  0  0  0  0  0  0  0  0  0  0
    2.8625   -8.5810    3.8105 C   0  0  0  0  0  0  0  0  0  0  0  0
    3.7579   -8.5870    2.5807 C   0  0  0  0  0  0  0  0  0  0  0  0
    3.7248   -7.6702    1.7629 O   0  0  0  0  0  0  0  0  0  0  0  0
    4.5640   -9.6602    2.5239 O   0  0  0  0  0  0  0  0  0  0  0  0
    5.4580   -9.8030    1.4301 C   0  0  0  0  0  0  0  0  0  0  0  0
    0.5457   -7.6043    6.2979 N   0  0  0  0  0  0  0  0  0  0  0  0
    0.6685   -1.9248    5.0559 C   0  0  0  0  0  0  0  0  0  0  0  0
    2.0945   -1.3220    5.1094 C   0  0  1  0  0  0  0  0  0  0  0  0
    3.8438   -3.7616    0.7030 C   0  0  0  0  0  0  0  0  0  0  0  0
    3.5303   -4.4162   -0.6415 C   0  0  1  0  0  0  0  0  0  0  0  0
    2.2229   -4.0672   -1.0534 O   0  0  0  0  0  0  0  0  0  0  0  0
    4.5975   -4.0680   -1.7037 C   0  0  0  0  0  0  0  0  0  0  0  0
    4.6666   -2.5708   -1.9602 C   0  0  1  0  0  0  0  0  0  0  0  0
    3.5638   -2.1267   -2.7110 O   0  0  0  0  0  0  0  0  0  0  0  0
    5.7762   -0.3389   -1.6824 H   0  0  0  0  0  0  0  0  0  0  0  0
    5.5515    0.0521    0.1014 H   0  0  0  0  0  0  0  0  0  0  0  0
    3.9799   -0.3513    1.4550 H   0  0  0  0  0  0  0  0  0  0  0  0
    3.1762   -2.8030    3.1434 H   0  0  0  0  0  0  0  0  0  0  0  0
    3.4856    0.9175    3.0469 H   0  0  0  0  0  0  0  0  0  0  0  0
    1.3008    0.7841    1.9251 H   0  0  0  0  0  0  0  0  0  0  0  0
    2.1397    3.0900    2.2223 H   0  0  0  0  0  0  0  0  0  0  0  0
    1.4558    3.1853    3.8429 H   0  0  0  0  0  0  0  0  0  0  0  0
    0.3982    3.0512    2.4864 H   0  0  0  0  0  0  0  0  0  0  0  0
   -0.5871    1.2938    3.1140 H   0  0  0  0  0  0  0  0  0  0  0  0
    3.9822    0.9676    5.2408 H   0  0  0  0  0  0  0  0  0  0  0  0
    2.6075    2.0223    5.3483 H   0  0  0  0  0  0  0  0  0  0  0  0
    2.7729   -1.1594    7.8501 H   0  0  0  0  0  0  0  0  0  0  0  0
    3.3370    0.5056    7.8328 H   0  0  0  0  0  0  0  0  0  0  0  0
    4.1751   -0.7207    6.8828 H   0  0  0  0  0  0  0  0  0  0  0  0
    1.0943    1.2221    7.3772 H   0  0  0  0  0  0  0  0  0  0  0  0
    0.2804    0.9303    5.8385 H   0  0  0  0  0  0  0  0  0  0  0  0
    0.3761   -0.8971    8.2574 H   0  0  0  0  0  0  0  0  0  0  0  0
   -0.9626   -0.3123    7.2819 H   0  0  0  0  0  0  0  0  0  0  0  0
    0.7512   -5.2911    7.4651 H   0  0  0  0  0  0  0  0  0  0  0  0
   -1.0046   -5.4643    7.6051 H   0  0  0  0  0  0  0  0  0  0  0  0
    1.3876   -9.9944    5.9093 H   0  0  0  0  0  0  0  0  0  0  0  0
    0.0666  -10.4178    4.8663 H   0  0  0  0  0  0  0  0  0  0  0  0
    2.3219  -10.6866    3.7695 H   0  0  0  0  0  0  0  0  0  0  0  0
    1.2269   -9.6525    2.8848 H   0  0  0  0  0  0  0  0  0  0  0  0
    2.3718   -7.6040    3.8654 H   0  0  0  0  0  0  0  0  0  0  0  0
    3.4964   -8.6554    4.6963 H   0  0  0  0  0  0  0  0  0  0  0  0
    6.0280  -10.7230    1.5404 H   0  0  0  0  0  0  0  0  0  0  0  0
    6.1635   -8.9723    1.3687 H   0  0  0  0  0  0  0  0  0  0  0  0
    4.9054   -9.8518    0.4908 H   0  0  0  0  0  0  0  0  0  0  0  0
    0.6912   -2.8815    4.5341 H   0  0  0  0  0  0  0  0  0  0  0  0
   -0.0490   -1.3538    4.4705 H   0  0  0  0  0  0  0  0  0  0  0  0
    2.7611   -2.1267    5.4650 H   0  0  0  0  0  0  0  0  0  0  0  0
    4.7149   -4.2328    1.1477 H   0  0  0  0  0  0  0  0  0  0  0  0
    2.9895   -3.9751    1.3309 H   0  0  0  0  0  0  0  0  0  0  0  0
    3.5417   -5.4933   -0.4667 H   0  0  0  0  0  0  0  0  0  0  0  0
    2.0970   -4.4905   -1.8995 H   0  0  0  0  0  0  0  0  0  0  0  0
    5.5609   -4.4077   -1.3272 H   0  0  0  0  0  0  0  0  0  0  0  0
    4.4936   -4.6015   -2.6498 H   0  0  0  0  0  0  0  0  0  0  0  0
    5.5450   -2.3842   -2.5788 H   0  0  0  0  0  0  0  0  0  0  0  0
    2.7854   -2.2419   -2.1734 H   0  0  0  0  0  0  0  0  0  0  0  0
  1  2  2  0
  1 40  1  0
  1 41  1  0
  2 38  1  0
  2  3  1  0
  3  4  2  3
  3 34  1  0
  4  5  1  0
  4 42  1  0
  5  6  2  3
  5 43  1  0
  6 33  1  0
  6  7  1  0
  7  8  1  0
  7 11  1  0
  7 44  1  6
  8  9  1  0
  8 10  1  0
  8 45  1  6
  9 46  1  0
  9 47  1  0
  9 48  1  0
 10 49  1  0
 11 12  1  0
 11 50  1  0
 11 51  1  0
 12 33  1  0
 12 13  1  1
 12 14  1  0
 13 52  1  0
 13 53  1  0
 13 54  1  0
 14 15  1  0
 14 55  1  0
 14 56  1  0
 15 16  1  0
 15 57  1  0
 15 58  1  0
 16 17  2  3
 16 32  1  0
 17 18  1  0
 18 19  1  0
 19 20  1  0
 19 59  1  0
 19 60  1  0
 20 31  2  0
 20 21  1  0
 21 22  2  0
 22 23  1  0
 23 24  1  0
 23 31  1  0
 24 25  1  0
 24 61  1  0
 24 62  1  0
 25 26  1  0
 25 63  1  0
 25 64  1  0
 26 27  1  0
 26 65  1  0
 26 66  1  0
 27 28  2  0
 27 29  1  0
 29 30  1  0
 30 67  1  0
 30 68  1  0
 30 69  1  0
 32 33  1  0
 32 70  1  0
 32 71  1  0
 33 72  1  1
 34 35  1  0
 34 73  1  0
 34 74  1  0
 35 36  1  0
 35 37  1  0
 35 75  1  1
 36 76  1  0
 37 38  1  0
 37 77  1  0
 37 78  1  0
 38 39  1  0
 38 79  1  6
 39 80  1  0
M  END
>  <i_m_ct_stereo_status>  (150) 
1

>  <s_m_source_file>  (150) 
/var/tmp/pbs.5076255.sched01/tmp9vbryffn/46pprzbbw9.sdf

>  <i_m_source_file_index>  (150) 
21

>  <i_lp_mmshare_version>  (150) 
48012

>  <i_f3d_flags>  (150) 
0

>  <s_epik_input>  (150) 
W09IXVtDQEBIXTFbQ0gyXVtDQEhdKFtPSF0pW0NIMl1DKFxDMT1bQ0gyXSk9W0NIXVxbQ0hdPUMoL1tDQEhdKFtDSDJdMilbQ0BIXShbQ0gzXSlbT0hdKVtDQEBIXShbQ0BAXTIzW0NIM10pW0NIMl1DKFxbQ0gyXVtDSDJdMyk9TlxPW0NIMl1jNG5ubihuNClbQ0gyXVtDSDJdW0NIMl1DKD1PKU9bQ0gzXQ==

>  <s_epik_cmdline>  (150) 
J2VwaWtfcHl0aG9uJywgJy1waHQnLCAnMi4wJywgJy1waCcsICc3LjAnLCAnLXRuJywgJzgnLCAnLW1hJywgJzIwMCcsICctaW1hZScsICc8aW5maWxlLm1hZT4nLCAnLW9tYWUnLCAnPG91dGZpbGUubWFlPic=

>  <r_lp_tautomer_probability>  (150) 
1

>  <r_epik_Ionization_Penalty>  (150) 
5.38978e-07

>  <r_epik_Ionization_Penalty_Charging>  (150) 
0

>  <r_epik_Ionization_Penalty_Neutral>  (150) 
5.38978e-07

>  <r_epik_State_Penalty>  (150) 
-0

>  <r_epik_Charging_Adjusted_Penalty>  (150) 
0

>  <i_epik_Tot_Q>  (150) 
0

>  <i_epik_Tot_abs_Q>  (150) 
0

>  <s_epik_Chemistry_Notes>  (150) 
This compound has an ester and may undergo hydrolysis at high or low pH. This compound has an imine and may undergo hydrolysis.

>  <s_lp_Force_Field>  (150) 
OPLS3e

>  <r_lp_Energy>  (150) 
35.6979

>  <b_lp_Chiralities_Consistent>  (150) 
1

>  <s_lp_Variant>  (150) 
37:0-6

>  <s_i_glide_gridfile>  (150) 
pfpi4k_grid

>  <i_i_glide_lignum>  (150) 
21

>  <i_i_glide_rotatable_bonds>  (150) 
13

>  <r_i_docking_score>  (150) 
-1.73768

>  <r_i_glide_ligand_efficiency>  (150) 
-0.0445559

>  <r_i_glide_ligand_efficiency_sa>  (150) 
-0.151098

>  <r_i_glide_ligand_efficiency_ln>  (150) 
-0.372608

>  <r_i_glide_gscore>  (150) 
-1.73768

>  <r_i_glide_lipo>  (150) 
-0.0469988

>  <r_i_glide_hbond>  (150) 
0

>  <r_i_glide_metal>  (150) 
-0

>  <r_i_glide_rewards>  (150) 
0

>  <r_i_glide_evdw>  (150) 
-28.3713

>  <r_i_glide_ecoul>  (150) 
-5.76716

>  <r_i_glide_erotb>  (150) 
0.630133

>  <r_i_glide_esite>  (150) 
-0.220755

>  <r_i_glide_emodel>  (150) 
-29.9861

>  <r_i_glide_energy>  (150) 
-34.1385

>  <r_i_glide_einternal>  (150) 
8.44691

>  <r_i_glide_intrahb_reward>  (150) 
-0

>  <i_i_glide_confnum>  (150) 
14

>  <i_i_glide_posenum>  (150) 
30

>  <r_i_glide_eff_state_penalty>  (150) 
0

>  <ligand_id>  (150) 
37

>  <original_smiles>  (150) 
C=C1C(=CC=C2C(C(C)O)CC3(C)CCC(=NOCc4nnn(CCCC(=O)OC)n4)CC23)CC(O)CC1O

>  <smiles>  (150) 
[H]OC1([H])C(=C([H])[H])C(=C([H])C([H])=C2C([H])(C([H])(O[H])C([H])([H])[H])C([H])([H])C3(C([H])([H])[H])C([H])([H])C([H])([H])C(=NOC([H])([H])c4nnn(C([H])([H])C([H])([H])C([H])([H])C(=O)OC([H])([H])[H])n4)C([H])([H])C23[H])C([H])([H])C([H])(O[H])C1([H])[H]

$$$$
37:6:0
     RDKit          3D

 80 83  0  0  1  0  0  0  0  0999 V2000
    2.3364    6.9020    5.5314 C   0  0  0  0  0  0  0  0  0  0  0  0
    3.4469    6.1478    5.5862 C   0  0  0  0  0  0  0  0  0  0  0  0
    3.5106    4.6588    5.4573 C   0  0  0  0  0  0  0  0  0  0  0  0
    2.5029    3.8133    5.0952 C   0  0  0  0  0  0  0  0  0  0  0  0
    1.1717    4.2517    4.7098 C   0  0  0  0  0  0  0  0  0  0  0  0
    0.0336    3.5660    4.8815 C   0  0  0  0  0  0  0  0  0  0  0  0
   -1.3644    4.0914    4.5756 C   0  0  1  0  0  0  0  0  0  0  0  0
   -1.5943    4.5316    3.0810 C   0  0  2  0  0  0  0  0  0  0  0  0
   -0.8026    5.7900    2.6416 C   0  0  0  0  0  0  0  0  0  0  0  0
   -2.9494    4.8481    2.7666 O   0  0  0  0  0  0  0  0  0  0  0  0
   -2.3271    3.0013    5.1167 C   0  0  0  0  0  0  0  0  0  0  0  0
   -1.5064    2.2109    6.1697 C   0  0  1  0  0  0  0  0  0  0  0  0
   -1.5143    2.9787    7.5165 C   0  0  0  0  0  0  0  0  0  0  0  0
   -2.0376    0.7801    6.4466 C   0  0  0  0  0  0  0  0  0  0  0  0
   -1.6914   -0.2759    5.3785 C   0  0  0  0  0  0  0  0  0  0  0  0
   -0.2090   -0.2481    5.0636 C   0  0  0  0  0  0  0  0  0  0  0  0
    0.5787   -1.2231    5.3010 N   0  0  0  0  0  0  0  0  0  0  0  0
    1.8980   -0.9782    4.8894 O   0  0  0  0  0  0  0  0  0  0  0  0
    2.6793   -2.1434    5.1129 C   0  0  0  0  0  0  0  0  0  0  0  0
    3.6219   -2.2809    3.9780 C   0  0  0  0  0  0  0  0  0  0  0  0
    3.6945   -3.3951    3.1814 N   0  0  0  0  0  0  0  0  0  0  0  0
    4.6433   -3.1732    2.3344 N   0  0  0  0  0  0  0  0  0  0  0  0
    5.0973   -1.9254    2.5939 N   0  0  0  0  0  0  0  0  0  0  0  0
    6.0690   -1.2520    1.7609 C   0  0  0  0  0  0  0  0  0  0  0  0
    5.3949   -0.4035    0.6607 C   0  0  0  0  0  0  0  0  0  0  0  0
    4.4794   -1.2130   -0.2846 C   0  0  0  0  0  0  0  0  0  0  0  0
    5.2259   -2.1262   -1.2642 C   0  0  0  0  0  0  0  0  0  0  0  0
    6.4579   -2.1537   -1.3354 O   0  0  0  0  0  0  0  0  0  0  0  0
    4.3868   -2.8512   -2.0140 O   0  0  0  0  0  0  0  0  0  0  0  0
    4.9089   -3.7868   -2.9398 C   0  0  0  0  0  0  0  0  0  0  0  0
    4.4915   -1.3239    3.6366 N   0  0  0  0  0  0  0  0  0  0  0  0
    0.1717    1.1096    4.5112 C   0  0  0  0  0  0  0  0  0  0  0  0
   -0.0780    2.2195    5.5622 C   0  0  1  0  0  0  0  0  0  0  0  0
    4.8578    4.0206    5.7562 C   0  0  0  0  0  0  0  0  0  0  0  0
    5.4908    4.6202    7.0282 C   0  0  1  0  0  0  0  0  0  0  0  0
    6.7434    4.0209    7.2852 O   0  0  0  0  0  0  0  0  0  0  0  0
    5.6584    6.1517    6.9207 C   0  0  0  0  0  0  0  0  0  0  0  0
    4.7699    6.8527    5.8544 C   0  0  1  0  0  0  0  0  0  0  0  0
    5.5295    7.0296    4.6677 O   0  0  0  0  0  0  0  0  0  0  0  0
    2.4842    8.0027    5.6124 H   0  0  0  0  0  0  0  0  0  0  0  0
    1.3338    6.5350    5.4311 H   0  0  0  0  0  0  0  0  0  0  0  0
    2.7451    2.7475    5.0122 H   0  0  0  0  0  0  0  0  0  0  0  0
    1.1145    5.1805    4.1894 H   0  0  0  0  0  0  0  0  0  0  0  0
   -1.4741    4.9527    5.2229 H   0  0  0  0  0  0  0  0  0  0  0  0
   -1.3469    3.6578    2.4628 H   0  0  0  0  0  0  0  0  0  0  0  0
    0.2736    5.6054    2.5946 H   0  0  0  0  0  0  0  0  0  0  0  0
   -0.9622    6.6366    3.3084 H   0  0  0  0  0  0  0  0  0  0  0  0
   -1.1312    6.1304    1.6561 H   0  0  0  0  0  0  0  0  0  0  0  0
   -3.0798    4.8042    1.8422 H   0  0  0  0  0  0  0  0  0  0  0  0
   -3.2555    3.4204    5.5285 H   0  0  0  0  0  0  0  0  0  0  0  0
   -2.6006    2.3540    4.2829 H   0  0  0  0  0  0  0  0  0  0  0  0
   -0.8754    2.4820    8.2482 H   0  0  0  0  0  0  0  0  0  0  0  0
   -2.5149    3.0340    7.9466 H   0  0  0  0  0  0  0  0  0  0  0  0
   -1.1402    4.0007    7.4252 H   0  0  0  0  0  0  0  0  0  0  0  0
   -1.6056    0.4641    7.3903 H   0  0  0  0  0  0  0  0  0  0  0  0
   -3.1081    0.8180    6.6139 H   0  0  0  0  0  0  0  0  0  0  0  0
   -1.9737   -1.2631    5.7243 H   0  0  0  0  0  0  0  0  0  0  0  0
   -2.2530   -0.1009    4.4562 H   0  0  0  0  0  0  0  0  0  0  0  0
    3.2495   -2.0698    6.0385 H   0  0  0  0  0  0  0  0  0  0  0  0
    2.0801   -3.0572    5.1782 H   0  0  0  0  0  0  0  0  0  0  0  0
    6.6920   -0.6284    2.4015 H   0  0  0  0  0  0  0  0  0  0  0  0
    6.7495   -1.9870    1.3203 H   0  0  0  0  0  0  0  0  0  0  0  0
    4.7930    0.3670    1.1457 H   0  0  0  0  0  0  0  0  0  0  0  0
    6.1522    0.1365    0.0946 H   0  0  0  0  0  0  0  0  0  0  0  0
    3.7784   -1.8188    0.2909 H   0  0  0  0  0  0  0  0  0  0  0  0
    3.8518   -0.5371   -0.8621 H   0  0  0  0  0  0  0  0  0  0  0  0
    4.0975   -4.2430   -3.5034 H   0  0  0  0  0  0  0  0  0  0  0  0
    5.4381   -4.5826   -2.4181 H   0  0  0  0  0  0  0  0  0  0  0  0
    5.5902   -3.3122   -3.6472 H   0  0  0  0  0  0  0  0  0  0  0  0
    1.2080    1.1418    4.1855 H   0  0  0  0  0  0  0  0  0  0  0  0
   -0.4204    1.2969    3.6110 H   0  0  0  0  0  0  0  0  0  0  0  0
    0.6647    2.1265    6.3600 H   0  0  0  0  0  0  0  0  0  0  0  0
    4.7796    2.9278    5.8572 H   0  0  0  0  0  0  0  0  0  0  0  0
    5.5223    4.2144    4.9099 H   0  0  0  0  0  0  0  0  0  0  0  0
    4.8301    4.3800    7.8618 H   0  0  0  0  0  0  0  0  0  0  0  0
    6.6383    3.0890    7.3819 H   0  0  0  0  0  0  0  0  0  0  0  0
    5.4439    6.5646    7.9147 H   0  0  0  0  0  0  0  0  0  0  0  0
    6.7188    6.4142    6.7470 H   0  0  0  0  0  0  0  0  0  0  0  0
    4.5646    7.8645    6.2472 H   0  0  0  0  0  0  0  0  0  0  0  0
    4.9711    7.4703    4.0514 H   0  0  0  0  0  0  0  0  0  0  0  0
  1  2  2  0
  1 40  1  0
  1 41  1  0
  2 38  1  0
  2  3  1  0
  3  4  2  3
  3 34  1  0
  4  5  1  0
  4 42  1  0
  5  6  2  3
  5 43  1  0
  6 33  1  0
  6  7  1  0
  7  8  1  0
  7 11  1  0
  7 44  1  1
  8  9  1  0
  8 10  1  0
  8 45  1  6
  9 46  1  0
  9 47  1  0
  9 48  1  0
 10 49  1  0
 11 12  1  0
 11 50  1  0
 11 51  1  0
 12 33  1  0
 12 13  1  1
 12 14  1  0
 13 52  1  0
 13 53  1  0
 13 54  1  0
 14 15  1  0
 14 55  1  0
 14 56  1  0
 15 16  1  0
 15 57  1  0
 15 58  1  0
 16 17  2  3
 16 32  1  0
 17 18  1  0
 18 19  1  0
 19 20  1  0
 19 59  1  0
 19 60  1  0
 20 31  2  0
 20 21  1  0
 21 22  2  0
 22 23  1  0
 23 24  1  0
 23 31  1  0
 24 25  1  0
 24 61  1  0
 24 62  1  0
 25 26  1  0
 25 63  1  0
 25 64  1  0
 26 27  1  0
 26 65  1  0
 26 66  1  0
 27 28  2  0
 27 29  1  0
 29 30  1  0
 30 67  1  0
 30 68  1  0
 30 69  1  0
 32 33  1  0
 32 70  1  0
 32 71  1  0
 33 72  1  1
 34 35  1  0
 34 73  1  0
 34 74  1  0
 35 36  1  0
 35 37  1  0
 35 75  1  1
 36 76  1  0
 37 38  1  0
 37 77  1  0
 37 78  1  0
 38 39  1  0
 38 79  1  1
 39 80  1  0
M  END
>  <i_m_ct_stereo_status>  (151) 
1

>  <s_m_source_file>  (151) 
/var/tmp/pbs.5076255.sched01/tmp9vbryffn/46pprzbbw9.sdf

>  <i_m_source_file_index>  (151) 
22

>  <i_lp_mmshare_version>  (151) 
48012

>  <i_f3d_flags>  (151) 
0

>  <s_epik_input>  (151) 
W09IXVtDQEBIXTFbQ0gyXVtDQEhdKFtPSF0pW0NIMl1DKFxDMT1bQ0gyXSk9W0NIXVxbQ0hdPUMoL1tDQEhdKFtDSDJdMilbQ0BIXShbQ0gzXSlbT0hdKVtDQEBIXShbQ0BAXTIzW0NIM10pW0NIMl1DKFxbQ0gyXVtDSDJdMyk9TlxPW0NIMl1jNG5ubihuNClbQ0gyXVtDSDJdW0NIMl1DKD1PKU9bQ0gzXQ==

>  <s_epik_cmdline>  (151) 
J2VwaWtfcHl0aG9uJywgJy1waHQnLCAnMi4wJywgJy1waCcsICc3LjAnLCAnLXRuJywgJzgnLCAnLW1hJywgJzIwMCcsICctaW1hZScsICc8aW5maWxlLm1hZT4nLCAnLW9tYWUnLCAnPG91dGZpbGUubWFlPic=

>  <r_lp_tautomer_probability>  (151) 
1

>  <r_epik_Ionization_Penalty>  (151) 
5.38978e-07

>  <r_epik_Ionization_Penalty_Charging>  (151) 
0

>  <r_epik_Ionization_Penalty_Neutral>  (151) 
5.38978e-07

>  <r_epik_State_Penalty>  (151) 
-0

>  <r_epik_Charging_Adjusted_Penalty>  (151) 
0

>  <i_epik_Tot_Q>  (151) 
0

>  <i_epik_Tot_abs_Q>  (151) 
0

>  <s_epik_Chemistry_Notes>  (151) 
This compound has an ester and may undergo hydrolysis at high or low pH. This compound has an imine and may undergo hydrolysis.

>  <s_lp_Force_Field>  (151) 
OPLS3e

>  <r_lp_Energy>  (151) 
33.0074

>  <b_lp_Chiralities_Consistent>  (151) 
1

>  <s_lp_Variant>  (151) 
37:0-7

>  <s_i_glide_gridfile>  (151) 
pfpi4k_grid

>  <i_i_glide_lignum>  (151) 
22

>  <i_i_glide_rotatable_bonds>  (151) 
13

>  <r_i_docking_score>  (151) 
-2.14362

>  <r_i_glide_ligand_efficiency>  (151) 
-0.0549647

>  <r_i_glide_ligand_efficiency_sa>  (151) 
-0.186397

>  <r_i_glide_ligand_efficiency_ln>  (151) 
-0.459653

>  <r_i_glide_gscore>  (151) 
-2.14362

>  <r_i_glide_lipo>  (151) 
-0.380292

>  <r_i_glide_hbond>  (151) 
-0.309036

>  <r_i_glide_metal>  (151) 
-0

>  <r_i_glide_rewards>  (151) 
-0.10735

>  <r_i_glide_evdw>  (151) 
-25.8065

>  <r_i_glide_ecoul>  (151) 
-4.23573

>  <r_i_glide_erotb>  (151) 
0.630133

>  <r_i_glide_esite>  (151) 
-0.0513926

>  <r_i_glide_emodel>  (151) 
-28.3792

>  <r_i_glide_energy>  (151) 
-30.0422

>  <r_i_glide_einternal>  (151) 
7.12437

>  <r_i_glide_intrahb_reward>  (151) 
-0

>  <i_i_glide_confnum>  (151) 
11

>  <i_i_glide_posenum>  (151) 
13

>  <r_i_glide_eff_state_penalty>  (151) 
0

>  <ligand_id>  (151) 
37

>  <original_smiles>  (151) 
C=C1C(=CC=C2C(C(C)O)CC3(C)CCC(=NOCc4nnn(CCCC(=O)OC)n4)CC23)CC(O)CC1O

>  <smiles>  (151) 
[H]OC1([H])C(=C([H])[H])C(=C([H])C([H])=C2C([H])(C([H])(O[H])C([H])([H])[H])C([H])([H])C3(C([H])([H])[H])C([H])([H])C([H])([H])C(=NOC([H])([H])c4nnn(C([H])([H])C([H])([H])C([H])([H])C(=O)OC([H])([H])[H])n4)C([H])([H])C23[H])C([H])([H])C([H])(O[H])C1([H])[H]

$$$$
37:6:1
     RDKit          3D

 80 83  0  0  1  0  0  0  0  0999 V2000
    7.5570   -7.6618    1.9501 C   0  0  0  0  0  0  0  0  0  0  0  0
    6.9549   -6.4776    1.6388 C   0  0  0  0  0  0  0  0  0  0  0  0
    5.6567   -6.0316    2.1766 C   0  0  0  0  0  0  0  0  0  0  0  0
    4.6707   -6.8687    2.6431 C   0  0  0  0  0  0  0  0  0  0  0  0
    4.6735   -8.3350    2.6462 C   0  0  0  0  0  0  0  0  0  0  0  0
    3.8395   -9.1409    3.2880 C   0  0  0  0  0  0  0  0  0  0  0  0
    3.9534  -10.6638    3.2628 C   0  0  1  0  0  0  0  0  0  0  0  0
    5.2612  -11.2253    3.8958 C   0  0  2  0  0  0  0  0  0  0  0  0
    5.3614  -12.7585    3.8230 C   0  0  0  0  0  0  0  0  0  0  0  0
    5.3818  -10.8310    5.2487 O   0  0  0  0  0  0  0  0  0  0  0  0
    2.6422  -11.1518    3.8981 C   0  0  0  0  0  0  0  0  0  0  0  0
    1.6480   -9.9813    3.7317 C   0  0  1  0  0  0  0  0  0  0  0  0
    1.0769   -9.9924    2.2914 C   0  0  0  0  0  0  0  0  0  0  0  0
    0.4579  -10.0340    4.7147 C   0  0  0  0  0  0  0  0  0  0  0  0
    0.7480   -9.5371    6.1462 C   0  0  0  0  0  0  0  0  0  0  0  0
    1.4580   -8.1955    6.1202 C   0  0  0  0  0  0  0  0  0  0  0  0
    0.9648   -7.1335    6.6227 N   0  0  0  0  0  0  0  0  0  0  0  0
    1.7461   -5.9773    6.4143 O   0  0  0  0  0  0  0  0  0  0  0  0
    1.4634   -5.0670    7.4728 C   0  0  0  0  0  0  0  0  0  0  0  0
    2.0837   -3.7501    7.1501 C   0  0  0  0  0  0  0  0  0  0  0  0
    3.3311   -3.3460    7.5659 N   0  0  0  0  0  0  0  0  0  0  0  0
    3.4846   -2.1405    7.1336 N   0  0  0  0  0  0  0  0  0  0  0  0
    2.3494   -1.8263    6.4675 N   0  0  0  0  0  0  0  0  0  0  0  0
    2.1780   -0.5836    5.7431 C   0  0  0  0  0  0  0  0  0  0  0  0
    2.3594   -0.8008    4.2279 C   0  0  0  0  0  0  0  0  0  0  0  0
    2.7082    0.4588    3.4121 C   0  0  0  0  0  0  0  0  0  0  0  0
    1.7720    1.6385    3.6721 C   0  0  0  0  0  0  0  0  0  0  0  0
    2.0018    2.4517    4.5687 O   0  0  0  0  0  0  0  0  0  0  0  0
    0.7002    1.6341    2.8699 O   0  0  0  0  0  0  0  0  0  0  0  0
   -0.2962    2.6305    3.0272 C   0  0  0  0  0  0  0  0  0  0  0  0
    1.4319   -2.8110    6.4822 N   0  0  0  0  0  0  0  0  0  0  0  0
    2.7756   -8.3156    5.4001 C   0  0  0  0  0  0  0  0  0  0  0  0
    2.5373   -8.7269    3.9358 C   0  0  1  0  0  0  0  0  0  0  0  0
    5.3790   -4.5114    2.2543 C   0  0  0  0  0  0  0  0  0  0  0  0
    6.0482   -3.6997    1.1211 C   0  0  1  0  0  0  0  0  0  0  0  0
    5.9046   -2.3130    1.3669 O   0  0  0  0  0  0  0  0  0  0  0  0
    7.5328   -4.0564    1.0124 C   0  0  0  0  0  0  0  0  0  0  0  0
    7.7222   -5.5470    0.6901 C   0  0  1  0  0  0  0  0  0  0  0  0
    9.1083   -5.8110    0.7145 O   0  0  0  0  0  0  0  0  0  0  0  0
    8.4313   -8.0043    1.4204 H   0  0  0  0  0  0  0  0  0  0  0  0
    7.1945   -8.3224    2.7136 H   0  0  0  0  0  0  0  0  0  0  0  0
    3.8056   -6.3796    3.0623 H   0  0  0  0  0  0  0  0  0  0  0  0
    5.3668   -8.8969    2.0460 H   0  0  0  0  0  0  0  0  0  0  0  0
    3.9646  -10.9521    2.2103 H   0  0  0  0  0  0  0  0  0  0  0  0
    6.1285  -10.8164    3.3722 H   0  0  0  0  0  0  0  0  0  0  0  0
    5.3168  -13.1038    2.7898 H   0  0  0  0  0  0  0  0  0  0  0  0
    4.5505  -13.2408    4.3690 H   0  0  0  0  0  0  0  0  0  0  0  0
    6.3000  -13.1175    4.2484 H   0  0  0  0  0  0  0  0  0  0  0  0
    5.2697   -9.8952    5.2972 H   0  0  0  0  0  0  0  0  0  0  0  0
    2.2955  -12.0821    3.4438 H   0  0  0  0  0  0  0  0  0  0  0  0
    2.8052  -11.3398    4.9607 H   0  0  0  0  0  0  0  0  0  0  0  0
    0.4259   -9.1386    2.1110 H   0  0  0  0  0  0  0  0  0  0  0  0
    0.4795  -10.8829    2.1079 H   0  0  0  0  0  0  0  0  0  0  0  0
    1.8478   -9.9552    1.5202 H   0  0  0  0  0  0  0  0  0  0  0  0
   -0.3502   -9.4177    4.3196 H   0  0  0  0  0  0  0  0  0  0  0  0
    0.0790  -11.0546    4.7379 H   0  0  0  0  0  0  0  0  0  0  0  0
   -0.1896   -9.4710    6.6979 H   0  0  0  0  0  0  0  0  0  0  0  0
    1.3692  -10.2575    6.6859 H   0  0  0  0  0  0  0  0  0  0  0  0
    0.3840   -4.9282    7.5927 H   0  0  0  0  0  0  0  0  0  0  0  0
    1.8617   -5.4537    8.4133 H   0  0  0  0  0  0  0  0  0  0  0  0
    1.1841   -0.1830    5.9518 H   0  0  0  0  0  0  0  0  0  0  0  0
    2.8897    0.1581    6.1144 H   0  0  0  0  0  0  0  0  0  0  0  0
    3.1652   -1.5197    4.0793 H   0  0  0  0  0  0  0  0  0  0  0  0
    1.4679   -1.2797    3.8226 H   0  0  0  0  0  0  0  0  0  0  0  0
    3.7299    0.7683    3.6350 H   0  0  0  0  0  0  0  0  0  0  0  0
    2.6829    0.2205    2.3475 H   0  0  0  0  0  0  0  0  0  0  0  0
   -1.0856    2.4745    2.2932 H   0  0  0  0  0  0  0  0  0  0  0  0
    0.1032    3.6370    2.8889 H   0  0  0  0  0  0  0  0  0  0  0  0
   -0.7438    2.5728    4.0197 H   0  0  0  0  0  0  0  0  0  0  0  0
    3.3531   -7.3963    5.4428 H   0  0  0  0  0  0  0  0  0  0  0  0
    3.3732   -9.0639    5.9188 H   0  0  0  0  0  0  0  0  0  0  0  0
    2.1198   -7.8754    3.3896 H   0  0  0  0  0  0  0  0  0  0  0  0
    4.3076   -4.3145    2.2123 H   0  0  0  0  0  0  0  0  0  0  0  0
    5.7068   -4.1321    3.2235 H   0  0  0  0  0  0  0  0  0  0  0  0
    5.5604   -3.9155    0.1703 H   0  0  0  0  0  0  0  0  0  0  0  0
    6.2477   -1.8338    0.6287 H   0  0  0  0  0  0  0  0  0  0  0  0
    8.0269   -3.4389    0.2565 H   0  0  0  0  0  0  0  0  0  0  0  0
    8.0425   -3.8640    1.9513 H   0  0  0  0  0  0  0  0  0  0  0  0
    7.4051   -5.7354   -0.3247 H   0  0  0  0  0  0  0  0  0  0  0  0
    9.2487   -6.7416    0.8823 H   0  0  0  0  0  0  0  0  0  0  0  0
  1  2  2  0
  1 40  1  0
  1 41  1  0
  2 38  1  0
  2  3  1  0
  3  4  2  3
  3 34  1  0
  4  5  1  0
  4 42  1  0
  5  6  2  3
  5 43  1  0
  6 33  1  0
  6  7  1  0
  7  8  1  0
  7 11  1  0
  7 44  1  6
  8  9  1  0
  8 10  1  0
  8 45  1  6
  9 46  1  0
  9 47  1  0
  9 48  1  0
 10 49  1  0
 11 12  1  0
 11 50  1  0
 11 51  1  0
 12 33  1  0
 12 13  1  6
 12 14  1  0
 13 52  1  0
 13 53  1  0
 13 54  1  0
 14 15  1  0
 14 55  1  0
 14 56  1  0
 15 16  1  0
 15 57  1  0
 15 58  1  0
 16 17  2  3
 16 32  1  0
 17 18  1  0
 18 19  1  0
 19 20  1  0
 19 59  1  0
 19 60  1  0
 20 31  2  0
 20 21  1  0
 21 22  2  0
 22 23  1  0
 23 24  1  0
 23 31  1  0
 24 25  1  0
 24 61  1  0
 24 62  1  0
 25 26  1  0
 25 63  1  0
 25 64  1  0
 26 27  1  0
 26 65  1  0
 26 66  1  0
 27 28  2  0
 27 29  1  0
 29 30  1  0
 30 67  1  0
 30 68  1  0
 30 69  1  0
 32 33  1  0
 32 70  1  0
 32 71  1  0
 33 72  1  6
 34 35  1  0
 34 73  1  0
 34 74  1  0
 35 36  1  0
 35 37  1  0
 35 75  1  6
 36 76  1  0
 37 38  1  0
 37 77  1  0
 37 78  1  0
 38 39  1  0
 38 79  1  6
 39 80  1  0
M  END
>  <i_m_ct_stereo_status>  (152) 
1

>  <s_m_source_file>  (152) 
/var/tmp/pbs.5076255.sched01/tmp9vbryffn/46pprzbbw9.sdf

>  <i_m_source_file_index>  (152) 
22

>  <i_lp_mmshare_version>  (152) 
48012

>  <i_f3d_flags>  (152) 
0

>  <s_epik_input>  (152) 
W09IXVtDQEBIXTFbQ0gyXVtDQEhdKFtPSF0pW0NIMl1DKFxDMT1bQ0gyXSk9W0NIXVxbQ0hdPUMoL1tDQEhdKFtDSDJdMilbQ0BIXShbQ0gzXSlbT0hdKVtDQEBIXShbQ0BAXTIzW0NIM10pW0NIMl1DKFxbQ0gyXVtDSDJdMyk9TlxPW0NIMl1jNG5ubihuNClbQ0gyXVtDSDJdW0NIMl1DKD1PKU9bQ0gzXQ==

>  <s_epik_cmdline>  (152) 
J2VwaWtfcHl0aG9uJywgJy1waHQnLCAnMi4wJywgJy1waCcsICc3LjAnLCAnLXRuJywgJzgnLCAnLW1hJywgJzIwMCcsICctaW1hZScsICc8aW5maWxlLm1hZT4nLCAnLW9tYWUnLCAnPG91dGZpbGUubWFlPic=

>  <r_lp_tautomer_probability>  (152) 
1

>  <r_epik_Ionization_Penalty>  (152) 
5.38978e-07

>  <r_epik_Ionization_Penalty_Charging>  (152) 
0

>  <r_epik_Ionization_Penalty_Neutral>  (152) 
5.38978e-07

>  <r_epik_State_Penalty>  (152) 
-0

>  <r_epik_Charging_Adjusted_Penalty>  (152) 
0

>  <i_epik_Tot_Q>  (152) 
0

>  <i_epik_Tot_abs_Q>  (152) 
0

>  <s_epik_Chemistry_Notes>  (152) 
This compound has an ester and may undergo hydrolysis at high or low pH. This compound has an imine and may undergo hydrolysis.

>  <s_lp_Force_Field>  (152) 
OPLS3e

>  <r_lp_Energy>  (152) 
33.0074

>  <b_lp_Chiralities_Consistent>  (152) 
1

>  <s_lp_Variant>  (152) 
37:0-7

>  <s_i_glide_gridfile>  (152) 
pfpi4k_grid

>  <i_i_glide_lignum>  (152) 
22

>  <i_i_glide_rotatable_bonds>  (152) 
13

>  <r_i_docking_score>  (152) 
-2.01424

>  <r_i_glide_ligand_efficiency>  (152) 
-0.0516472

>  <r_i_glide_ligand_efficiency_sa>  (152) 
-0.175147

>  <r_i_glide_ligand_efficiency_ln>  (152) 
-0.431911

>  <r_i_glide_gscore>  (152) 
-2.01424

>  <r_i_glide_lipo>  (152) 
-0.565715

>  <r_i_glide_hbond>  (152) 
-0.145881

>  <r_i_glide_metal>  (152) 
-0

>  <r_i_glide_rewards>  (152) 
0

>  <r_i_glide_evdw>  (152) 
-19.3124

>  <r_i_glide_ecoul>  (152) 
-4.95392

>  <r_i_glide_erotb>  (152) 
0.441093

>  <r_i_glide_esite>  (152) 
-0.035028

>  <r_i_glide_emodel>  (152) 
-24.2885

>  <r_i_glide_energy>  (152) 
-24.2664

>  <r_i_glide_einternal>  (152) 
4.88513

>  <r_i_glide_intrahb_reward>  (152) 
-0

>  <i_i_glide_confnum>  (152) 
17

>  <i_i_glide_posenum>  (152) 
27

>  <r_i_glide_eff_state_penalty>  (152) 
0

>  <ligand_id>  (152) 
37

>  <original_smiles>  (152) 
C=C1C(=CC=C2C(C(C)O)CC3(C)CCC(=NOCc4nnn(CCCC(=O)OC)n4)CC23)CC(O)CC1O

>  <smiles>  (152) 
[H]OC1([H])C(=C([H])[H])C(=C([H])C([H])=C2C([H])(C([H])(O[H])C([H])([H])[H])C([H])([H])C3(C([H])([H])[H])C([H])([H])C([H])([H])C(=NOC([H])([H])c4nnn(C([H])([H])C([H])([H])C([H])([H])C(=O)OC([H])([H])[H])n4)C([H])([H])C23[H])C([H])([H])C([H])(O[H])C1([H])[H]

$$$$
37:6:2
     RDKit          3D

 80 83  0  0  1  0  0  0  0  0999 V2000
    5.5093   -5.6202    1.2491 C   0  0  0  0  0  0  0  0  0  0  0  0
    4.8283   -4.5105    1.3406 C   0  0  0  0  0  0  0  0  0  0  0  0
    3.3343   -4.4019    1.4820 C   0  0  0  0  0  0  0  0  0  0  0  0
    2.4488   -5.4260    1.6041 C   0  0  0  0  0  0  0  0  0  0  0  0
    2.7260   -6.8619    1.5731 C   0  0  0  0  0  0  0  0  0  0  0  0
    2.3497   -7.7803    2.4885 C   0  0  0  0  0  0  0  0  0  0  0  0
    2.7339   -9.2637    2.4618 C   0  0  1  0  0  0  0  0  0  0  0  0
    4.2720   -9.5565    2.6092 C   0  0  2  0  0  0  0  0  0  0  0  0
    5.1179   -9.2085    1.3635 C   0  0  0  0  0  0  0  0  0  0  0  0
    4.5000  -10.9567    2.7962 O   0  0  0  0  0  0  0  0  0  0  0  0
    1.8766   -9.8831    3.5948 C   0  0  0  0  0  0  0  0  0  0  0  0
    0.6929   -8.9228    3.8044 C   0  0  1  0  0  0  0  0  0  0  0  0
   -0.3730   -9.1635    2.7050 C   0  0  0  0  0  0  0  0  0  0  0  0
    0.0015   -9.0816    5.1823 C   0  0  0  0  0  0  0  0  0  0  0  0
    0.7136   -8.4115    6.3770 C   0  0  0  0  0  0  0  0  0  0  0  0
    1.0902   -6.9789    6.0398 C   0  0  0  0  0  0  0  0  0  0  0  0
    0.6234   -5.9797    6.6763 N   0  0  0  0  0  0  0  0  0  0  0  0
    1.0138   -4.7274    6.1503 O   0  0  0  0  0  0  0  0  0  0  0  0
    0.9696   -3.7827    7.2185 C   0  0  0  0  0  0  0  0  0  0  0  0
    0.8777   -2.4075    6.6349 C   0  0  0  0  0  0  0  0  0  0  0  0
    1.8274   -1.7987    5.8781 N   0  0  0  0  0  0  0  0  0  0  0  0
    1.4049   -0.6090    5.6499 N   0  0  0  0  0  0  0  0  0  0  0  0
    0.1890   -0.5151    6.2188 N   0  0  0  0  0  0  0  0  0  0  0  0
   -0.7189    0.6202    6.0567 C   0  0  0  0  0  0  0  0  0  0  0  0
   -1.5467    0.5036    4.7539 C   0  0  0  0  0  0  0  0  0  0  0  0
   -0.7293    0.1848    3.4771 C   0  0  0  0  0  0  0  0  0  0  0  0
    0.4496    1.1348    3.2075 C   0  0  0  0  0  0  0  0  0  0  0  0
    0.6976    2.1089    3.9211 O   0  0  0  0  0  0  0  0  0  0  0  0
    1.1855    0.7612    2.1648 O   0  0  0  0  0  0  0  0  0  0  0  0
    2.3419    1.5372    1.8688 C   0  0  0  0  0  0  0  0  0  0  0  0
   -0.1784   -1.6326    6.8736 N   0  0  0  0  0  0  0  0  0  0  0  0
    2.0404   -6.9465    4.8634 C   0  0  0  0  0  0  0  0  0  0  0  0
    1.3548   -7.5258    3.6007 C   0  0  1  0  0  0  0  0  0  0  0  0
    2.7935   -2.9726    1.4476 C   0  0  0  0  0  0  0  0  0  0  0  0
    3.5012   -2.1628    0.3463 C   0  0  1  0  0  0  0  0  0  0  0  0
    3.0320   -0.8711    0.3425 O   0  0  0  0  0  0  0  0  0  0  0  0
    5.0434   -2.0850    0.5208 C   0  0  0  0  0  0  0  0  0  0  0  0
    5.6564   -3.2081    1.3730 C   0  0  1  0  0  0  0  0  0  0  0  0
    5.8014   -2.8028    2.7196 O   0  0  0  0  0  0  0  0  0  0  0  0
    6.5840   -5.7292    1.1711 H   0  0  0  0  0  0  0  0  0  0  0  0
    4.9068   -6.4703    1.3018 H   0  0  0  0  0  0  0  0  0  0  0  0
    1.3973   -5.1790    1.6814 H   0  0  0  0  0  0  0  0  0  0  0  0
    3.2694   -7.2350    0.7160 H   0  0  0  0  0  0  0  0  0  0  0  0
    2.4003   -9.6689    1.5044 H   0  0  0  0  0  0  0  0  0  0  0  0
    4.6617   -9.0187    3.4841 H   0  0  0  0  0  0  0  0  0  0  0  0
    4.9974   -8.1871    1.1618 H   0  0  0  0  0  0  0  0  0  0  0  0
    4.7563   -9.6839    0.4487 H   0  0  0  0  0  0  0  0  0  0  0  0
    6.1952   -9.3254    1.5162 H   0  0  0  0  0  0  0  0  0  0  0  0
    4.3397  -11.3669    1.9445 H   0  0  0  0  0  0  0  0  0  0  0  0
    1.5695  -10.8972    3.3491 H   0  0  0  0  0  0  0  0  0  0  0  0
    2.4669   -9.9404    4.5088 H   0  0  0  0  0  0  0  0  0  0  0  0
   -1.1919   -8.4497    2.7791 H   0  0  0  0  0  0  0  0  0  0  0  0
   -0.8081  -10.1578    2.7875 H   0  0  0  0  0  0  0  0  0  0  0  0
    0.0273   -9.0676    1.6977 H   0  0  0  0  0  0  0  0  0  0  0  0
   -0.9951   -8.6446    5.1227 H   0  0  0  0  0  0  0  0  0  0  0  0
   -0.1619  -10.1430    5.3855 H   0  0  0  0  0  0  0  0  0  0  0  0
    0.0572   -8.4480    7.2523 H   0  0  0  0  0  0  0  0  0  0  0  0
    1.6129   -8.9675    6.6518 H   0  0  0  0  0  0  0  0  0  0  0  0
    0.1052   -3.9457    7.8516 H   0  0  0  0  0  0  0  0  0  0  0  0
    1.8603   -3.8601    7.8367 H   0  0  0  0  0  0  0  0  0  0  0  0
   -1.3685    0.6958    6.9237 H   0  0  0  0  0  0  0  0  0  0  0  0
   -0.1436    1.5423    6.0818 H   0  0  0  0  0  0  0  0  0  0  0  0
   -2.2855   -0.2888    4.8906 H   0  0  0  0  0  0  0  0  0  0  0  0
   -2.1300    1.4115    4.5888 H   0  0  0  0  0  0  0  0  0  0  0  0
   -0.3480   -0.8351    3.5509 H   0  0  0  0  0  0  0  0  0  0  0  0
   -1.3807    0.2004    2.6058 H   0  0  0  0  0  0  0  0  0  0  0  0
    2.7782    1.2355    0.9321 H   0  0  0  0  0  0  0  0  0  0  0  0
    3.1073    1.4260    2.6468 H   0  0  0  0  0  0  0  0  0  0  0  0
    2.0975    2.5922    1.7249 H   0  0  0  0  0  0  0  0  0  0  0  0
    2.4018   -5.9422    4.6651 H   0  0  0  0  0  0  0  0  0  0  0  0
    2.9206   -7.5318    5.1274 H   0  0  0  0  0  0  0  0  0  0  0  0
    0.6036   -6.8071    3.2698 H   0  0  0  0  0  0  0  0  0  0  0  0
    1.7295   -2.9588    1.2572 H   0  0  0  0  0  0  0  0  0  0  0  0
    2.9339   -2.5248    2.4259 H   0  0  0  0  0  0  0  0  0  0  0  0
    3.2653   -2.5930   -0.6384 H   0  0  0  0  0  0  0  0  0  0  0  0
    2.1081   -0.8728   -0.0260 H   0  0  0  0  0  0  0  0  0  0  0  0
    5.5016   -2.1249   -0.4607 H   0  0  0  0  0  0  0  0  0  0  0  0
    5.3552   -1.1578    0.9726 H   0  0  0  0  0  0  0  0  0  0  0  0
    6.6423   -3.4730    0.9963 H   0  0  0  0  0  0  0  0  0  0  0  0
    4.9514   -2.5556    3.0431 H   0  0  0  0  0  0  0  0  0  0  0  0
  1  2  2  0
  1 40  1  0
  1 41  1  0
  2 38  1  0
  2  3  1  0
  3  4  2  3
  3 34  1  0
  4  5  1  0
  4 42  1  0
  5  6  2  3
  5 43  1  0
  6 33  1  0
  6  7  1  0
  7  8  1  0
  7 11  1  0
  7 44  1  6
  8  9  1  0
  8 10  1  0
  8 45  1  1
  9 46  1  0
  9 47  1  0
  9 48  1  0
 10 49  1  0
 11 12  1  0
 11 50  1  0
 11 51  1  0
 12 33  1  0
 12 13  1  6
 12 14  1  0
 13 52  1  0
 13 53  1  0
 13 54  1  0
 14 15  1  0
 14 55  1  0
 14 56  1  0
 15 16  1  0
 15 57  1  0
 15 58  1  0
 16 17  2  3
 16 32  1  0
 17 18  1  0
 18 19  1  0
 19 20  1  0
 19 59  1  0
 19 60  1  0
 20 31  2  0
 20 21  1  0
 21 22  2  0
 22 23  1  0
 23 24  1  0
 23 31  1  0
 24 25  1  0
 24 61  1  0
 24 62  1  0
 25 26  1  0
 25 63  1  0
 25 64  1  0
 26 27  1  0
 26 65  1  0
 26 66  1  0
 27 28  2  0
 27 29  1  0
 29 30  1  0
 30 67  1  0
 30 68  1  0
 30 69  1  0
 32 33  1  0
 32 70  1  0
 32 71  1  0
 33 72  1  6
 34 35  1  0
 34 73  1  0
 34 74  1  0
 35 36  1  0
 35 37  1  0
 35 75  1  6
 36 76  1  0
 37 38  1  0
 37 77  1  0
 37 78  1  0
 38 39  1  0
 38 79  1  6
 39 80  1  0
M  END
>  <i_m_ct_stereo_status>  (153) 
1

>  <s_m_source_file>  (153) 
/var/tmp/pbs.5076255.sched01/tmp9vbryffn/46pprzbbw9.sdf

>  <i_m_source_file_index>  (153) 
22

>  <i_lp_mmshare_version>  (153) 
48012

>  <i_f3d_flags>  (153) 
0

>  <s_epik_input>  (153) 
W09IXVtDQEBIXTFbQ0gyXVtDQEhdKFtPSF0pW0NIMl1DKFxDMT1bQ0gyXSk9W0NIXVxbQ0hdPUMoL1tDQEhdKFtDSDJdMilbQ0BIXShbQ0gzXSlbT0hdKVtDQEBIXShbQ0BAXTIzW0NIM10pW0NIMl1DKFxbQ0gyXVtDSDJdMyk9TlxPW0NIMl1jNG5ubihuNClbQ0gyXVtDSDJdW0NIMl1DKD1PKU9bQ0gzXQ==

>  <s_epik_cmdline>  (153) 
J2VwaWtfcHl0aG9uJywgJy1waHQnLCAnMi4wJywgJy1waCcsICc3LjAnLCAnLXRuJywgJzgnLCAnLW1hJywgJzIwMCcsICctaW1hZScsICc8aW5maWxlLm1hZT4nLCAnLW9tYWUnLCAnPG91dGZpbGUubWFlPic=

>  <r_lp_tautomer_probability>  (153) 
1

>  <r_epik_Ionization_Penalty>  (153) 
5.38978e-07

>  <r_epik_Ionization_Penalty_Charging>  (153) 
0

>  <r_epik_Ionization_Penalty_Neutral>  (153) 
5.38978e-07

>  <r_epik_State_Penalty>  (153) 
-0

>  <r_epik_Charging_Adjusted_Penalty>  (153) 
0

>  <i_epik_Tot_Q>  (153) 
0

>  <i_epik_Tot_abs_Q>  (153) 
0

>  <s_epik_Chemistry_Notes>  (153) 
This compound has an ester and may undergo hydrolysis at high or low pH. This compound has an imine and may undergo hydrolysis.

>  <s_lp_Force_Field>  (153) 
OPLS3e

>  <r_lp_Energy>  (153) 
33.0074

>  <b_lp_Chiralities_Consistent>  (153) 
1

>  <s_lp_Variant>  (153) 
37:0-7

>  <s_i_glide_gridfile>  (153) 
pfpi4k_grid

>  <i_i_glide_lignum>  (153) 
22

>  <i_i_glide_rotatable_bonds>  (153) 
13

>  <r_i_docking_score>  (153) 
-1.76927

>  <r_i_glide_ligand_efficiency>  (153) 
-0.0453658

>  <r_i_glide_ligand_efficiency_sa>  (153) 
-0.153845

>  <r_i_glide_ligand_efficiency_ln>  (153) 
-0.379381

>  <r_i_glide_gscore>  (153) 
-1.76927

>  <r_i_glide_lipo>  (153) 
-0.2183

>  <r_i_glide_hbond>  (153) 
-0.152

>  <r_i_glide_metal>  (153) 
-0

>  <r_i_glide_rewards>  (153) 
0

>  <r_i_glide_evdw>  (153) 
-24.5139

>  <r_i_glide_ecoul>  (153) 
-8.94917

>  <r_i_glide_erotb>  (153) 
0.630133

>  <r_i_glide_esite>  (153) 
-0.0658365

>  <r_i_glide_emodel>  (153) 
-28.5258

>  <r_i_glide_energy>  (153) 
-33.4631

>  <r_i_glide_einternal>  (153) 
8.53156

>  <r_i_glide_intrahb_reward>  (153) 
-0

>  <i_i_glide_confnum>  (153) 
10

>  <i_i_glide_posenum>  (153) 
33

>  <r_i_glide_eff_state_penalty>  (153) 
0

>  <ligand_id>  (153) 
37

>  <original_smiles>  (153) 
C=C1C(=CC=C2C(C(C)O)CC3(C)CCC(=NOCc4nnn(CCCC(=O)OC)n4)CC23)CC(O)CC1O

>  <smiles>  (153) 
[H]OC1([H])C(=C([H])[H])C(=C([H])C([H])=C2C([H])(C([H])(O[H])C([H])([H])[H])C([H])([H])C3(C([H])([H])[H])C([H])([H])C([H])([H])C(=NOC([H])([H])c4nnn(C([H])([H])C([H])([H])C([H])([H])C(=O)OC([H])([H])[H])n4)C([H])([H])C23[H])C([H])([H])C([H])(O[H])C1([H])[H]

$$$$
37:7:0
     RDKit          3D

 80 83  0  0  1  0  0  0  0  0999 V2000
    6.2105   -3.0555    1.6319 C   0  0  0  0  0  0  0  0  0  0  0  0
    5.5861   -2.6099    0.5229 C   0  0  0  0  0  0  0  0  0  0  0  0
    4.4354   -1.6908    0.5799 C   0  0  0  0  0  0  0  0  0  0  0  0
    4.1908   -0.9443    1.6918 C   0  0  0  0  0  0  0  0  0  0  0  0
    3.0553   -0.0521    1.9096 C   0  0  0  0  0  0  0  0  0  0  0  0
    2.6833    0.4300    3.1139 C   0  0  0  0  0  0  0  0  0  0  0  0
    1.5468    1.4159    3.3421 C   0  0  1  0  0  0  0  0  0  0  0  0
    0.1729    0.9497    2.8064 C   0  0  2  0  0  0  0  0  0  0  0  0
   -0.9421    1.9921    2.9782 C   0  0  0  0  0  0  0  0  0  0  0  0
   -0.2073   -0.2385    3.4683 O   0  0  0  0  0  0  0  0  0  0  0  0
    1.5851    1.7177    4.8562 C   0  0  0  0  0  0  0  0  0  0  0  0
    3.0190    1.3853    5.3150 C   0  0  1  0  0  0  0  0  0  0  0  0
    3.9498    2.5651    4.9689 C   0  0  0  0  0  0  0  0  0  0  0  0
    3.1515    1.1300    6.8431 C   0  0  0  0  0  0  0  0  0  0  0  0
    2.7211   -0.2640    7.3278 C   0  0  0  0  0  0  0  0  0  0  0  0
    3.3411   -1.3416    6.4649 C   0  0  0  0  0  0  0  0  0  0  0  0
    4.1324   -2.2251    6.9270 N   0  0  0  0  0  0  0  0  0  0  0  0
    4.5525   -3.1140    5.9287 O   0  0  0  0  0  0  0  0  0  0  0  0
    4.8237   -4.3766    6.5182 C   0  0  0  0  0  0  0  0  0  0  0  0
    4.6408   -5.4109    5.4555 C   0  0  0  0  0  0  0  0  0  0  0  0
    4.4826   -6.7321    5.7495 N   0  0  0  0  0  0  0  0  0  0  0  0
    4.3383   -7.3343    4.6162 N   0  0  0  0  0  0  0  0  0  0  0  0
    4.3793   -6.3628    3.6746 N   0  0  0  0  0  0  0  0  0  0  0  0
    4.1261   -6.6223    2.2642 C   0  0  0  0  0  0  0  0  0  0  0  0
    2.6266   -6.5589    1.9211 C   0  0  0  0  0  0  0  0  0  0  0  0
    1.7792   -7.6231    2.6487 C   0  0  0  0  0  0  0  0  0  0  0  0
    0.2989   -7.6022    2.2710 C   0  0  0  0  0  0  0  0  0  0  0  0
   -0.2145   -6.6577    1.6693 O   0  0  0  0  0  0  0  0  0  0  0  0
   -0.3357   -8.7056    2.6957 O   0  0  0  0  0  0  0  0  0  0  0  0
   -1.6976   -8.9046    2.3681 C   0  0  0  0  0  0  0  0  0  0  0  0
    4.5707   -5.1249    4.1620 N   0  0  0  0  0  0  0  0  0  0  0  0
    2.8876   -1.1873    5.0210 C   0  0  0  0  0  0  0  0  0  0  0  0
    3.3771    0.1578    4.4387 C   0  0  1  0  0  0  0  0  0  0  0  0
    3.4669   -1.6616   -0.6047 C   0  0  0  0  0  0  0  0  0  0  0  0
    4.1251   -1.9592   -1.9588 C   0  0  1  0  0  0  0  0  0  0  0  0
    4.9130   -0.8513   -2.3542 O   0  0  0  0  0  0  0  0  0  0  0  0
    4.9760   -3.2390   -1.8877 C   0  0  0  0  0  0  0  0  0  0  0  0
    6.0926   -3.1399   -0.8238 C   0  0  1  0  0  0  0  0  0  0  0  0
    7.1842   -2.3622   -1.2937 O   0  0  0  0  0  0  0  0  0  0  0  0
    7.0533   -3.7316    1.5332 H   0  0  0  0  0  0  0  0  0  0  0  0
    5.9234   -2.7781    2.6394 H   0  0  0  0  0  0  0  0  0  0  0  0
    4.8951   -0.9910    2.5023 H   0  0  0  0  0  0  0  0  0  0  0  0
    2.4851    0.2978    1.0628 H   0  0  0  0  0  0  0  0  0  0  0  0
    1.8228    2.3205    2.8019 H   0  0  0  0  0  0  0  0  0  0  0  0
    0.2469    0.7283    1.7394 H   0  0  0  0  0  0  0  0  0  0  0  0
   -0.6807    2.9272    2.4808 H   0  0  0  0  0  0  0  0  0  0  0  0
   -1.1325    2.2111    4.0293 H   0  0  0  0  0  0  0  0  0  0  0  0
   -1.8796    1.6454    2.5383 H   0  0  0  0  0  0  0  0  0  0  0  0
    0.3978   -0.9190    3.2145 H   0  0  0  0  0  0  0  0  0  0  0  0
    1.2976    2.7459    5.0707 H   0  0  0  0  0  0  0  0  0  0  0  0
    0.8744    1.0814    5.3836 H   0  0  0  0  0  0  0  0  0  0  0  0
    4.9813    2.3194    5.2257 H   0  0  0  0  0  0  0  0  0  0  0  0
    3.6803    3.4667    5.5213 H   0  0  0  0  0  0  0  0  0  0  0  0
    3.9142    2.8097    3.9075 H   0  0  0  0  0  0  0  0  0  0  0  0
    4.1926    1.2657    7.1387 H   0  0  0  0  0  0  0  0  0  0  0  0
    2.5940    1.8910    7.3890 H   0  0  0  0  0  0  0  0  0  0  0  0
    3.0081   -0.4036    8.3698 H   0  0  0  0  0  0  0  0  0  0  0  0
    1.6354   -0.3595    7.2966 H   0  0  0  0  0  0  0  0  0  0  0  0
    5.8356   -4.4354    6.9116 H   0  0  0  0  0  0  0  0  0  0  0  0
    4.1334   -4.6004    7.3290 H   0  0  0  0  0  0  0  0  0  0  0  0
    4.6689   -5.8809    1.6767 H   0  0  0  0  0  0  0  0  0  0  0  0
    4.5418   -7.5951    2.0011 H   0  0  0  0  0  0  0  0  0  0  0  0
    2.2647   -5.5630    2.1734 H   0  0  0  0  0  0  0  0  0  0  0  0
    2.5054   -6.6655    0.8416 H   0  0  0  0  0  0  0  0  0  0  0  0
    2.1787   -8.6167    2.4457 H   0  0  0  0  0  0  0  0  0  0  0  0
    1.8423   -7.4802    3.7261 H   0  0  0  0  0  0  0  0  0  0  0  0
   -2.0475   -9.8424    2.7984 H   0  0  0  0  0  0  0  0  0  0  0  0
   -1.8159   -8.9628    1.2861 H   0  0  0  0  0  0  0  0  0  0  0  0
   -2.3225   -8.0971    2.7521 H   0  0  0  0  0  0  0  0  0  0  0  0
    3.2199   -2.0166    4.3968 H   0  0  0  0  0  0  0  0  0  0  0  0
    1.7974   -1.2375    5.0156 H   0  0  0  0  0  0  0  0  0  0  0  0
    4.4559    0.1073    4.3077 H   0  0  0  0  0  0  0  0  0  0  0  0
    2.6607   -2.3744   -0.4116 H   0  0  0  0  0  0  0  0  0  0  0  0
    3.0146   -0.6810   -0.7141 H   0  0  0  0  0  0  0  0  0  0  0  0
    3.3407   -2.0832   -2.7087 H   0  0  0  0  0  0  0  0  0  0  0  0
    4.3879   -0.0673   -2.2837 H   0  0  0  0  0  0  0  0  0  0  0  0
    4.3110   -4.0657   -1.6229 H   0  0  0  0  0  0  0  0  0  0  0  0
    5.3795   -3.5007   -2.8691 H   0  0  0  0  0  0  0  0  0  0  0  0
    6.4862   -4.1483   -0.6806 H   0  0  0  0  0  0  0  0  0  0  0  0
    7.5615   -2.7957   -2.0486 H   0  0  0  0  0  0  0  0  0  0  0  0
  1  2  2  0
  1 40  1  0
  1 41  1  0
  2 38  1  0
  2  3  1  0
  3  4  2  3
  3 34  1  0
  4  5  1  0
  4 42  1  0
  5  6  2  3
  5 43  1  0
  6 33  1  0
  6  7  1  0
  7  8  1  0
  7 11  1  0
  7 44  1  6
  8  9  1  0
  8 10  1  0
  8 45  1  6
  9 46  1  0
  9 47  1  0
  9 48  1  0
 10 49  1  0
 11 12  1  0
 11 50  1  0
 11 51  1  0
 12 33  1  0
 12 13  1  6
 12 14  1  0
 13 52  1  0
 13 53  1  0
 13 54  1  0
 14 15  1  0
 14 55  1  0
 14 56  1  0
 15 16  1  0
 15 57  1  0
 15 58  1  0
 16 17  2  3
 16 32  1  0
 17 18  1  0
 18 19  1  0
 19 20  1  0
 19 59  1  0
 19 60  1  0
 20 31  2  0
 20 21  1  0
 21 22  2  0
 22 23  1  0
 23 24  1  0
 23 31  1  0
 24 25  1  0
 24 61  1  0
 24 62  1  0
 25 26  1  0
 25 63  1  0
 25 64  1  0
 26 27  1  0
 26 65  1  0
 26 66  1  0
 27 28  2  0
 27 29  1  0
 29 30  1  0
 30 67  1  0
 30 68  1  0
 30 69  1  0
 32 33  1  0
 32 70  1  0
 32 71  1  0
 33 72  1  6
 34 35  1  0
 34 73  1  0
 34 74  1  0
 35 36  1  0
 35 37  1  0
 35 75  1  6
 36 76  1  0
 37 38  1  0
 37 77  1  0
 37 78  1  0
 38 39  1  0
 38 79  1  1
 39 80  1  0
M  END
>  <i_m_ct_stereo_status>  (154) 
1

>  <s_m_source_file>  (154) 
/var/tmp/pbs.5076255.sched01/tmp9vbryffn/46pprzbbw9.sdf

>  <i_m_source_file_index>  (154) 
23

>  <i_lp_mmshare_version>  (154) 
48012

>  <i_f3d_flags>  (154) 
0

>  <s_epik_input>  (154) 
W09IXVtDQEBIXTFbQ0gyXVtDQEhdKFtPSF0pW0NIMl1DKFxDMT1bQ0gyXSk9W0NIXVxbQ0hdPUMoL1tDQEhdKFtDSDJdMilbQ0BIXShbQ0gzXSlbT0hdKVtDQEBIXShbQ0BAXTIzW0NIM10pW0NIMl1DKFxbQ0gyXVtDSDJdMyk9TlxPW0NIMl1jNG5ubihuNClbQ0gyXVtDSDJdW0NIMl1DKD1PKU9bQ0gzXQ==

>  <s_epik_cmdline>  (154) 
J2VwaWtfcHl0aG9uJywgJy1waHQnLCAnMi4wJywgJy1waCcsICc3LjAnLCAnLXRuJywgJzgnLCAnLW1hJywgJzIwMCcsICctaW1hZScsICc8aW5maWxlLm1hZT4nLCAnLW9tYWUnLCAnPG91dGZpbGUubWFlPic=

>  <r_lp_tautomer_probability>  (154) 
1

>  <r_epik_Ionization_Penalty>  (154) 
5.38978e-07

>  <r_epik_Ionization_Penalty_Charging>  (154) 
0

>  <r_epik_Ionization_Penalty_Neutral>  (154) 
5.38978e-07

>  <r_epik_State_Penalty>  (154) 
-0

>  <r_epik_Charging_Adjusted_Penalty>  (154) 
0

>  <i_epik_Tot_Q>  (154) 
0

>  <i_epik_Tot_abs_Q>  (154) 
0

>  <s_epik_Chemistry_Notes>  (154) 
This compound has an ester and may undergo hydrolysis at high or low pH. This compound has an imine and may undergo hydrolysis.

>  <s_lp_Force_Field>  (154) 
OPLS3e

>  <r_lp_Energy>  (154) 
33.3459

>  <b_lp_Chiralities_Consistent>  (154) 
1

>  <s_lp_Variant>  (154) 
37:0-8

>  <s_i_glide_gridfile>  (154) 
pfpi4k_grid

>  <i_i_glide_lignum>  (154) 
23

>  <i_i_glide_rotatable_bonds>  (154) 
13

>  <r_i_docking_score>  (154) 
-3.01009

>  <r_i_glide_ligand_efficiency>  (154) 
-0.0771818

>  <r_i_glide_ligand_efficiency_sa>  (154) 
-0.26174

>  <r_i_glide_ligand_efficiency_ln>  (154) 
-0.645449

>  <r_i_glide_gscore>  (154) 
-3.01009

>  <r_i_glide_lipo>  (154) 
-0.570475

>  <r_i_glide_hbond>  (154) 
-0.230933

>  <r_i_glide_metal>  (154) 
-0

>  <r_i_glide_rewards>  (154) 
0

>  <r_i_glide_evdw>  (154) 
-29.6034

>  <r_i_glide_ecoul>  (154) 
-8.68795

>  <r_i_glide_erotb>  (154) 
0.630133

>  <r_i_glide_esite>  (154) 
-0.0554526

>  <r_i_glide_emodel>  (154) 
-42.1153

>  <r_i_glide_energy>  (154) 
-38.2914

>  <r_i_glide_einternal>  (154) 
7.74067

>  <r_i_glide_intrahb_reward>  (154) 
-0

>  <i_i_glide_confnum>  (154) 
6

>  <i_i_glide_posenum>  (154) 
17

>  <r_i_glide_eff_state_penalty>  (154) 
0

>  <ligand_id>  (154) 
37

>  <original_smiles>  (154) 
C=C1C(=CC=C2C(C(C)O)CC3(C)CCC(=NOCc4nnn(CCCC(=O)OC)n4)CC23)CC(O)CC1O

>  <smiles>  (154) 
[H]OC1([H])C(=C([H])[H])C(=C([H])C([H])=C2C([H])(C([H])(O[H])C([H])([H])[H])C([H])([H])C3(C([H])([H])[H])C([H])([H])C([H])([H])C(=NOC([H])([H])c4nnn(C([H])([H])C([H])([H])C([H])([H])C(=O)OC([H])([H])[H])n4)C([H])([H])C23[H])C([H])([H])C([H])(O[H])C1([H])[H]

$$$$
37:7:1
     RDKit          3D

 80 83  0  0  1  0  0  0  0  0999 V2000
    4.7004   -5.7003    4.1373 C   0  0  0  0  0  0  0  0  0  0  0  0
    5.2520   -5.2071    3.0150 C   0  0  0  0  0  0  0  0  0  0  0  0
    4.9257   -3.8683    2.4849 C   0  0  0  0  0  0  0  0  0  0  0  0
    4.3541   -2.9302    3.2828 C   0  0  0  0  0  0  0  0  0  0  0  0
    3.9031   -1.5977    2.8793 C   0  0  0  0  0  0  0  0  0  0  0  0
    3.2575   -0.7432    3.6883 C   0  0  0  0  0  0  0  0  0  0  0  0
    2.8137    0.6635    3.2997 C   0  0  1  0  0  0  0  0  0  0  0  0
    1.8934    0.7430    2.0534 C   0  0  2  0  0  0  0  0  0  0  0  0
    1.2024    2.1040    1.8874 C   0  0  0  0  0  0  0  0  0  0  0  0
    0.8865   -0.2455    2.0616 O   0  0  0  0  0  0  0  0  0  0  0  0
    2.2337    1.2687    4.5917 C   0  0  0  0  0  0  0  0  0  0  0  0
    2.8511    0.4639    5.7497 C   0  0  1  0  0  0  0  0  0  0  0  0
    4.2769    0.9877    6.0410 C   0  0  0  0  0  0  0  0  0  0  0  0
    2.0369    0.5569    7.0698 C   0  0  0  0  0  0  0  0  0  0  0  0
    0.7887   -0.3393    7.1492 C   0  0  0  0  0  0  0  0  0  0  0  0
    1.1213   -1.7566    6.7242 C   0  0  0  0  0  0  0  0  0  0  0  0
    1.0199   -2.7509    7.5173 N   0  0  0  0  0  0  0  0  0  0  0  0
    1.3569   -3.9779    6.9103 O   0  0  0  0  0  0  0  0  0  0  0  0
    1.3748   -4.9875    7.9214 C   0  0  0  0  0  0  0  0  0  0  0  0
    1.4531   -6.3139    7.2563 C   0  0  0  0  0  0  0  0  0  0  0  0
    0.6335   -7.3606    7.5781 N   0  0  0  0  0  0  0  0  0  0  0  0
    1.0027   -8.3496    6.8477 N   0  0  0  0  0  0  0  0  0  0  0  0
    2.0177   -7.8842    6.0718 N   0  0  0  0  0  0  0  0  0  0  0  0
    2.6150   -8.6503    4.9845 C   0  0  0  0  0  0  0  0  0  0  0  0
    2.0126   -8.2588    3.6207 C   0  0  0  0  0  0  0  0  0  0  0  0
    0.4917   -8.4884    3.5734 C   0  0  0  0  0  0  0  0  0  0  0  0
   -0.2587   -7.6827    2.4991 C   0  0  0  0  0  0  0  0  0  0  0  0
    0.1471   -6.5810    2.1160 O   0  0  0  0  0  0  0  0  0  0  0  0
   -1.4252   -8.2021    2.0745 O   0  0  0  0  0  0  0  0  0  0  0  0
   -1.8815   -9.4603    2.5152 C   0  0  0  0  0  0  0  0  0  0  0  0
    2.3366   -6.5960    6.3051 N   0  0  0  0  0  0  0  0  0  0  0  0
    1.6093   -1.7712    5.2860 C   0  0  0  0  0  0  0  0  0  0  0  0
    2.9275   -0.9676    5.1595 C   0  0  1  0  0  0  0  0  0  0  0  0
    5.1832   -3.5898    0.9974 C   0  0  0  0  0  0  0  0  0  0  0  0
    6.3756   -4.3650    0.4176 C   0  0  1  0  0  0  0  0  0  0  0  0
    7.6076   -3.8260    0.8755 O   0  0  0  0  0  0  0  0  0  0  0  0
    6.2871   -5.8600    0.7664 C   0  0  0  0  0  0  0  0  0  0  0  0
    6.2555   -6.1055    2.2851 C   0  0  1  0  0  0  0  0  0  0  0  0
    7.5431   -5.8921    2.8078 O   0  0  0  0  0  0  0  0  0  0  0  0
    5.0105   -6.6732    4.4927 H   0  0  0  0  0  0  0  0  0  0  0  0
    3.9666   -5.1741    4.7311 H   0  0  0  0  0  0  0  0  0  0  0  0
    4.1904   -3.1706    4.3172 H   0  0  0  0  0  0  0  0  0  0  0  0
    4.0831   -1.2549    1.8746 H   0  0  0  0  0  0  0  0  0  0  0  0
    3.7256    1.2104    3.0633 H   0  0  0  0  0  0  0  0  0  0  0  0
    2.4964    0.5474    1.1637 H   0  0  0  0  0  0  0  0  0  0  0  0
    1.9241    2.9188    1.8191 H   0  0  0  0  0  0  0  0  0  0  0  0
    0.5277    2.3279    2.7144 H   0  0  0  0  0  0  0  0  0  0  0  0
    0.5857    2.1200    0.9889 H   0  0  0  0  0  0  0  0  0  0  0  0
    0.6344   -0.3948    1.1606 H   0  0  0  0  0  0  0  0  0  0  0  0
    2.4395    2.3357    4.6583 H   0  0  0  0  0  0  0  0  0  0  0  0
    1.1514    1.1467    4.5919 H   0  0  0  0  0  0  0  0  0  0  0  0
    4.7569    0.3850    6.8128 H   0  0  0  0  0  0  0  0  0  0  0  0
    4.2559    2.0202    6.3962 H   0  0  0  0  0  0  0  0  0  0  0  0
    4.9213    0.9540    5.1620 H   0  0  0  0  0  0  0  0  0  0  0  0
    2.6837    0.2886    7.9072 H   0  0  0  0  0  0  0  0  0  0  0  0
    1.7501    1.5934    7.2486 H   0  0  0  0  0  0  0  0  0  0  0  0
    0.3932   -0.3309    8.1648 H   0  0  0  0  0  0  0  0  0  0  0  0
   -0.0026    0.0555    6.5123 H   0  0  0  0  0  0  0  0  0  0  0  0
    2.2279   -4.8780    8.5901 H   0  0  0  0  0  0  0  0  0  0  0  0
    0.4659   -4.9530    8.5229 H   0  0  0  0  0  0  0  0  0  0  0  0
    3.6878   -8.4728    4.9735 H   0  0  0  0  0  0  0  0  0  0  0  0
    2.4761   -9.7182    5.1802 H   0  0  0  0  0  0  0  0  0  0  0  0
    2.2900   -7.2280    3.4013 H   0  0  0  0  0  0  0  0  0  0  0  0
    2.4641   -8.8736    2.8357 H   0  0  0  0  0  0  0  0  0  0  0  0
    0.3726   -9.5711    3.4912 H   0  0  0  0  0  0  0  0  0  0  0  0
    0.0217   -8.1994    4.5137 H   0  0  0  0  0  0  0  0  0  0  0  0
   -2.8393   -9.7033    2.0662 H   0  0  0  0  0  0  0  0  0  0  0  0
   -2.0089   -9.4547    3.5985 H   0  0  0  0  0  0  0  0  0  0  0  0
   -1.1656  -10.2434    2.2275 H   0  0  0  0  0  0  0  0  0  0  0  0
    1.7408   -2.7874    4.9169 H   0  0  0  0  0  0  0  0  0  0  0  0
    0.8295   -1.3273    4.6633 H   0  0  0  0  0  0  0  0  0  0  0  0
    3.7267   -1.5206    5.6499 H   0  0  0  0  0  0  0  0  0  0  0  0
    4.2757   -3.8438    0.4489 H   0  0  0  0  0  0  0  0  0  0  0  0
    5.3852   -2.5402    0.8163 H   0  0  0  0  0  0  0  0  0  0  0  0
    6.3717   -4.2479   -0.6669 H   0  0  0  0  0  0  0  0  0  0  0  0
    7.5937   -2.8925    0.7503 H   0  0  0  0  0  0  0  0  0  0  0  0
    5.3721   -6.2599    0.3233 H   0  0  0  0  0  0  0  0  0  0  0  0
    7.1168   -6.4029    0.3096 H   0  0  0  0  0  0  0  0  0  0  0  0
    6.0079   -7.1540    2.4551 H   0  0  0  0  0  0  0  0  0  0  0  0
    7.8534   -5.0737    2.4433 H   0  0  0  0  0  0  0  0  0  0  0  0
  1  2  2  0
  1 40  1  0
  1 41  1  0
  2 38  1  0
  2  3  1  0
  3  4  2  3
  3 34  1  0
  4  5  1  0
  4 42  1  0
  5  6  2  3
  5 43  1  0
  6 33  1  0
  6  7  1  0
  7  8  1  0
  7 11  1  0
  7 44  1  6
  8  9  1  0
  8 10  1  0
  8 45  1  6
  9 46  1  0
  9 47  1  0
  9 48  1  0
 10 49  1  0
 11 12  1  0
 11 50  1  0
 11 51  1  0
 12 33  1  0
 12 13  1  1
 12 14  1  0
 13 52  1  0
 13 53  1  0
 13 54  1  0
 14 15  1  0
 14 55  1  0
 14 56  1  0
 15 16  1  0
 15 57  1  0
 15 58  1  0
 16 17  2  3
 16 32  1  0
 17 18  1  0
 18 19  1  0
 19 20  1  0
 19 59  1  0
 19 60  1  0
 20 31  2  0
 20 21  1  0
 21 22  2  0
 22 23  1  0
 23 24  1  0
 23 31  1  0
 24 25  1  0
 24 61  1  0
 24 62  1  0
 25 26  1  0
 25 63  1  0
 25 64  1  0
 26 27  1  0
 26 65  1  0
 26 66  1  0
 27 28  2  0
 27 29  1  0
 29 30  1  0
 30 67  1  0
 30 68  1  0
 30 69  1  0
 32 33  1  0
 32 70  1  0
 32 71  1  0
 33 72  1  1
 34 35  1  0
 34 73  1  0
 34 74  1  0
 35 36  1  0
 35 37  1  0
 35 75  1  6
 36 76  1  0
 37 38  1  0
 37 77  1  0
 37 78  1  0
 38 39  1  0
 38 79  1  6
 39 80  1  0
M  END
>  <i_m_ct_stereo_status>  (155) 
1

>  <s_m_source_file>  (155) 
/var/tmp/pbs.5076255.sched01/tmp9vbryffn/46pprzbbw9.sdf

>  <i_m_source_file_index>  (155) 
23

>  <i_lp_mmshare_version>  (155) 
48012

>  <i_f3d_flags>  (155) 
0

>  <s_epik_input>  (155) 
W09IXVtDQEBIXTFbQ0gyXVtDQEhdKFtPSF0pW0NIMl1DKFxDMT1bQ0gyXSk9W0NIXVxbQ0hdPUMoL1tDQEhdKFtDSDJdMilbQ0BIXShbQ0gzXSlbT0hdKVtDQEBIXShbQ0BAXTIzW0NIM10pW0NIMl1DKFxbQ0gyXVtDSDJdMyk9TlxPW0NIMl1jNG5ubihuNClbQ0gyXVtDSDJdW0NIMl1DKD1PKU9bQ0gzXQ==

>  <s_epik_cmdline>  (155) 
J2VwaWtfcHl0aG9uJywgJy1waHQnLCAnMi4wJywgJy1waCcsICc3LjAnLCAnLXRuJywgJzgnLCAnLW1hJywgJzIwMCcsICctaW1hZScsICc8aW5maWxlLm1hZT4nLCAnLW9tYWUnLCAnPG91dGZpbGUubWFlPic=

>  <r_lp_tautomer_probability>  (155) 
1

>  <r_epik_Ionization_Penalty>  (155) 
5.38978e-07

>  <r_epik_Ionization_Penalty_Charging>  (155) 
0

>  <r_epik_Ionization_Penalty_Neutral>  (155) 
5.38978e-07

>  <r_epik_State_Penalty>  (155) 
-0

>  <r_epik_Charging_Adjusted_Penalty>  (155) 
0

>  <i_epik_Tot_Q>  (155) 
0

>  <i_epik_Tot_abs_Q>  (155) 
0

>  <s_epik_Chemistry_Notes>  (155) 
This compound has an ester and may undergo hydrolysis at high or low pH. This compound has an imine and may undergo hydrolysis.

>  <s_lp_Force_Field>  (155) 
OPLS3e

>  <r_lp_Energy>  (155) 
33.3459

>  <b_lp_Chiralities_Consistent>  (155) 
1

>  <s_lp_Variant>  (155) 
37:0-8

>  <s_i_glide_gridfile>  (155) 
pfpi4k_grid

>  <i_i_glide_lignum>  (155) 
23

>  <i_i_glide_rotatable_bonds>  (155) 
13

>  <r_i_docking_score>  (155) 
-2.78803

>  <r_i_glide_ligand_efficiency>  (155) 
-0.071488

>  <r_i_glide_ligand_efficiency_sa>  (155) 
-0.242431

>  <r_i_glide_ligand_efficiency_ln>  (155) 
-0.597833

>  <r_i_glide_gscore>  (155) 
-2.78803

>  <r_i_glide_lipo>  (155) 
-0.532401

>  <r_i_glide_hbond>  (155) 
-0.292087

>  <r_i_glide_metal>  (155) 
-0

>  <r_i_glide_rewards>  (155) 
-0.5

>  <r_i_glide_evdw>  (155) 
-27.017

>  <r_i_glide_ecoul>  (155) 
-4.12898

>  <r_i_glide_erotb>  (155) 
0.630133

>  <r_i_glide_esite>  (155) 
-0.123478

>  <r_i_glide_emodel>  (155) 
-37.1735

>  <r_i_glide_energy>  (155) 
-31.146

>  <r_i_glide_einternal>  (155) 
11.2706

>  <r_i_glide_intrahb_reward>  (155) 
-0.5

>  <i_i_glide_confnum>  (155) 
6

>  <i_i_glide_posenum>  (155) 
30

>  <r_i_glide_eff_state_penalty>  (155) 
0

>  <ligand_id>  (155) 
37

>  <original_smiles>  (155) 
C=C1C(=CC=C2C(C(C)O)CC3(C)CCC(=NOCc4nnn(CCCC(=O)OC)n4)CC23)CC(O)CC1O

>  <smiles>  (155) 
[H]OC1([H])C(=C([H])[H])C(=C([H])C([H])=C2C([H])(C([H])(O[H])C([H])([H])[H])C([H])([H])C3(C([H])([H])[H])C([H])([H])C([H])([H])C(=NOC([H])([H])c4nnn(C([H])([H])C([H])([H])C([H])([H])C(=O)OC([H])([H])[H])n4)C([H])([H])C23[H])C([H])([H])C([H])(O[H])C1([H])[H]

$$$$
37:7:2
     RDKit          3D

 80 83  0  0  1  0  0  0  0  0999 V2000
    3.2069   -4.7958    0.7620 C   0  0  0  0  0  0  0  0  0  0  0  0
    3.8157   -3.7601    0.1502 C   0  0  0  0  0  0  0  0  0  0  0  0
    3.4552   -2.3538    0.4112 C   0  0  0  0  0  0  0  0  0  0  0  0
    2.8104   -2.0014    1.5568 C   0  0  0  0  0  0  0  0  0  0  0  0
    2.3159   -0.6709    1.8923 C   0  0  0  0  0  0  0  0  0  0  0  0
    1.9252   -0.3046    3.1280 C   0  0  0  0  0  0  0  0  0  0  0  0
    1.4372    1.0828    3.5248 C   0  0  1  0  0  0  0  0  0  0  0  0
    0.1875    1.5931    2.7615 C   0  0  2  0  0  0  0  0  0  0  0  0
   -0.3601    2.9234    3.2974 C   0  0  0  0  0  0  0  0  0  0  0  0
   -0.8654    0.6587    2.8602 O   0  0  0  0  0  0  0  0  0  0  0  0
    1.2959    1.0285    5.0598 C   0  0  0  0  0  0  0  0  0  0  0  0
    2.2057   -0.1260    5.5283 C   0  0  1  0  0  0  0  0  0  0  0  0
    3.6699    0.3661    5.5977 C   0  0  0  0  0  0  0  0  0  0  0  0
    1.8362   -0.6836    6.9315 C   0  0  0  0  0  0  0  0  0  0  0  0
    0.6406   -1.6513    6.9722 C   0  0  0  0  0  0  0  0  0  0  0  0
    0.7683   -2.7135    5.8984 C   0  0  0  0  0  0  0  0  0  0  0  0
    0.8427   -3.9571    6.1632 N   0  0  0  0  0  0  0  0  0  0  0  0
    0.9941   -4.7574    5.0131 O   0  0  0  0  0  0  0  0  0  0  0  0
    0.7795   -6.1116    5.4001 C   0  0  0  0  0  0  0  0  0  0  0  0
    0.8331   -6.9714    4.1786 C   0  0  0  0  0  0  0  0  0  0  0  0
    0.3028   -6.6293    2.9643 N   0  0  0  0  0  0  0  0  0  0  0  0
    0.5568   -7.6208    2.1757 N   0  0  0  0  0  0  0  0  0  0  0  0
    1.2170   -8.5340    2.9360 N   0  0  0  0  0  0  0  0  0  0  0  0
    1.7834   -9.7711    2.4021 C   0  0  0  0  0  0  0  0  0  0  0  0
    3.3181   -9.8134    2.5245 C   0  0  0  0  0  0  0  0  0  0  0  0
    4.0106   -8.6083    1.8567 C   0  0  0  0  0  0  0  0  0  0  0  0
    5.5378   -8.6436    1.9247 C   0  0  0  0  0  0  0  0  0  0  0  0
    6.1545   -9.5357    2.5073 O   0  0  0  0  0  0  0  0  0  0  0  0
    6.0948   -7.5965    1.2954 O   0  0  0  0  0  0  0  0  0  0  0  0
    7.5078   -7.4737    1.2854 C   0  0  0  0  0  0  0  0  0  0  0  0
    1.3923   -8.1680    4.2138 N   0  0  0  0  0  0  0  0  0  0  0  0
    0.8091   -2.0696    4.5237 C   0  0  0  0  0  0  0  0  0  0  0  0
    2.0519   -1.1580    4.3817 C   0  0  1  0  0  0  0  0  0  0  0  0
    3.8081   -1.2976   -0.6449 C   0  0  0  0  0  0  0  0  0  0  0  0
    5.0807   -1.6088   -1.4365 C   0  0  1  0  0  0  0  0  0  0  0  0
    6.2069   -1.4018   -0.6079 O   0  0  0  0  0  0  0  0  0  0  0  0
    5.0685   -3.0535   -1.9695 C   0  0  0  0  0  0  0  0  0  0  0  0
    4.9370   -4.0951   -0.8377 C   0  0  1  0  0  0  0  0  0  0  0  0
    6.1664   -4.1983   -0.1461 O   0  0  0  0  0  0  0  0  0  0  0  0
    3.5524   -5.8034    0.5567 H   0  0  0  0  0  0  0  0  0  0  0  0
    2.4093   -4.6941    1.4867 H   0  0  0  0  0  0  0  0  0  0  0  0
    2.5757   -2.7607    2.2808 H   0  0  0  0  0  0  0  0  0  0  0  0
    2.1984    0.0560    1.1012 H   0  0  0  0  0  0  0  0  0  0  0  0
    2.2607    1.7537    3.2887 H   0  0  0  0  0  0  0  0  0  0  0  0
    0.4400    1.7266    1.7061 H   0  0  0  0  0  0  0  0  0  0  0  0
    0.3992    3.7058    3.2714 H   0  0  0  0  0  0  0  0  0  0  0  0
   -0.7096    2.8273    4.3269 H   0  0  0  0  0  0  0  0  0  0  0  0
   -1.2069    3.2677    2.6994 H   0  0  0  0  0  0  0  0  0  0  0  0
   -1.5790    0.9633    2.3174 H   0  0  0  0  0  0  0  0  0  0  0  0
    1.5547    1.9813    5.5184 H   0  0  0  0  0  0  0  0  0  0  0  0
    0.2588    0.8191    5.3200 H   0  0  0  0  0  0  0  0  0  0  0  0
    4.3393   -0.4536    5.8620 H   0  0  0  0  0  0  0  0  0  0  0  0
    3.7931    1.1440    6.3540 H   0  0  0  0  0  0  0  0  0  0  0  0
    4.0197    0.7704    4.6470 H   0  0  0  0  0  0  0  0  0  0  0  0
    2.6977   -1.2073    7.3494 H   0  0  0  0  0  0  0  0  0  0  0  0
    1.6503    0.1462    7.6130 H   0  0  0  0  0  0  0  0  0  0  0  0
    0.5717   -2.1122    7.9576 H   0  0  0  0  0  0  0  0  0  0  0  0
   -0.2885   -1.1030    6.8250 H   0  0  0  0  0  0  0  0  0  0  0  0
    1.5243   -6.4487    6.1206 H   0  0  0  0  0  0  0  0  0  0  0  0
   -0.2033   -6.2257    5.8433 H   0  0  0  0  0  0  0  0  0  0  0  0
    1.3399  -10.6142    2.9309 H   0  0  0  0  0  0  0  0  0  0  0  0
    1.5006   -9.8636    1.3587 H   0  0  0  0  0  0  0  0  0  0  0  0
    3.5769   -9.8506    3.5819 H   0  0  0  0  0  0  0  0  0  0  0  0
    3.6844  -10.7465    2.0894 H   0  0  0  0  0  0  0  0  0  0  0  0
    3.7084   -8.5438    0.8127 H   0  0  0  0  0  0  0  0  0  0  0  0
    3.6789   -7.6894    2.3364 H   0  0  0  0  0  0  0  0  0  0  0  0
    7.7928   -6.5884    0.7201 H   0  0  0  0  0  0  0  0  0  0  0  0
    7.9778   -8.3378    0.8159 H   0  0  0  0  0  0  0  0  0  0  0  0
    7.8977   -7.3738    2.2991 H   0  0  0  0  0  0  0  0  0  0  0  0
    0.7792   -2.8192    3.7346 H   0  0  0  0  0  0  0  0  0  0  0  0
   -0.1069   -1.4862    4.4116 H   0  0  0  0  0  0  0  0  0  0  0  0
    2.9406   -1.7829    4.3170 H   0  0  0  0  0  0  0  0  0  0  0  0
    2.9882   -1.2123   -1.3540 H   0  0  0  0  0  0  0  0  0  0  0  0
    3.9482   -0.3172   -0.1941 H   0  0  0  0  0  0  0  0  0  0  0  0
    5.1603   -0.9105   -2.2728 H   0  0  0  0  0  0  0  0  0  0  0  0
    6.1596   -2.0536    0.0814 H   0  0  0  0  0  0  0  0  0  0  0  0
    4.2106   -3.1553   -2.6370 H   0  0  0  0  0  0  0  0  0  0  0  0
    5.9487   -3.2537   -2.5866 H   0  0  0  0  0  0  0  0  0  0  0  0
    4.7401   -5.0608   -1.3080 H   0  0  0  0  0  0  0  0  0  0  0  0
    6.1368   -4.9671    0.4040 H   0  0  0  0  0  0  0  0  0  0  0  0
  1  2  2  0
  1 40  1  0
  1 41  1  0
  2 38  1  0
  2  3  1  0
  3  4  2  3
  3 34  1  0
  4  5  1  0
  4 42  1  0
  5  6  2  3
  5 43  1  0
  6 33  1  0
  6  7  1  0
  7  8  1  0
  7 11  1  0
  7 44  1  1
  8  9  1  0
  8 10  1  0
  8 45  1  6
  9 46  1  0
  9 47  1  0
  9 48  1  0
 10 49  1  0
 11 12  1  0
 11 50  1  0
 11 51  1  0
 12 33  1  0
 12 13  1  1
 12 14  1  0
 13 52  1  0
 13 53  1  0
 13 54  1  0
 14 15  1  0
 14 55  1  0
 14 56  1  0
 15 16  1  0
 15 57  1  0
 15 58  1  0
 16 17  2  3
 16 32  1  0
 17 18  1  0
 18 19  1  0
 19 20  1  0
 19 59  1  0
 19 60  1  0
 20 31  2  0
 20 21  1  0
 21 22  2  0
 22 23  1  0
 23 24  1  0
 23 31  1  0
 24 25  1  0
 24 61  1  0
 24 62  1  0
 25 26  1  0
 25 63  1  0
 25 64  1  0
 26 27  1  0
 26 65  1  0
 26 66  1  0
 27 28  2  0
 27 29  1  0
 29 30  1  0
 30 67  1  0
 30 68  1  0
 30 69  1  0
 32 33  1  0
 32 70  1  0
 32 71  1  0
 33 72  1  6
 34 35  1  0
 34 73  1  0
 34 74  1  0
 35 36  1  0
 35 37  1  0
 35 75  1  6
 36 76  1  0
 37 38  1  0
 37 77  1  0
 37 78  1  0
 38 39  1  0
 38 79  1  6
 39 80  1  0
M  END
>  <i_m_ct_stereo_status>  (156) 
1

>  <s_m_source_file>  (156) 
/var/tmp/pbs.5076255.sched01/tmp9vbryffn/46pprzbbw9.sdf

>  <i_m_source_file_index>  (156) 
23

>  <i_lp_mmshare_version>  (156) 
48012

>  <i_f3d_flags>  (156) 
0

>  <s_epik_input>  (156) 
W09IXVtDQEBIXTFbQ0gyXVtDQEhdKFtPSF0pW0NIMl1DKFxDMT1bQ0gyXSk9W0NIXVxbQ0hdPUMoL1tDQEhdKFtDSDJdMilbQ0BIXShbQ0gzXSlbT0hdKVtDQEBIXShbQ0BAXTIzW0NIM10pW0NIMl1DKFxbQ0gyXVtDSDJdMyk9TlxPW0NIMl1jNG5ubihuNClbQ0gyXVtDSDJdW0NIMl1DKD1PKU9bQ0gzXQ==

>  <s_epik_cmdline>  (156) 
J2VwaWtfcHl0aG9uJywgJy1waHQnLCAnMi4wJywgJy1waCcsICc3LjAnLCAnLXRuJywgJzgnLCAnLW1hJywgJzIwMCcsICctaW1hZScsICc8aW5maWxlLm1hZT4nLCAnLW9tYWUnLCAnPG91dGZpbGUubWFlPic=

>  <r_lp_tautomer_probability>  (156) 
1

>  <r_epik_Ionization_Penalty>  (156) 
5.38978e-07

>  <r_epik_Ionization_Penalty_Charging>  (156) 
0

>  <r_epik_Ionization_Penalty_Neutral>  (156) 
5.38978e-07

>  <r_epik_State_Penalty>  (156) 
-0

>  <r_epik_Charging_Adjusted_Penalty>  (156) 
0

>  <i_epik_Tot_Q>  (156) 
0

>  <i_epik_Tot_abs_Q>  (156) 
0

>  <s_epik_Chemistry_Notes>  (156) 
This compound has an ester and may undergo hydrolysis at high or low pH. This compound has an imine and may undergo hydrolysis.

>  <s_lp_Force_Field>  (156) 
OPLS3e

>  <r_lp_Energy>  (156) 
33.3459

>  <b_lp_Chiralities_Consistent>  (156) 
1

>  <s_lp_Variant>  (156) 
37:0-8

>  <s_i_glide_gridfile>  (156) 
pfpi4k_grid

>  <i_i_glide_lignum>  (156) 
23

>  <i_i_glide_rotatable_bonds>  (156) 
13

>  <r_i_docking_score>  (156) 
-2.19344

>  <r_i_glide_ligand_efficiency>  (156) 
-0.056242

>  <r_i_glide_ligand_efficiency_sa>  (156) 
-0.190729

>  <r_i_glide_ligand_efficiency_ln>  (156) 
-0.470335

>  <r_i_glide_gscore>  (156) 
-2.19344

>  <r_i_glide_lipo>  (156) 
-0.214449

>  <r_i_glide_hbond>  (156) 
0

>  <r_i_glide_metal>  (156) 
-0

>  <r_i_glide_rewards>  (156) 
-0.0271639

>  <r_i_glide_evdw>  (156) 
-33.1592

>  <r_i_glide_ecoul>  (156) 
-5.10274

>  <r_i_glide_erotb>  (156) 
0.630133

>  <r_i_glide_esite>  (156) 
-0.158586

>  <r_i_glide_emodel>  (156) 
-40.3299

>  <r_i_glide_energy>  (156) 
-38.262

>  <r_i_glide_einternal>  (156) 
6.39512

>  <r_i_glide_intrahb_reward>  (156) 
-0

>  <i_i_glide_confnum>  (156) 
6

>  <i_i_glide_posenum>  (156) 
36

>  <r_i_glide_eff_state_penalty>  (156) 
0

>  <ligand_id>  (156) 
37

>  <original_smiles>  (156) 
C=C1C(=CC=C2C(C(C)O)CC3(C)CCC(=NOCc4nnn(CCCC(=O)OC)n4)CC23)CC(O)CC1O

>  <smiles>  (156) 
[H]OC1([H])C(=C([H])[H])C(=C([H])C([H])=C2C([H])(C([H])(O[H])C([H])([H])[H])C([H])([H])C3(C([H])([H])[H])C([H])([H])C([H])([H])C(=NOC([H])([H])c4nnn(C([H])([H])C([H])([H])C([H])([H])C(=O)OC([H])([H])[H])n4)C([H])([H])C23[H])C([H])([H])C([H])(O[H])C1([H])[H]

$$$$
38:0:0
     RDKit          3D

 97104  0  0  1  0  0  0  0  0999 V2000
    4.9278   -8.2140    2.3108 C   0  0  0  0  0  0  0  0  0  0  0  0
    4.3869   -7.1883    1.3113 C   0  0  2  0  0  0  0  0  0  0  0  0
    5.4253   -6.3393    0.9396 O   0  0  0  0  0  0  0  0  0  0  0  0
    4.7905   -5.1290    0.6145 C   0  0  2  0  0  0  0  0  0  0  0  0
    5.7617   -3.9433    0.6290 C   0  0  0  0  0  0  0  0  0  0  0  0
    5.0985   -2.5307    0.5789 C   0  0  0  0  0  0  0  0  0  0  0  0
    6.1933   -1.4509    0.8116 C   0  0  0  0  0  0  0  0  0  0  0  0
    4.7082   -2.2874   -0.9106 C   0  0  0  0  0  0  0  0  0  0  0  0
    3.8425   -2.3459    1.5794 C   0  0  1  0  0  0  0  0  0  0  0  0
    2.5644   -2.9310    0.8948 C   0  0  0  0  0  0  0  0  0  0  0  0
    2.3862   -4.4582    1.0713 C   0  0  1  0  0  0  0  0  0  0  0  0
    1.9201   -5.0556   -0.1396 O   0  0  0  0  0  0  0  0  0  0  0  0
    3.6587   -5.0846    1.6529 C   0  0  1  0  0  0  0  0  0  0  0  0
    3.3817   -6.4460    1.9242 O   0  0  0  0  0  0  0  0  0  0  0  0
    3.9581   -4.4244    3.0513 C   0  0  1  0  0  0  0  0  0  0  0  0
    5.1137   -5.0190    3.6225 O   0  0  0  0  0  0  0  0  0  0  0  0
    3.9649   -2.8111    3.1328 C   0  0  1  0  0  0  0  0  0  0  0  0
    5.3858   -2.3947    3.6084 C   0  0  0  0  0  0  0  0  0  0  0  0
    2.8133   -2.2302    4.2433 C   0  0  1  0  0  0  0  0  0  0  0  0
    1.4589   -2.7657    3.7476 C   0  0  0  0  0  0  0  0  0  0  0  0
    0.9945   -3.8545    4.0654 O   0  0  0  0  0  0  0  0  0  0  0  0
    3.0294   -2.7806    5.7436 C   0  0  1  0  0  0  0  0  0  0  0  0
    3.6411   -4.0335    5.9644 O   0  0  0  0  0  0  0  0  0  0  0  0
    3.6751   -1.7092    6.6547 C   0  0  0  0  0  0  0  0  0  0  0  0
    3.7475   -0.5297    5.7089 C   0  0  2  0  0  0  0  0  0  0  0  0
    4.4285    0.8647    5.8907 C   0  0  0  0  0  0  0  0  0  0  0  0
    4.2015    1.5673    7.2581 C   0  0  0  0  0  0  0  0  0  0  0  0
    5.9741    0.7973    5.7124 C   0  0  0  0  0  0  0  0  0  0  0  0
    3.8118    1.5800    4.6558 C   0  0  0  0  0  0  0  0  0  0  0  0
    3.2163    0.4683    3.7297 C   0  0  2  0  0  0  0  0  0  0  0  0
    2.3022    0.9423    2.5947 C   0  0  0  0  0  0  0  0  0  0  0  0
    0.9616    1.4998    3.0474 C   0  0  2  0  0  0  0  0  0  0  0  0
    1.0554    2.8408    3.4553 O   0  0  0  0  0  0  0  0  0  0  0  0
   -0.0504    3.0557    4.2516 C   0  0  0  0  0  0  0  0  0  0  0  0
    0.3359    4.0841    5.3150 C   0  0  0  0  0  0  0  0  0  0  0  0
   -1.2515    3.5347    3.4073 C   0  0  0  0  0  0  0  0  0  0  0  0
   -0.3951    1.8648    4.8787 O   0  0  0  0  0  0  0  0  0  0  0  0
    0.2921    0.7895    4.2379 C   0  0  1  0  0  0  0  0  0  0  0  0
   -0.8352   -0.1292    3.7986 C   0  0  0  0  0  0  0  0  0  0  0  0
   -0.9744   -1.0436    4.8617 O   0  0  0  0  0  0  0  0  0  0  0  0
    0.0537   -1.0418    5.7144 C   0  0  0  0  0  0  0  0  0  0  0  0
    0.0762   -1.6872    6.7646 O   0  0  0  0  0  0  0  0  0  0  0  0
    1.1586   -0.0489    5.2605 C   0  0  2  0  0  0  0  0  0  0  0  0
    1.2810    0.7920    6.5657 C   0  0  0  0  0  0  0  0  0  0  0  0
    2.6160   -0.6241    4.6579 C   0  0  1  0  0  0  0  0  0  0  0  0
    5.3475   -7.6971    3.1759 H   0  0  0  0  0  0  0  0  0  0  0  0
    5.7087   -8.8079    1.8366 H   0  0  0  0  0  0  0  0  0  0  0  0
    4.1241   -8.8747    2.6435 H   0  0  0  0  0  0  0  0  0  0  0  0
    3.9652   -7.6696    0.4241 H   0  0  0  0  0  0  0  0  0  0  0  0
    4.3851   -5.2497   -0.3911 H   0  0  0  0  0  0  0  0  0  0  0  0
    6.4176   -4.0599    1.4814 H   0  0  0  0  0  0  0  0  0  0  0  0
    6.4418   -4.0557   -0.2158 H   0  0  0  0  0  0  0  0  0  0  0  0
    5.7636   -0.4781    1.0454 H   0  0  0  0  0  0  0  0  0  0  0  0
    6.8231   -1.3136   -0.0653 H   0  0  0  0  0  0  0  0  0  0  0  0
    6.9057   -1.6979    1.5896 H   0  0  0  0  0  0  0  0  0  0  0  0
    4.1655   -1.3477   -1.0369 H   0  0  0  0  0  0  0  0  0  0  0  0
    4.1048   -3.0930   -1.3309 H   0  0  0  0  0  0  0  0  0  0  0  0
    5.5802   -2.2472   -1.5652 H   0  0  0  0  0  0  0  0  0  0  0  0
    3.6846   -1.2750    1.5894 H   0  0  0  0  0  0  0  0  0  0  0  0
    1.6916   -2.4005    1.2532 H   0  0  0  0  0  0  0  0  0  0  0  0
    2.4580   -2.6653   -0.1507 H   0  0  0  0  0  0  0  0  0  0  0  0
    1.5884   -4.6615    1.7826 H   0  0  0  0  0  0  0  0  0  0  0  0
    2.5957   -5.0187   -0.8098 H   0  0  0  0  0  0  0  0  0  0  0  0
    3.1655   -4.8123    3.6820 H   0  0  0  0  0  0  0  0  0  0  0  0
    5.8214   -4.9378    2.9991 H   0  0  0  0  0  0  0  0  0  0  0  0
    5.5536   -2.6358    4.6562 H   0  0  0  0  0  0  0  0  0  0  0  0
    5.5957   -1.3439    3.4404 H   0  0  0  0  0  0  0  0  0  0  0  0
    6.2033   -2.8988    3.1113 H   0  0  0  0  0  0  0  0  0  0  0  0
    0.9151   -2.0650    3.1198 H   0  0  0  0  0  0  0  0  0  0  0  0
    2.0543   -2.9551    6.1867 H   0  0  0  0  0  0  0  0  0  0  0  0
    4.4674   -4.0767    5.5008 H   0  0  0  0  0  0  0  0  0  0  0  0
    3.0730   -1.5290    7.5460 H   0  0  0  0  0  0  0  0  0  0  0  0
    4.6745   -1.9983    6.9866 H   0  0  0  0  0  0  0  0  0  0  0  0
    4.5723   -0.9141    5.1703 H   0  0  0  0  0  0  0  0  0  0  0  0
    5.1075    2.0516    7.6226 H   0  0  0  0  0  0  0  0  0  0  0  0
    3.9198    0.8552    8.0345 H   0  0  0  0  0  0  0  0  0  0  0  0
    3.4641    2.3648    7.2276 H   0  0  0  0  0  0  0  0  0  0  0  0
    6.4296    1.7844    5.8090 H   0  0  0  0  0  0  0  0  0  0  0  0
    6.2678    0.4241    4.7315 H   0  0  0  0  0  0  0  0  0  0  0  0
    6.4308    0.1519    6.4655 H   0  0  0  0  0  0  0  0  0  0  0  0
    3.0524    2.3033    4.9410 H   0  0  0  0  0  0  0  0  0  0  0  0
    4.5564    2.1616    4.1179 H   0  0  0  0  0  0  0  0  0  0  0  0
    4.0813    0.0637    3.2177 H   0  0  0  0  0  0  0  0  0  0  0  0
    2.8251    1.6843    1.9906 H   0  0  0  0  0  0  0  0  0  0  0  0
    2.1034    0.1088    1.9245 H   0  0  0  0  0  0  0  0  0  0  0  0
    0.2943    1.4765    2.1832 H   0  0  0  0  0  0  0  0  0  0  0  0
    1.2808    3.8060    5.7791 H   0  0  0  0  0  0  0  0  0  0  0  0
   -0.4405    4.1321    6.0769 H   0  0  0  0  0  0  0  0  0  0  0  0
    0.4622    5.0614    4.8463 H   0  0  0  0  0  0  0  0  0  0  0  0
   -1.5475    2.7922    2.6620 H   0  0  0  0  0  0  0  0  0  0  0  0
   -0.9852    4.4565    2.8843 H   0  0  0  0  0  0  0  0  0  0  0  0
   -2.1034    3.7308    4.0601 H   0  0  0  0  0  0  0  0  0  0  0  0
   -1.7683    0.3998    3.5872 H   0  0  0  0  0  0  0  0  0  0  0  0
   -0.5349   -0.6325    2.8839 H   0  0  0  0  0  0  0  0  0  0  0  0
    1.6669    1.7792    6.3824 H   0  0  0  0  0  0  0  0  0  0  0  0
    1.8660    0.3050    7.3400 H   0  0  0  0  0  0  0  0  0  0  0  0
    0.3150    0.9916    7.0448 H   0  0  0  0  0  0  0  0  0  0  0  0
  1  2  1  0
  1 46  1  0
  1 47  1  0
  1 48  1  0
  2 14  1  0
  2  3  1  0
  2 49  1  6
  3  4  1  0
  4 13  1  0
  4  5  1  0
  4 50  1  6
  5  6  1  0
  5 51  1  0
  5 52  1  0
  6  7  1  0
  6  8  1  0
  6  9  1  0
  7 53  1  0
  7 54  1  0
  7 55  1  0
  8 56  1  0
  8 57  1  0
  8 58  1  0
  9 17  1  0
  9 10  1  0
  9 59  1  1
 10 11  1  0
 10 60  1  0
 10 61  1  0
 11 12  1  0
 11 13  1  0
 11 62  1  1
 12 63  1  0
 13 14  1  1
 13 15  1  0
 15 16  1  0
 15 17  1  0
 15 64  1  1
 16 65  1  0
 17 18  1  1
 17 19  1  0
 18 66  1  0
 18 67  1  0
 18 68  1  0
 19 45  1  0
 19 20  1  6
 19 22  1  0
 20 21  2  0
 20 69  1  0
 22 23  1  0
 22 24  1  0
 22 70  1  1
 23 71  1  0
 24 25  1  0
 24 72  1  0
 24 73  1  0
 25 45  1  0
 25 26  1  0
 25 74  1  6
 26 27  1  0
 26 28  1  0
 26 29  1  0
 27 75  1  0
 27 76  1  0
 27 77  1  0
 28 78  1  0
 28 79  1  0
 28 80  1  0
 29 30  1  0
 29 81  1  0
 29 82  1  0
 30 45  1  0
 30 31  1  0
 30 83  1  6
 31 32  1  0
 31 84  1  0
 31 85  1  0
 32 38  1  0
 32 33  1  0
 32 86  1  6
 33 34  1  0
 34 35  1  0
 34 36  1  0
 34 37  1  0
 35 87  1  0
 35 88  1  0
 35 89  1  0
 36 90  1  0
 36 91  1  0
 36 92  1  0
 38 37  1  1
 38 43  1  0
 38 39  1  0
 39 40  1  0
 39 93  1  0
 39 94  1  0
 40 41  1  0
 41 42  2  0
 41 43  1  0
 43 44  1  1
 45 43  1  1
 44 95  1  0
 44 96  1  0
 44 97  1  0
M  END
>  <i_m_ct_stereo_status>  (157) 
1

>  <s_m_source_file>  (157) 
/var/tmp/pbs.5076255.sched01/tmp9vbryffn/46pprzbbw9.sdf

>  <i_m_source_file_index>  (157) 
24

>  <i_lp_mmshare_version>  (157) 
48012

>  <i_f3d_flags>  (157) 
0

>  <s_epik_input>  (157) 
W0NIM11bQ0BASF0oTzEpT1tDQEBIXShbQ0BdMTIzKVtDSDJdQyhbQ0gzXSkoW0NIM10pW0NAQEhdKFtDSDJdW0NASF0yW09IXSlbQ0BdKFtDSDNdKShbQ0BASF0zW09IXSlbQ0BAXTQoW0NIXT1PKVtDQEBIXShbT0hdKVtDSDJdW0NASF0oQyhbQ0gzXSkoW0NIM10pW0NIMl01KVtDQEBdNChbQ0BdNihbQ0gzXSlDKD1PKU9bQ0gyXTcpW0NASF01W0NIMl1bQ0BASF0oW0NAXTY3OClPQyhPOCkoW0NIM10pW0NIM10=

>  <s_epik_cmdline>  (157) 
J2VwaWtfcHl0aG9uJywgJy1waHQnLCAnMi4wJywgJy1waCcsICc3LjAnLCAnLXRuJywgJzgnLCAnLW1hJywgJzIwMCcsICctaW1hZScsICc8aW5maWxlLm1hZT4nLCAnLW9tYWUnLCAnPG91dGZpbGUubWFlPic=

>  <r_lp_tautomer_probability>  (157) 
1

>  <r_epik_Ionization_Penalty>  (157) 
1.663e-07

>  <r_epik_Ionization_Penalty_Charging>  (157) 
0

>  <r_epik_Ionization_Penalty_Neutral>  (157) 
1.663e-07

>  <r_epik_State_Penalty>  (157) 
-0

>  <r_epik_Charging_Adjusted_Penalty>  (157) 
0

>  <i_epik_Tot_Q>  (157) 
0

>  <i_epik_Tot_abs_Q>  (157) 
0

>  <s_epik_Chemistry_Notes>  (157) 
This compound has an ester and may undergo hydrolysis at high or low pH. This compound contains an acetal/aminal-like group ( X-CH(R)-Y where X, Y are N, S, or O) that may be acid/base labile, releasing an aldehyde.

>  <s_lp_Force_Field>  (157) 
OPLS3e

>  <r_lp_Energy>  (157) 
142.689

>  <b_lp_Chiralities_Consistent>  (157) 
1

>  <s_lp_Variant>  (157) 
38:0-1

>  <s_i_glide_gridfile>  (157) 
pfpi4k_grid

>  <i_i_glide_lignum>  (157) 
24

>  <i_i_glide_rotatable_bonds>  (157) 
5

>  <r_i_docking_score>  (157) 
-3.21269

>  <r_i_glide_ligand_efficiency>  (157) 
-0.071393

>  <r_i_glide_ligand_efficiency_sa>  (157) 
-0.253937

>  <r_i_glide_ligand_efficiency_ln>  (157) 
-0.668382

>  <r_i_glide_gscore>  (157) 
-3.21269

>  <r_i_glide_lipo>  (157) 
-0.452498

>  <r_i_glide_hbond>  (157) 
0

>  <r_i_glide_metal>  (157) 
-0

>  <r_i_glide_rewards>  (157) 
-0.164606

>  <r_i_glide_evdw>  (157) 
-31.5244

>  <r_i_glide_ecoul>  (157) 
-6.77726

>  <r_i_glide_erotb>  (157) 
0.052837

>  <r_i_glide_esite>  (157) 
-0.0556122

>  <r_i_glide_emodel>  (157) 
-43.8155

>  <r_i_glide_energy>  (157) 
-38.3016

>  <r_i_glide_einternal>  (157) 
4.02193

>  <r_i_glide_intrahb_reward>  (157) 
-0

>  <i_i_glide_confnum>  (157) 
3

>  <i_i_glide_posenum>  (157) 
5

>  <r_i_glide_eff_state_penalty>  (157) 
0

>  <ligand_id>  (157) 
38

>  <original_smiles>  (157) 
CC1OC2CC(C)(C)C3CC(O)C2(O1)C(O)C3(C)C1(C=O)C(O)CC2C(C)(C)CC3CC4OC(C)(C)OC45COC(=O)C5(C)C321

>  <smiles>  (157) 
[H]OC1([H])C([H])([H])C2([H])C(C([H])([H])[H])(C([H])([H])[H])C([H])([H])C3([H])OC([H])(C([H])([H])[H])OC13C([H])(O[H])C2(C([H])([H])[H])C1(C([H])=O)C([H])(O[H])C([H])([H])C2([H])C(C([H])([H])[H])(C([H])([H])[H])C([H])([H])C3([H])C([H])([H])C4([H])OC(C([H])([H])[H])(C([H])([H])[H])OC45C([H])([H])OC(=O)C5(C([H])([H])[H])C321

$$$$
38:0:1
     RDKit          3D

 97104  0  0  1  0  0  0  0  0999 V2000
    5.5249   -7.9103    2.1310 C   0  0  0  0  0  0  0  0  0  0  0  0
    4.7678   -6.9239    1.2344 C   0  0  2  0  0  0  0  0  0  0  0  0
    5.6544   -5.9332    0.8241 O   0  0  0  0  0  0  0  0  0  0  0  0
    4.8445   -4.8063    0.6131 C   0  0  2  0  0  0  0  0  0  0  0  0
    5.6589   -3.5082    0.5988 C   0  0  0  0  0  0  0  0  0  0  0  0
    4.8215   -2.1951    0.6730 C   0  0  0  0  0  0  0  0  0  0  0  0
    5.7906   -0.9924    0.8622 C   0  0  0  0  0  0  0  0  0  0  0  0
    4.2677   -1.9467   -0.7637 C   0  0  0  0  0  0  0  0  0  0  0  0
    3.6484   -2.2142    1.7880 C   0  0  1  0  0  0  0  0  0  0  0  0
    2.3914   -2.9323    1.2085 C   0  0  0  0  0  0  0  0  0  0  0  0
    2.4226   -4.4754    1.3110 C   0  0  1  0  0  0  0  0  0  0  0  0
    1.9519   -5.0612    0.0964 O   0  0  0  0  0  0  0  0  0  0  0  0
    3.8150   -4.9486    1.7503 C   0  0  1  0  0  0  0  0  0  0  0  0
    3.7378   -6.3441    1.9720 O   0  0  0  0  0  0  0  0  0  0  0  0
    4.1705   -4.3057    3.1450 C   0  0  1  0  0  0  0  0  0  0  0  0
    5.4471   -4.7611    3.5679 O   0  0  0  0  0  0  0  0  0  0  0  0
    3.9699   -2.7090    3.3007 C   0  0  1  0  0  0  0  0  0  0  0  0
    5.3559   -2.1128    3.6712 C   0  0  0  0  0  0  0  0  0  0  0  0
    2.8567   -2.3246    4.5262 C   0  0  1  0  0  0  0  0  0  0  0  0
    1.5608   -3.0763    4.1607 C   0  0  0  0  0  0  0  0  0  0  0  0
    1.3016   -4.2231    4.5025 O   0  0  0  0  0  0  0  0  0  0  0  0
    3.3206   -2.8315    5.9816 C   0  0  1  0  0  0  0  0  0  0  0  0
    4.1487   -3.9681    6.1103 O   0  0  0  0  0  0  0  0  0  0  0  0
    3.8770   -1.6630    6.8366 C   0  0  0  0  0  0  0  0  0  0  0  0
    3.6508   -0.4867    5.9086 C   0  0  2  0  0  0  0  0  0  0  0  0
    4.1078    1.0044    6.0343 C   0  0  0  0  0  0  0  0  0  0  0  0
    3.9101    1.6654    7.4262 C   0  0  0  0  0  0  0  0  0  0  0  0
    5.6150    1.1913    5.7002 C   0  0  0  0  0  0  0  0  0  0  0  0
    3.2613    1.6078    4.8762 C   0  0  0  0  0  0  0  0  0  0  0  0
    2.7655    0.4033    4.0089 C   0  0  2  0  0  0  0  0  0  0  0  0
    1.6673    0.7095    2.9823 C   0  0  0  0  0  0  0  0  0  0  0  0
    0.3033    1.0320    3.5795 C   0  0  2  0  0  0  0  0  0  0  0  0
    0.2105    2.3737    3.9905 O   0  0  0  0  0  0  0  0  0  0  0  0
   -0.8257    2.4046    4.9031 C   0  0  0  0  0  0  0  0  0  0  0  0
   -0.5048    3.4887    5.9323 C   0  0  0  0  0  0  0  0  0  0  0  0
   -2.1668    2.6811    4.1888 C   0  0  0  0  0  0  0  0  0  0  0  0
   -0.9013    1.1730    5.5420 O   0  0  0  0  0  0  0  0  0  0  0  0
   -0.1126    0.2207    4.8226 C   0  0  1  0  0  0  0  0  0  0  0  0
   -1.1116   -0.8851    4.5085 C   0  0  0  0  0  0  0  0  0  0  0  0
   -0.9929   -1.7682    5.5952 O   0  0  0  0  0  0  0  0  0  0  0  0
    0.1249   -1.6051    6.3033 C   0  0  0  0  0  0  0  0  0  0  0  0
    0.3749   -2.2314    7.3367 O   0  0  0  0  0  0  0  0  0  0  0  0
    0.9873   -0.4463    5.7379 C   0  0  2  0  0  0  0  0  0  0  0  0
    1.1070    0.4134    7.0330 C   0  0  0  0  0  0  0  0  0  0  0  0
    2.4491   -0.7711    4.9814 C   0  0  1  0  0  0  0  0  0  0  0  0
    5.9538   -7.3750    2.9804 H   0  0  0  0  0  0  0  0  0  0  0  0
    6.3297   -8.3780    1.5622 H   0  0  0  0  0  0  0  0  0  0  0  0
    4.8449   -8.6819    2.4993 H   0  0  0  0  0  0  0  0  0  0  0  0
    4.3322   -7.4161    0.3585 H   0  0  0  0  0  0  0  0  0  0  0  0
    4.3703   -4.9432   -0.3595 H   0  0  0  0  0  0  0  0  0  0  0  0
    6.3982   -3.5636    1.3888 H   0  0  0  0  0  0  0  0  0  0  0  0
    6.2692   -3.5018   -0.3051 H   0  0  0  0  0  0  0  0  0  0  0  0
    5.2626   -0.0941    1.1798 H   0  0  0  0  0  0  0  0  0  0  0  0
    6.3080   -0.7345   -0.0595 H   0  0  0  0  0  0  0  0  0  0  0  0
    6.5988   -1.1745    1.5618 H   0  0  0  0  0  0  0  0  0  0  0  0
    3.6030   -1.0795   -0.7945 H   0  0  0  0  0  0  0  0  0  0  0  0
    3.7315   -2.8049   -1.1691 H   0  0  0  0  0  0  0  0  0  0  0  0
    5.0638   -1.7664   -1.4867 H   0  0  0  0  0  0  0  0  0  0  0  0
    3.3610   -1.1726    1.8441 H   0  0  0  0  0  0  0  0  0  0  0  0
    1.5002   -2.5328    1.6773 H   0  0  0  0  0  0  0  0  0  0  0  0
    2.1642   -2.6435    0.1888 H   0  0  0  0  0  0  0  0  0  0  0  0
    1.7085   -4.8050    2.0632 H   0  0  0  0  0  0  0  0  0  0  0  0
    2.6038   -4.9593   -0.5896 H   0  0  0  0  0  0  0  0  0  0  0  0
    3.5217   -4.8251    3.8428 H   0  0  0  0  0  0  0  0  0  0  0  0
    6.0615   -4.6132    2.8603 H   0  0  0  0  0  0  0  0  0  0  0  0
    5.6459   -2.3407    4.6957 H   0  0  0  0  0  0  0  0  0  0  0  0
    5.4130   -1.0396    3.5083 H   0  0  0  0  0  0  0  0  0  0  0  0
    6.1745   -2.5070    3.0960 H   0  0  0  0  0  0  0  0  0  0  0  0
    0.8575   -2.4666    3.5962 H   0  0  0  0  0  0  0  0  0  0  0  0
    2.4403   -3.1662    6.5208 H   0  0  0  0  0  0  0  0  0  0  0  0
    4.9320   -3.8545    5.5868 H   0  0  0  0  0  0  0  0  0  0  0  0
    3.3485   -1.5753    7.7860 H   0  0  0  0  0  0  0  0  0  0  0  0
    4.9377   -1.7827    7.0641 H   0  0  0  0  0  0  0  0  0  0  0  0
    4.4714   -0.7297    5.2858 H   0  0  0  0  0  0  0  0  0  0  0  0
    4.7546    2.2972    7.6996 H   0  0  0  0  0  0  0  0  0  0  0  0
    3.8348    0.9203    8.2188 H   0  0  0  0  0  0  0  0  0  0  0  0
    3.0506    2.3282    7.4815 H   0  0  0  0  0  0  0  0  0  0  0  0
    5.9006    2.2419    5.7644 H   0  0  0  0  0  0  0  0  0  0  0  0
    5.8614    0.8696    4.6890 H   0  0  0  0  0  0  0  0  0  0  0  0
    6.2470    0.6348    6.3951 H   0  0  0  0  0  0  0  0  0  0  0  0
    2.4238    2.1907    5.2481 H   0  0  0  0  0  0  0  0  0  0  0  0
    3.8350    2.3110    4.2710 H   0  0  0  0  0  0  0  0  0  0  0  0
    3.6421    0.1493    3.4199 H   0  0  0  0  0  0  0  0  0  0  0  0
    1.9871    1.5240    2.3307 H   0  0  0  0  0  0  0  0  0  0  0  0
    1.5445   -0.1512    2.3268 H   0  0  0  0  0  0  0  0  0  0  0  0
   -0.4384    0.8876    2.7920 H   0  0  0  0  0  0  0  0  0  0  0  0
    0.5167    3.3752    6.2923 H   0  0  0  0  0  0  0  0  0  0  0  0
   -1.1956    3.4122    6.7731 H   0  0  0  0  0  0  0  0  0  0  0  0
   -0.5934    4.4723    5.4659 H   0  0  0  0  0  0  0  0  0  0  0  0
   -2.4148    1.8934    3.4762 H   0  0  0  0  0  0  0  0  0  0  0  0
   -2.1126    3.6313    3.6535 H   0  0  0  0  0  0  0  0  0  0  0  0
   -2.9677    2.7419    4.9314 H   0  0  0  0  0  0  0  0  0  0  0  0
   -2.1338   -0.5214    4.3737 H   0  0  0  0  0  0  0  0  0  0  0  0
   -0.8143   -1.4029    3.6102 H   0  0  0  0  0  0  0  0  0  0  0  0
    1.2997    1.4491    6.8212 H   0  0  0  0  0  0  0  0  0  0  0  0
    1.8417    0.0339    7.7362 H   0  0  0  0  0  0  0  0  0  0  0  0
    0.1766    0.4485    7.6118 H   0  0  0  0  0  0  0  0  0  0  0  0
  1  2  1  0
  1 46  1  0
  1 47  1  0
  1 48  1  0
  2 14  1  0
  2  3  1  0
  2 49  1  6
  3  4  1  0
  4 13  1  0
  4  5  1  0
  4 50  1  6
  5  6  1  0
  5 51  1  0
  5 52  1  0
  6  7  1  0
  6  8  1  0
  6  9  1  0
  7 53  1  0
  7 54  1  0
  7 55  1  0
  8 56  1  0
  8 57  1  0
  8 58  1  0
  9 17  1  0
  9 10  1  0
  9 59  1  1
 10 11  1  0
 10 60  1  0
 10 61  1  0
 11 12  1  0
 11 13  1  0
 11 62  1  1
 12 63  1  0
 13 14  1  1
 13 15  1  0
 15 16  1  0
 15 17  1  0
 15 64  1  1
 16 65  1  0
 17 18  1  1
 17 19  1  0
 18 66  1  0
 18 67  1  0
 18 68  1  0
 19 45  1  0
 19 20  1  6
 19 22  1  0
 20 21  2  0
 20 69  1  0
 22 23  1  0
 22 24  1  0
 22 70  1  1
 23 71  1  0
 24 25  1  0
 24 72  1  0
 24 73  1  0
 25 45  1  0
 25 26  1  0
 25 74  1  6
 26 27  1  0
 26 28  1  0
 26 29  1  0
 27 75  1  0
 27 76  1  0
 27 77  1  0
 28 78  1  0
 28 79  1  0
 28 80  1  0
 29 30  1  0
 29 81  1  0
 29 82  1  0
 30 45  1  0
 30 31  1  0
 30 83  1  6
 31 32  1  0
 31 84  1  0
 31 85  1  0
 32 38  1  0
 32 33  1  0
 32 86  1  6
 33 34  1  0
 34 35  1  0
 34 36  1  0
 34 37  1  0
 35 87  1  0
 35 88  1  0
 35 89  1  0
 36 90  1  0
 36 91  1  0
 36 92  1  0
 38 37  1  1
 38 43  1  0
 38 39  1  0
 39 40  1  0
 39 93  1  0
 39 94  1  0
 40 41  1  0
 41 42  2  0
 41 43  1  0
 43 44  1  1
 45 43  1  1
 44 95  1  0
 44 96  1  0
 44 97  1  0
M  END
>  <i_m_ct_stereo_status>  (158) 
1

>  <s_m_source_file>  (158) 
/var/tmp/pbs.5076255.sched01/tmp9vbryffn/46pprzbbw9.sdf

>  <i_m_source_file_index>  (158) 
24

>  <i_lp_mmshare_version>  (158) 
48012

>  <i_f3d_flags>  (158) 
0

>  <s_epik_input>  (158) 
W0NIM11bQ0BASF0oTzEpT1tDQEBIXShbQ0BdMTIzKVtDSDJdQyhbQ0gzXSkoW0NIM10pW0NAQEhdKFtDSDJdW0NASF0yW09IXSlbQ0BdKFtDSDNdKShbQ0BASF0zW09IXSlbQ0BAXTQoW0NIXT1PKVtDQEBIXShbT0hdKVtDSDJdW0NASF0oQyhbQ0gzXSkoW0NIM10pW0NIMl01KVtDQEBdNChbQ0BdNihbQ0gzXSlDKD1PKU9bQ0gyXTcpW0NASF01W0NIMl1bQ0BASF0oW0NAXTY3OClPQyhPOCkoW0NIM10pW0NIM10=

>  <s_epik_cmdline>  (158) 
J2VwaWtfcHl0aG9uJywgJy1waHQnLCAnMi4wJywgJy1waCcsICc3LjAnLCAnLXRuJywgJzgnLCAnLW1hJywgJzIwMCcsICctaW1hZScsICc8aW5maWxlLm1hZT4nLCAnLW9tYWUnLCAnPG91dGZpbGUubWFlPic=

>  <r_lp_tautomer_probability>  (158) 
1

>  <r_epik_Ionization_Penalty>  (158) 
1.663e-07

>  <r_epik_Ionization_Penalty_Charging>  (158) 
0

>  <r_epik_Ionization_Penalty_Neutral>  (158) 
1.663e-07

>  <r_epik_State_Penalty>  (158) 
-0

>  <r_epik_Charging_Adjusted_Penalty>  (158) 
0

>  <i_epik_Tot_Q>  (158) 
0

>  <i_epik_Tot_abs_Q>  (158) 
0

>  <s_epik_Chemistry_Notes>  (158) 
This compound has an ester and may undergo hydrolysis at high or low pH. This compound contains an acetal/aminal-like group ( X-CH(R)-Y where X, Y are N, S, or O) that may be acid/base labile, releasing an aldehyde.

>  <s_lp_Force_Field>  (158) 
OPLS3e

>  <r_lp_Energy>  (158) 
142.689

>  <b_lp_Chiralities_Consistent>  (158) 
1

>  <s_lp_Variant>  (158) 
38:0-1

>  <s_i_glide_gridfile>  (158) 
pfpi4k_grid

>  <i_i_glide_lignum>  (158) 
24

>  <i_i_glide_rotatable_bonds>  (158) 
5

>  <r_i_docking_score>  (158) 
-3.1669

>  <r_i_glide_ligand_efficiency>  (158) 
-0.0703756

>  <r_i_glide_ligand_efficiency_sa>  (158) 
-0.250318

>  <r_i_glide_ligand_efficiency_ln>  (158) 
-0.658857

>  <r_i_glide_gscore>  (158) 
-3.1669

>  <r_i_glide_lipo>  (158) 
-0.389126

>  <r_i_glide_hbond>  (158) 
0

>  <r_i_glide_metal>  (158) 
-0

>  <r_i_glide_rewards>  (158) 
-0.142333

>  <r_i_glide_evdw>  (158) 
-31.7587

>  <r_i_glide_ecoul>  (158) 
-7.08194

>  <r_i_glide_erotb>  (158) 
0.052837

>  <r_i_glide_esite>  (158) 
-0.0380536

>  <r_i_glide_emodel>  (158) 
-45.007

>  <r_i_glide_energy>  (158) 
-38.8406

>  <r_i_glide_einternal>  (158) 
2.91097

>  <r_i_glide_intrahb_reward>  (158) 
-0

>  <i_i_glide_confnum>  (158) 
3

>  <i_i_glide_posenum>  (158) 
38

>  <r_i_glide_eff_state_penalty>  (158) 
0

>  <ligand_id>  (158) 
38

>  <original_smiles>  (158) 
CC1OC2CC(C)(C)C3CC(O)C2(O1)C(O)C3(C)C1(C=O)C(O)CC2C(C)(C)CC3CC4OC(C)(C)OC45COC(=O)C5(C)C321

>  <smiles>  (158) 
[H]OC1([H])C([H])([H])C2([H])C(C([H])([H])[H])(C([H])([H])[H])C([H])([H])C3([H])OC([H])(C([H])([H])[H])OC13C([H])(O[H])C2(C([H])([H])[H])C1(C([H])=O)C([H])(O[H])C([H])([H])C2([H])C(C([H])([H])[H])(C([H])([H])[H])C([H])([H])C3([H])C([H])([H])C4([H])OC(C([H])([H])[H])(C([H])([H])[H])OC45C([H])([H])OC(=O)C5(C([H])([H])[H])C321

$$$$
38:0:2
     RDKit          3D

 97104  0  0  1  0  0  0  0  0999 V2000
   -0.1276   -8.6533    5.5936 C   0  0  0  0  0  0  0  0  0  0  0  0
    0.7344   -7.9038    4.5770 C   0  0  2  0  0  0  0  0  0  0  0  0
    2.0403   -7.8731    5.0525 O   0  0  0  0  0  0  0  0  0  0  0  0
    2.5921   -6.7061    4.4985 C   0  0  2  0  0  0  0  0  0  0  0  0
    3.8587   -6.2704    5.2415 C   0  0  0  0  0  0  0  0  0  0  0  0
    4.3685   -4.8413    4.8878 C   0  0  0  0  0  0  0  0  0  0  0  0
    5.5155   -4.4619    5.8726 C   0  0  0  0  0  0  0  0  0  0  0  0
    5.1318   -4.9663    3.5359 C   0  0  0  0  0  0  0  0  0  0  0  0
    3.2065   -3.7164    4.8242 C   0  0  1  0  0  0  0  0  0  0  0  0
    2.5043   -3.7512    3.4230 C   0  0  0  0  0  0  0  0  0  0  0  0
    1.3738   -4.7921    3.3337 C   0  0  1  0  0  0  0  0  0  0  0  0
    1.4403   -5.4646    2.0806 O   0  0  0  0  0  0  0  0  0  0  0  0
    1.3919   -5.7379    4.5513 C   0  0  1  0  0  0  0  0  0  0  0  0
    0.2637   -6.5940    4.4493 O   0  0  0  0  0  0  0  0  0  0  0  0
    1.1970   -4.8927    5.8728 C   0  0  1  0  0  0  0  0  0  0  0  0
    1.1922   -5.7573    7.0023 O   0  0  0  0  0  0  0  0  0  0  0  0
    2.1446   -3.5923    6.0550 C   0  0  1  0  0  0  0  0  0  0  0  0
    2.9516   -3.8033    7.3840 C   0  0  0  0  0  0  0  0  0  0  0  0
    1.2234   -2.1704    6.1794 C   0  0  1  0  0  0  0  0  0  0  0  0
    0.2294   -2.2058    4.9997 C   0  0  0  0  0  0  0  0  0  0  0  0
   -0.9763   -2.4256    5.1579 O   0  0  0  0  0  0  0  0  0  0  0  0
    0.3672   -2.1074    7.5502 C   0  0  1  0  0  0  0  0  0  0  0  0
   -0.1203   -3.2970    8.1392 O   0  0  0  0  0  0  0  0  0  0  0  0
    1.0240   -1.1806    8.6085 C   0  0  0  0  0  0  0  0  0  0  0  0
    2.1969   -0.6449    7.8143 C   0  0  2  0  0  0  0  0  0  0  0  0
    3.3974    0.2533    8.2671 C   0  0  0  0  0  0  0  0  0  0  0  0
    3.0454    1.4732    9.1577 C   0  0  0  0  0  0  0  0  0  0  0  0
    4.4678   -0.5515    9.0597 C   0  0  0  0  0  0  0  0  0  0  0  0
    3.9746    0.6064    6.8652 C   0  0  0  0  0  0  0  0  0  0  0  0
    3.3347   -0.4037    5.8667 C   0  0  2  0  0  0  0  0  0  0  0  0
    3.5204   -0.1011    4.3755 C   0  0  0  0  0  0  0  0  0  0  0  0
    2.7423    1.1055    3.8666 C   0  0  2  0  0  0  0  0  0  0  0  0
    3.4168    2.3061    4.1446 O   0  0  0  0  0  0  0  0  0  0  0  0
    2.4500    3.2915    4.0908 C   0  0  0  0  0  0  0  0  0  0  0  0
    2.8453    4.3794    5.0882 C   0  0  0  0  0  0  0  0  0  0  0  0
    2.3315    3.8591    2.6654 C   0  0  0  0  0  0  0  0  0  0  0  0
    1.2308    2.7369    4.4567 O   0  0  0  0  0  0  0  0  0  0  0  0
    1.3285    1.3083    4.4440 C   0  0  1  0  0  0  0  0  0  0  0  0
    0.2216    0.8589    3.4849 C   0  0  0  0  0  0  0  0  0  0  0  0
   -0.8862    0.6742    4.3378 O   0  0  0  0  0  0  0  0  0  0  0  0
   -0.5694    0.5849    5.6339 C   0  0  0  0  0  0  0  0  0  0  0  0
   -1.4019    0.4721    6.5378 O   0  0  0  0  0  0  0  0  0  0  0  0
    0.9593    0.7029    5.8511 C   0  0  2  0  0  0  0  0  0  0  0  0
    0.9604    1.8573    6.9008 C   0  0  0  0  0  0  0  0  0  0  0  0
    1.8619   -0.6361    6.3050 C   0  0  1  0  0  0  0  0  0  0  0  0
   -0.0568   -8.1648    6.5666 H   0  0  0  0  0  0  0  0  0  0  0  0
    0.2226   -9.6845    5.6908 H   0  0  0  0  0  0  0  0  0  0  0  0
   -1.1680   -8.6602    5.2676 H   0  0  0  0  0  0  0  0  0  0  0  0
    0.7110   -8.3838    3.5936 H   0  0  0  0  0  0  0  0  0  0  0  0
    2.8524   -6.9473    3.4664 H   0  0  0  0  0  0  0  0  0  0  0  0
    3.6897   -6.3890    6.3061 H   0  0  0  0  0  0  0  0  0  0  0  0
    4.6472   -6.9995    5.0374 H   0  0  0  0  0  0  0  0  0  0  0  0
    5.7284   -3.3926    5.8597 H   0  0  0  0  0  0  0  0  0  0  0  0
    6.4518   -4.9638    5.6299 H   0  0  0  0  0  0  0  0  0  0  0  0
    5.3356   -4.7578    6.9021 H   0  0  0  0  0  0  0  0  0  0  0  0
    5.4616   -3.9895    3.1766 H   0  0  0  0  0  0  0  0  0  0  0  0
    4.5393   -5.4429    2.7563 H   0  0  0  0  0  0  0  0  0  0  0  0
    6.0181   -5.5957    3.6155 H   0  0  0  0  0  0  0  0  0  0  0  0
    3.7903   -2.8137    4.7842 H   0  0  0  0  0  0  0  0  0  0  0  0
    2.1439   -2.7709    3.1419 H   0  0  0  0  0  0  0  0  0  0  0  0
    3.1980   -3.8912    2.5981 H   0  0  0  0  0  0  0  0  0  0  0  0
    0.4194   -4.2776    3.3341 H   0  0  0  0  0  0  0  0  0  0  0  0
    2.2446   -5.9594    2.0404 H   0  0  0  0  0  0  0  0  0  0  0  0
    0.1546   -4.5920    5.8502 H   0  0  0  0  0  0  0  0  0  0  0  0
    1.9819   -6.2834    6.9762 H   0  0  0  0  0  0  0  0  0  0  0  0
    2.3740   -3.6348    8.2914 H   0  0  0  0  0  0  0  0  0  0  0  0
    3.8373   -3.1751    7.4300 H   0  0  0  0  0  0  0  0  0  0  0  0
    3.3308   -4.8032    7.5411 H   0  0  0  0  0  0  0  0  0  0  0  0
    0.6251   -1.9747    4.0106 H   0  0  0  0  0  0  0  0  0  0  0  0
   -0.5761   -1.6060    7.3677 H   0  0  0  0  0  0  0  0  0  0  0  0
    0.6096   -3.8715    8.3385 H   0  0  0  0  0  0  0  0  0  0  0  0
    0.3410   -0.3947    8.9302 H   0  0  0  0  0  0  0  0  0  0  0  0
    1.3508   -1.7146    9.5054 H   0  0  0  0  0  0  0  0  0  0  0  0
    2.7593   -1.5407    7.9157 H   0  0  0  0  0  0  0  0  0  0  0  0
    3.7749    1.6154    9.9543 H   0  0  0  0  0  0  0  0  0  0  0  0
    2.0841    1.3469    9.6554 H   0  0  0  0  0  0  0  0  0  0  0  0
    3.0475    2.4191    8.6233 H   0  0  0  0  0  0  0  0  0  0  0  0
    5.3130    0.0806    9.3309 H   0  0  0  0  0  0  0  0  0  0  0  0
    4.8792   -1.3807    8.4847 H   0  0  0  0  0  0  0  0  0  0  0  0
    4.0501   -0.9556    9.9823 H   0  0  0  0  0  0  0  0  0  0  0  0
    3.7681    1.6305    6.5764 H   0  0  0  0  0  0  0  0  0  0  0  0
    5.0604    0.5267    6.8415 H   0  0  0  0  0  0  0  0  0  0  0  0
    3.9081   -1.3044    6.0805 H   0  0  0  0  0  0  0  0  0  0  0  0
    4.5795    0.0201    4.1445 H   0  0  0  0  0  0  0  0  0  0  0  0
    3.2006   -0.9618    3.7972 H   0  0  0  0  0  0  0  0  0  0  0  0
    2.6743    1.0254    2.7821 H   0  0  0  0  0  0  0  0  0  0  0  0
    3.1036    3.9413    6.0523 H   0  0  0  0  0  0  0  0  0  0  0  0
    2.0154    5.0762    5.2195 H   0  0  0  0  0  0  0  0  0  0  0  0
    3.7190    4.9192    4.7167 H   0  0  0  0  0  0  0  0  0  0  0  0
    2.0147    3.0989    1.9496 H   0  0  0  0  0  0  0  0  0  0  0  0
    3.2887    4.2699    2.3414 H   0  0  0  0  0  0  0  0  0  0  0  0
    1.5915    4.6642    2.6542 H   0  0  0  0  0  0  0  0  0  0  0  0
    0.0238    1.5888    2.6975 H   0  0  0  0  0  0  0  0  0  0  0  0
    0.4694   -0.0842    3.0056 H   0  0  0  0  0  0  0  0  0  0  0  0
    1.8872    2.4026    6.9117 H   0  0  0  0  0  0  0  0  0  0  0  0
    0.7127    1.5268    7.9043 H   0  0  0  0  0  0  0  0  0  0  0  0
    0.2205    2.6369    6.6852 H   0  0  0  0  0  0  0  0  0  0  0  0
  1  2  1  0
  1 46  1  0
  1 47  1  0
  1 48  1  0
  2 14  1  0
  2  3  1  0
  2 49  1  6
  3  4  1  0
  4 13  1  0
  4  5  1  0
  4 50  1  6
  5  6  1  0
  5 51  1  0
  5 52  1  0
  6  7  1  0
  6  8  1  0
  6  9  1  0
  7 53  1  0
  7 54  1  0
  7 55  1  0
  8 56  1  0
  8 57  1  0
  8 58  1  0
  9 17  1  0
  9 10  1  0
  9 59  1  6
 10 11  1  0
 10 60  1  0
 10 61  1  0
 11 12  1  0
 11 13  1  0
 11 62  1  6
 12 63  1  0
 13 14  1  6
 13 15  1  0
 15 16  1  0
 15 17  1  0
 15 64  1  6
 16 65  1  0
 17 18  1  1
 17 19  1  0
 18 66  1  0
 18 67  1  0
 18 68  1  0
 19 45  1  0
 19 20  1  6
 19 22  1  0
 20 21  2  0
 20 69  1  0
 22 23  1  0
 22 24  1  0
 22 70  1  6
 23 71  1  0
 24 25  1  0
 24 72  1  0
 24 73  1  0
 25 45  1  0
 25 26  1  0
 25 74  1  6
 26 27  1  0
 26 28  1  0
 26 29  1  0
 27 75  1  0
 27 76  1  0
 27 77  1  0
 28 78  1  0
 28 79  1  0
 28 80  1  0
 29 30  1  0
 29 81  1  0
 29 82  1  0
 30 45  1  0
 30 31  1  0
 30 83  1  6
 31 32  1  0
 31 84  1  0
 31 85  1  0
 32 38  1  0
 32 33  1  0
 32 86  1  6
 33 34  1  0
 34 35  1  0
 34 36  1  0
 34 37  1  0
 35 87  1  0
 35 88  1  0
 35 89  1  0
 36 90  1  0
 36 91  1  0
 36 92  1  0
 38 37  1  1
 38 43  1  0
 38 39  1  0
 39 40  1  0
 39 93  1  0
 39 94  1  0
 40 41  1  0
 41 42  2  0
 41 43  1  0
 43 44  1  1
 45 43  1  1
 44 95  1  0
 44 96  1  0
 44 97  1  0
M  END
>  <i_m_ct_stereo_status>  (159) 
1

>  <s_m_source_file>  (159) 
/var/tmp/pbs.5076255.sched01/tmp9vbryffn/46pprzbbw9.sdf

>  <i_m_source_file_index>  (159) 
24

>  <i_lp_mmshare_version>  (159) 
48012

>  <i_f3d_flags>  (159) 
0

>  <s_epik_input>  (159) 
W0NIM11bQ0BASF0oTzEpT1tDQEBIXShbQ0BdMTIzKVtDSDJdQyhbQ0gzXSkoW0NIM10pW0NAQEhdKFtDSDJdW0NASF0yW09IXSlbQ0BdKFtDSDNdKShbQ0BASF0zW09IXSlbQ0BAXTQoW0NIXT1PKVtDQEBIXShbT0hdKVtDSDJdW0NASF0oQyhbQ0gzXSkoW0NIM10pW0NIMl01KVtDQEBdNChbQ0BdNihbQ0gzXSlDKD1PKU9bQ0gyXTcpW0NASF01W0NIMl1bQ0BASF0oW0NAXTY3OClPQyhPOCkoW0NIM10pW0NIM10=

>  <s_epik_cmdline>  (159) 
J2VwaWtfcHl0aG9uJywgJy1waHQnLCAnMi4wJywgJy1waCcsICc3LjAnLCAnLXRuJywgJzgnLCAnLW1hJywgJzIwMCcsICctaW1hZScsICc8aW5maWxlLm1hZT4nLCAnLW9tYWUnLCAnPG91dGZpbGUubWFlPic=

>  <r_lp_tautomer_probability>  (159) 
1

>  <r_epik_Ionization_Penalty>  (159) 
1.663e-07

>  <r_epik_Ionization_Penalty_Charging>  (159) 
0

>  <r_epik_Ionization_Penalty_Neutral>  (159) 
1.663e-07

>  <r_epik_State_Penalty>  (159) 
-0

>  <r_epik_Charging_Adjusted_Penalty>  (159) 
0

>  <i_epik_Tot_Q>  (159) 
0

>  <i_epik_Tot_abs_Q>  (159) 
0

>  <s_epik_Chemistry_Notes>  (159) 
This compound has an ester and may undergo hydrolysis at high or low pH. This compound contains an acetal/aminal-like group ( X-CH(R)-Y where X, Y are N, S, or O) that may be acid/base labile, releasing an aldehyde.

>  <s_lp_Force_Field>  (159) 
OPLS3e

>  <r_lp_Energy>  (159) 
142.689

>  <b_lp_Chiralities_Consistent>  (159) 
1

>  <s_lp_Variant>  (159) 
38:0-1

>  <s_i_glide_gridfile>  (159) 
pfpi4k_grid

>  <i_i_glide_lignum>  (159) 
24

>  <i_i_glide_rotatable_bonds>  (159) 
5

>  <r_i_docking_score>  (159) 
-2.651

>  <r_i_glide_ligand_efficiency>  (159) 
-0.0589112

>  <r_i_glide_ligand_efficiency_sa>  (159) 
-0.209541

>  <r_i_glide_ligand_efficiency_ln>  (159) 
-0.551527

>  <r_i_glide_gscore>  (159) 
-2.651

>  <r_i_glide_lipo>  (159) 
-0.00825395

>  <r_i_glide_hbond>  (159) 
-0.149814

>  <r_i_glide_metal>  (159) 
-0

>  <r_i_glide_rewards>  (159) 
-0.00589544

>  <r_i_glide_evdw>  (159) 
-26.6432

>  <r_i_glide_ecoul>  (159) 
-7.66086

>  <r_i_glide_erotb>  (159) 
0.052837

>  <r_i_glide_esite>  (159) 
-0.0585882

>  <r_i_glide_emodel>  (159) 
-38.7165

>  <r_i_glide_energy>  (159) 
-34.3041

>  <r_i_glide_einternal>  (159) 
3.42258

>  <r_i_glide_intrahb_reward>  (159) 
-0

>  <i_i_glide_confnum>  (159) 
3

>  <i_i_glide_posenum>  (159) 
31

>  <r_i_glide_eff_state_penalty>  (159) 
0

>  <ligand_id>  (159) 
38

>  <original_smiles>  (159) 
CC1OC2CC(C)(C)C3CC(O)C2(O1)C(O)C3(C)C1(C=O)C(O)CC2C(C)(C)CC3CC4OC(C)(C)OC45COC(=O)C5(C)C321

>  <smiles>  (159) 
[H]OC1([H])C([H])([H])C2([H])C(C([H])([H])[H])(C([H])([H])[H])C([H])([H])C3([H])OC([H])(C([H])([H])[H])OC13C([H])(O[H])C2(C([H])([H])[H])C1(C([H])=O)C([H])(O[H])C([H])([H])C2([H])C(C([H])([H])[H])(C([H])([H])[H])C([H])([H])C3([H])C([H])([H])C4([H])OC(C([H])([H])[H])(C([H])([H])[H])OC45C([H])([H])OC(=O)C5(C([H])([H])[H])C321

$$$$
39:0:0
     RDKit          3D

 19 20  0  0  1  0  0  0  0  0999 V2000
   -9.5310   -4.7369   -5.9296 O   0  0  0  0  0  0  0  0  0  0  0  0
   -8.4274   -5.1833   -6.2372 C   0  0  0  0  0  0  0  0  0  0  0  0
   -7.1927   -4.4411   -5.7114 C   0  0  0  0  0  0  0  0  0  0  0  0
   -6.3229   -5.1927   -4.6906 C   0  0  0  0  0  0  0  0  0  0  0  0
   -6.4378   -6.7167   -4.7438 C   0  0  0  0  0  0  0  0  0  0  0  0
   -6.3287   -7.2719   -6.0882 N   0  0  0  0  0  0  0  0  0  0  0  0
   -5.4848   -8.3380   -6.3346 C   0  0  0  0  0  0  0  0  0  0  0  0
   -5.7103   -9.0214   -7.4558 C   0  0  0  0  0  0  0  0  0  0  0  0
   -7.0367   -8.3567   -8.3726 S   0  0  0  0  0  0  0  0  0  0  0  0
   -7.2907   -7.0727   -7.0916 C   0  0  0  0  0  0  0  0  0  0  0  0
   -8.2438   -6.1929   -7.1716 N   0  0  0  0  0  0  0  0  0  0  0  0
   -6.5918   -4.1510   -6.5732 H   0  0  0  0  0  0  0  0  0  0  0  0
   -7.5337   -3.5070   -5.2627 H   0  0  0  0  0  0  0  0  0  0  0  0
   -5.2859   -4.8926   -4.8467 H   0  0  0  0  0  0  0  0  0  0  0  0
   -6.5851   -4.8563   -3.6877 H   0  0  0  0  0  0  0  0  0  0  0  0
   -5.6760   -7.1400   -4.0974 H   0  0  0  0  0  0  0  0  0  0  0  0
   -7.3821   -7.0480   -4.3187 H   0  0  0  0  0  0  0  0  0  0  0  0
   -4.7234   -8.5556   -5.6012 H   0  0  0  0  0  0  0  0  0  0  0  0
   -5.1735   -9.8920   -7.7938 H   0  0  0  0  0  0  0  0  0  0  0  0
  1  2  2  0
  2 11  1  0
  2  3  1  0
  3  4  1  0
  3 12  1  0
  3 13  1  0
  4  5  1  0
  4 14  1  0
  4 15  1  0
  5  6  1  0
  5 16  1  0
  5 17  1  0
  6 10  1  0
  6  7  1  0
  7  8  2  0
  7 18  1  0
  8  9  1  0
  8 19  1  0
  9 10  1  0
 10 11  2  0
M  END
>  <i_m_ct_stereo_status>  (160) 
1

>  <s_m_source_file>  (160) 
/var/tmp/pbs.5076255.sched01/tmp9vbryffn/46pprzbbw9.sdf

>  <i_m_source_file_index>  (160) 
25

>  <i_lp_mmshare_version>  (160) 
48012

>  <i_f3d_flags>  (160) 
0

>  <s_epik_input>  (160) 
W0NIMl0xW0NIMl1bQ0gyXUMoPU8pTj1DKE4xMilTW0NIXT1bQ0hdMg==

>  <s_epik_cmdline>  (160) 
J2VwaWtfcHl0aG9uJywgJy1waHQnLCAnMi4wJywgJy1waCcsICc3LjAnLCAnLXRuJywgJzgnLCAnLW1hJywgJzIwMCcsICctaW1hZScsICc8aW5maWxlLm1hZT4nLCAnLW9tYWUnLCAnPG91dGZpbGUubWFlPic=

>  <r_lp_tautomer_probability>  (160) 
1

>  <r_epik_Ionization_Penalty>  (160) 
0.000405004

>  <r_epik_Ionization_Penalty_Charging>  (160) 
0.000404877

>  <r_epik_Ionization_Penalty_Neutral>  (160) 
1.26816e-07

>  <r_epik_State_Penalty>  (160) 
-0

>  <r_epik_Charging_Adjusted_Penalty>  (160) 
0.000404877

>  <i_epik_Tot_Q>  (160) 
0

>  <i_epik_Tot_abs_Q>  (160) 
0

>  <s_lp_Force_Field>  (160) 
OPLS3e

>  <r_lp_Energy>  (160) 
9.9464

>  <b_lp_Chiralities_Consistent>  (160) 
1

>  <s_lp_Variant>  (160) 
39:0-1

>  <s_i_glide_gridfile>  (160) 
pfpi4k_grid

>  <i_i_glide_lignum>  (160) 
25

>  <i_i_glide_rotatable_bonds>  (160) 
0

>  <r_i_docking_score>  (160) 
-5.99028

>  <r_i_glide_ligand_efficiency>  (160) 
-0.544571

>  <r_i_glide_ligand_efficiency_sa>  (160) 
-1.21112

>  <r_i_glide_ligand_efficiency_ln>  (160) 
-1.76294

>  <r_i_glide_gscore>  (160) 
-5.99028

>  <r_i_glide_lipo>  (160) 
-1.5943

>  <r_i_glide_hbond>  (160) 
0

>  <r_i_glide_metal>  (160) 
-0

>  <r_i_glide_rewards>  (160) 
-3.25677

>  <r_i_glide_evdw>  (160) 
-21.9488

>  <r_i_glide_ecoul>  (160) 
-0.278444

>  <r_i_glide_erotb>  (160) 
0

>  <r_i_glide_esite>  (160) 
0

>  <r_i_glide_emodel>  (160) 
-30.1641

>  <r_i_glide_energy>  (160) 
-22.2273

>  <r_i_glide_einternal>  (160) 
0

>  <r_i_glide_intrahb_reward>  (160) 
-0

>  <i_i_glide_confnum>  (160) 
2

>  <i_i_glide_posenum>  (160) 
28

>  <r_i_glide_eff_state_penalty>  (160) 
0

>  <ligand_id>  (160) 
39

>  <original_smiles>  (160) 
O=C1CCCN2C=CSC2=N1

>  <smiles>  (160) 
[H]C1=C([H])N2C(=NC(=O)C([H])([H])C([H])([H])C2([H])[H])S1

$$$$
39:0:1
     RDKit          3D

 19 20  0  0  1  0  0  0  0  0999 V2000
  -10.1273   -6.7219   -8.2903 O   0  0  0  0  0  0  0  0  0  0  0  0
   -9.0064   -6.3795   -7.9236 C   0  0  0  0  0  0  0  0  0  0  0  0
   -8.6863   -4.8798   -7.9089 C   0  0  0  0  0  0  0  0  0  0  0  0
   -8.5238   -4.2440   -6.5161 C   0  0  0  0  0  0  0  0  0  0  0  0
   -8.1154   -5.2147   -5.4055 C   0  0  0  0  0  0  0  0  0  0  0  0
   -6.9968   -6.0836   -5.7672 N   0  0  0  0  0  0  0  0  0  0  0  0
   -5.9198   -6.2388   -4.9122 C   0  0  0  0  0  0  0  0  0  0  0  0
   -5.1480   -7.3032   -5.1210 C   0  0  0  0  0  0  0  0  0  0  0  0
   -5.6960   -8.2524   -6.4785 S   0  0  0  0  0  0  0  0  0  0  0  0
   -7.0884   -7.0904   -6.7434 C   0  0  0  0  0  0  0  0  0  0  0  0
   -7.9741   -7.2727   -7.6764 N   0  0  0  0  0  0  0  0  0  0  0  0
   -7.7895   -4.7193   -8.5108 H   0  0  0  0  0  0  0  0  0  0  0  0
   -9.4913   -4.3600   -8.4314 H   0  0  0  0  0  0  0  0  0  0  0  0
   -7.7865   -3.4612   -6.6061 H   0  0  0  0  0  0  0  0  0  0  0  0
   -9.4500   -3.7491   -6.2271 H   0  0  0  0  0  0  0  0  0  0  0  0
   -7.8686   -4.6350   -4.5193 H   0  0  0  0  0  0  0  0  0  0  0  0
   -8.9633   -5.8364   -5.1218 H   0  0  0  0  0  0  0  0  0  0  0  0
   -5.8029   -5.5055   -4.1270 H   0  0  0  0  0  0  0  0  0  0  0  0
   -4.2948   -7.6086   -4.5360 H   0  0  0  0  0  0  0  0  0  0  0  0
  1  2  2  0
  2 11  1  0
  2  3  1  0
  3  4  1  0
  3 12  1  0
  3 13  1  0
  4  5  1  0
  4 14  1  0
  4 15  1  0
  5  6  1  0
  5 16  1  0
  5 17  1  0
  6 10  1  0
  6  7  1  0
  7  8  2  0
  7 18  1  0
  8  9  1  0
  8 19  1  0
  9 10  1  0
 10 11  2  0
M  END
>  <i_m_ct_stereo_status>  (161) 
1

>  <s_m_source_file>  (161) 
/var/tmp/pbs.5076255.sched01/tmp9vbryffn/46pprzbbw9.sdf

>  <i_m_source_file_index>  (161) 
25

>  <i_lp_mmshare_version>  (161) 
48012

>  <i_f3d_flags>  (161) 
0

>  <s_epik_input>  (161) 
W0NIMl0xW0NIMl1bQ0gyXUMoPU8pTj1DKE4xMilTW0NIXT1bQ0hdMg==

>  <s_epik_cmdline>  (161) 
J2VwaWtfcHl0aG9uJywgJy1waHQnLCAnMi4wJywgJy1waCcsICc3LjAnLCAnLXRuJywgJzgnLCAnLW1hJywgJzIwMCcsICctaW1hZScsICc8aW5maWxlLm1hZT4nLCAnLW9tYWUnLCAnPG91dGZpbGUubWFlPic=

>  <r_lp_tautomer_probability>  (161) 
1

>  <r_epik_Ionization_Penalty>  (161) 
0.000405004

>  <r_epik_Ionization_Penalty_Charging>  (161) 
0.000404877

>  <r_epik_Ionization_Penalty_Neutral>  (161) 
1.26816e-07

>  <r_epik_State_Penalty>  (161) 
-0

>  <r_epik_Charging_Adjusted_Penalty>  (161) 
0.000404877

>  <i_epik_Tot_Q>  (161) 
0

>  <i_epik_Tot_abs_Q>  (161) 
0

>  <s_lp_Force_Field>  (161) 
OPLS3e

>  <r_lp_Energy>  (161) 
9.9464

>  <b_lp_Chiralities_Consistent>  (161) 
1

>  <s_lp_Variant>  (161) 
39:0-1

>  <s_i_glide_gridfile>  (161) 
pfpi4k_grid

>  <i_i_glide_lignum>  (161) 
25

>  <i_i_glide_rotatable_bonds>  (161) 
0

>  <r_i_docking_score>  (161) 
-5.79738

>  <r_i_glide_ligand_efficiency>  (161) 
-0.527035

>  <r_i_glide_ligand_efficiency_sa>  (161) 
-1.17211

>  <r_i_glide_ligand_efficiency_ln>  (161) 
-1.70617

>  <r_i_glide_gscore>  (161) 
-5.79738

>  <r_i_glide_lipo>  (161) 
-1.65423

>  <r_i_glide_hbond>  (161) 
0

>  <r_i_glide_metal>  (161) 
-0

>  <r_i_glide_rewards>  (161) 
-3.08749

>  <r_i_glide_evdw>  (161) 
-22.9345

>  <r_i_glide_ecoul>  (161) 
0.607043

>  <r_i_glide_erotb>  (161) 
0

>  <r_i_glide_esite>  (161) 
0

>  <r_i_glide_emodel>  (161) 
-29.9689

>  <r_i_glide_energy>  (161) 
-22.3274

>  <r_i_glide_einternal>  (161) 
0

>  <r_i_glide_intrahb_reward>  (161) 
-0

>  <i_i_glide_confnum>  (161) 
2

>  <i_i_glide_posenum>  (161) 
9

>  <r_i_glide_eff_state_penalty>  (161) 
0

>  <ligand_id>  (161) 
39

>  <original_smiles>  (161) 
O=C1CCCN2C=CSC2=N1

>  <smiles>  (161) 
[H]C1=C([H])N2C(=NC(=O)C([H])([H])C([H])([H])C2([H])[H])S1

$$$$
39:0:2
     RDKit          3D

 19 20  0  0  1  0  0  0  0  0999 V2000
   -8.9050   -8.4888   -8.2575 O   0  0  0  0  0  0  0  0  0  0  0  0
   -8.2926   -7.4717   -7.9402 C   0  0  0  0  0  0  0  0  0  0  0  0
   -8.3893   -6.2560   -8.8701 C   0  0  0  0  0  0  0  0  0  0  0  0
   -9.1836   -5.0542   -8.3182 C   0  0  0  0  0  0  0  0  0  0  0  0
   -9.2757   -4.9762   -6.7940 C   0  0  0  0  0  0  0  0  0  0  0  0
   -7.9888   -5.1551   -6.1274 N   0  0  0  0  0  0  0  0  0  0  0  0
   -7.5853   -4.2725   -5.1423 C   0  0  0  0  0  0  0  0  0  0  0  0
   -6.6150   -4.6841   -4.3351 C   0  0  0  0  0  0  0  0  0  0  0  0
   -6.0505   -6.2820   -4.7564 S   0  0  0  0  0  0  0  0  0  0  0  0
   -7.2705   -6.3625   -6.1236 C   0  0  0  0  0  0  0  0  0  0  0  0
   -7.4008   -7.4143   -6.8788 N   0  0  0  0  0  0  0  0  0  0  0  0
   -7.3883   -5.9494   -9.1357 H   0  0  0  0  0  0  0  0  0  0  0  0
   -8.8404   -6.5811   -9.8121 H   0  0  0  0  0  0  0  0  0  0  0  0
   -8.7156   -4.1500   -8.7045 H   0  0  0  0  0  0  0  0  0  0  0  0
  -10.1936   -5.0794   -8.7245 H   0  0  0  0  0  0  0  0  0  0  0  0
   -9.7053   -4.0155   -6.5275 H   0  0  0  0  0  0  0  0  0  0  0  0
   -9.9829   -5.7157   -6.4235 H   0  0  0  0  0  0  0  0  0  0  0  0
   -8.1014   -3.3241   -5.0931 H   0  0  0  0  0  0  0  0  0  0  0  0
   -6.2023   -4.1416   -3.5018 H   0  0  0  0  0  0  0  0  0  0  0  0
  1  2  2  0
  2 11  1  0
  2  3  1  0
  3  4  1  0
  3 12  1  0
  3 13  1  0
  4  5  1  0
  4 14  1  0
  4 15  1  0
  5  6  1  0
  5 16  1  0
  5 17  1  0
  6 10  1  0
  6  7  1  0
  7  8  2  0
  7 18  1  0
  8  9  1  0
  8 19  1  0
  9 10  1  0
 10 11  2  0
M  END
>  <i_m_ct_stereo_status>  (162) 
1

>  <s_m_source_file>  (162) 
/var/tmp/pbs.5076255.sched01/tmp9vbryffn/46pprzbbw9.sdf

>  <i_m_source_file_index>  (162) 
25

>  <i_lp_mmshare_version>  (162) 
48012

>  <i_f3d_flags>  (162) 
0

>  <s_epik_input>  (162) 
W0NIMl0xW0NIMl1bQ0gyXUMoPU8pTj1DKE4xMilTW0NIXT1bQ0hdMg==

>  <s_epik_cmdline>  (162) 
J2VwaWtfcHl0aG9uJywgJy1waHQnLCAnMi4wJywgJy1waCcsICc3LjAnLCAnLXRuJywgJzgnLCAnLW1hJywgJzIwMCcsICctaW1hZScsICc8aW5maWxlLm1hZT4nLCAnLW9tYWUnLCAnPG91dGZpbGUubWFlPic=

>  <r_lp_tautomer_probability>  (162) 
1

>  <r_epik_Ionization_Penalty>  (162) 
0.000405004

>  <r_epik_Ionization_Penalty_Charging>  (162) 
0.000404877

>  <r_epik_Ionization_Penalty_Neutral>  (162) 
1.26816e-07

>  <r_epik_State_Penalty>  (162) 
-0

>  <r_epik_Charging_Adjusted_Penalty>  (162) 
0.000404877

>  <i_epik_Tot_Q>  (162) 
0

>  <i_epik_Tot_abs_Q>  (162) 
0

>  <s_lp_Force_Field>  (162) 
OPLS3e

>  <r_lp_Energy>  (162) 
9.9464

>  <b_lp_Chiralities_Consistent>  (162) 
1

>  <s_lp_Variant>  (162) 
39:0-1

>  <s_i_glide_gridfile>  (162) 
pfpi4k_grid

>  <i_i_glide_lignum>  (162) 
25

>  <i_i_glide_rotatable_bonds>  (162) 
0

>  <r_i_docking_score>  (162) 
-5.72511

>  <r_i_glide_ligand_efficiency>  (162) 
-0.520465

>  <r_i_glide_ligand_efficiency_sa>  (162) 
-1.1575

>  <r_i_glide_ligand_efficiency_ln>  (162) 
-1.6849

>  <r_i_glide_gscore>  (162) 
-5.72511

>  <r_i_glide_lipo>  (162) 
-1.44277

>  <r_i_glide_hbond>  (162) 
0

>  <r_i_glide_metal>  (162) 
-0

>  <r_i_glide_rewards>  (162) 
-3.1978

>  <r_i_glide_evdw>  (162) 
-22.7649

>  <r_i_glide_ecoul>  (162) 
0.358022

>  <r_i_glide_erotb>  (162) 
0

>  <r_i_glide_esite>  (162) 
0

>  <r_i_glide_emodel>  (162) 
-29.9827

>  <r_i_glide_energy>  (162) 
-22.4069

>  <r_i_glide_einternal>  (162) 
0

>  <r_i_glide_intrahb_reward>  (162) 
-0

>  <i_i_glide_confnum>  (162) 
2

>  <i_i_glide_posenum>  (162) 
26

>  <r_i_glide_eff_state_penalty>  (162) 
0

>  <ligand_id>  (162) 
39

>  <original_smiles>  (162) 
O=C1CCCN2C=CSC2=N1

>  <smiles>  (162) 
[H]C1=C([H])N2C(=NC(=O)C([H])([H])C([H])([H])C2([H])[H])S1

$$$$
40:0:0
     RDKit          3D

 44 49  0  0  1  0  0  0  0  0999 V2000
    5.5642   -6.0965   -0.0624 C   0  0  0  0  0  0  0  0  0  0  0  0
    5.1941   -4.6793    0.2868 C   0  0  1  0  0  0  0  0  0  0  0  0
    5.2952   -4.4412    1.8068 C   0  0  0  0  0  0  0  0  0  0  0  0
    6.2110   -4.5351    2.6202 O   0  0  0  0  0  0  0  0  0  0  0  0
    3.7761   -4.1268    1.9197 C   0  0  1  0  0  0  0  0  0  0  0  0
    3.2906   -2.7810    2.5492 C   0  0  0  0  0  0  0  0  0  0  0  0
    3.9389   -1.3967    2.1844 C   0  0  0  0  0  0  0  0  0  0  0  0
    3.5265   -0.7217    0.8397 C   0  0  0  0  0  0  0  0  0  0  0  0
    4.4186   -1.0539   -0.3976 C   0  0  2  0  0  0  0  0  0  0  0  0
    3.6473   -1.2672   -1.7286 C   0  0  1  0  0  0  0  0  0  0  0  0
    4.7389   -1.4178   -2.8332 C   0  0  0  0  0  0  0  0  0  0  0  0
    5.0910   -2.8770   -3.0500 C   0  0  0  0  0  0  0  0  0  0  0  0
    5.8251   -3.6391   -2.1934 C   0  0  0  0  0  0  0  0  0  0  0  0
    5.9121   -3.5366   -0.6146 C   0  0  1  0  0  0  0  0  0  0  0  0
    4.9835   -2.4299   -0.1218 C   0  0  2  0  0  0  0  0  0  0  0  0
    3.7235   -3.2592   -0.5477 C   0  0  2  0  0  0  0  0  0  0  0  0
    2.8085   -2.5828   -1.5362 C   0  0  2  0  0  0  0  0  0  0  0  0
    2.5807   -3.2357   -2.9526 C   0  0  0  0  0  0  0  0  0  0  0  0
    3.9102   -3.5581   -3.7520 C   0  0  0  0  0  0  0  0  0  0  0  0
    3.6644   -4.3813    0.4112 C   0  0  1  0  0  0  0  0  0  0  0  0
    5.0029   -6.3732   -0.9582 H   0  0  0  0  0  0  0  0  0  0  0  0
    5.3039   -6.8158    0.7104 H   0  0  0  0  0  0  0  0  0  0  0  0
    6.6377   -6.1666   -0.2154 H   0  0  0  0  0  0  0  0  0  0  0  0
    3.3094   -4.9736    2.4325 H   0  0  0  0  0  0  0  0  0  0  0  0
    2.2269   -2.6774    2.3238 H   0  0  0  0  0  0  0  0  0  0  0  0
    3.3266   -2.8848    3.6417 H   0  0  0  0  0  0  0  0  0  0  0  0
    3.5703   -0.7183    2.9520 H   0  0  0  0  0  0  0  0  0  0  0  0
    5.0222   -1.3989    2.3244 H   0  0  0  0  0  0  0  0  0  0  0  0
    2.4775   -0.9269    0.6360 H   0  0  0  0  0  0  0  0  0  0  0  0
    3.5726    0.3606    0.9681 H   0  0  0  0  0  0  0  0  0  0  0  0
    5.1619   -0.2433   -0.4554 H   0  0  0  0  0  0  0  0  0  0  0  0
    3.0230   -0.4286   -2.0176 H   0  0  0  0  0  0  0  0  0  0  0  0
    4.3741   -1.0269   -3.7741 H   0  0  0  0  0  0  0  0  0  0  0  0
    5.6301   -0.8655   -2.5640 H   0  0  0  0  0  0  0  0  0  0  0  0
    5.8472   -4.6469   -2.4693 H   0  0  0  0  0  0  0  0  0  0  0  0
    6.9659   -3.4476   -0.3321 H   0  0  0  0  0  0  0  0  0  0  0  0
    5.7913   -1.9609   -0.6853 H   0  0  0  0  0  0  0  0  0  0  0  0
    3.7864   -4.0441   -1.2915 H   0  0  0  0  0  0  0  0  0  0  0  0
    1.8814   -2.6674   -0.9716 H   0  0  0  0  0  0  0  0  0  0  0  0
    1.9341   -4.1070   -2.8396 H   0  0  0  0  0  0  0  0  0  0  0  0
    1.9946   -2.5313   -3.5383 H   0  0  0  0  0  0  0  0  0  0  0  0
    3.7970   -3.1623   -4.7508 H   0  0  0  0  0  0  0  0  0  0  0  0
    4.0633   -4.6410   -3.8614 H   0  0  0  0  0  0  0  0  0  0  0  0
    3.0145   -5.2302    0.1432 H   0  0  0  0  0  0  0  0  0  0  0  0
  2  1  1  1
  1 21  1  0
  1 22  1  0
  1 23  1  0
  2 14  1  0
  2 20  1  0
  2  3  1  0
  3  4  2  0
  3  5  1  0
  5 20  1  0
  5  6  1  0
  5 24  1  1
  6  7  1  0
  6 25  1  0
  6 26  1  0
  7  8  1  0
  7 27  1  0
  7 28  1  0
  8  9  1  0
  8 29  1  0
  8 30  1  0
  9 15  1  0
  9 10  1  0
  9 31  1  6
 10 17  1  0
 10 11  1  0
 10 32  1  6
 11 12  1  0
 11 33  1  0
 11 34  1  0
 12 19  1  0
 12 13  2  0
 13 14  1  0
 13 35  1  0
 14 15  1  0
 14 36  1  6
 15 16  1  0
 15 37  1  1
 16 17  1  0
 16 20  1  0
 16 38  1  6
 17 18  1  0
 17 39  1  1
 18 19  1  0
 18 40  1  0
 18 41  1  0
 19 42  1  0
 19 43  1  0
 20 44  1  1
M  END
>  <i_m_ct_stereo_status>  (163) 
1

>  <s_m_source_file>  (163) 
/var/tmp/pbs.5076255.sched01/tmp9vbryffn/46pprzbbw9.sdf

>  <i_m_source_file_index>  (163) 
26

>  <i_lp_mmshare_version>  (163) 
48012

>  <i_f3d_flags>  (163) 
0

>  <s_epik_input>  (163) 
W0NIM11bQ0BdMTJbQ0BASF0zW0NAQEhdNFtDQEhdNVtDQEBIXTZbQ0BASF0oW0NIMl1bQ0gyXUMoW0NIMl02KT1bQ0hdMylbQ0BIXTRbQ0BASF0yW0NAQEhdKEMxPU8pW0NIMl1bQ0gyXVtDSDJdNQ==

>  <s_epik_cmdline>  (163) 
J2VwaWtfcHl0aG9uJywgJy1waHQnLCAnMi4wJywgJy1waCcsICc3LjAnLCAnLXRuJywgJzgnLCAnLW1hJywgJzIwMCcsICctaW1hZScsICc8aW5maWxlLm1hZT4nLCAnLW9tYWUnLCAnPG91dGZpbGUubWFlPic=

>  <r_lp_tautomer_probability>  (163) 
1

>  <r_epik_Ionization_Penalty>  (163) 
2.2628e-14

>  <r_epik_Ionization_Penalty_Charging>  (163) 
0

>  <r_epik_Ionization_Penalty_Neutral>  (163) 
2.2628e-14

>  <r_epik_State_Penalty>  (163) 
-0

>  <r_epik_Charging_Adjusted_Penalty>  (163) 
0

>  <i_epik_Tot_Q>  (163) 
0

>  <i_epik_Tot_abs_Q>  (163) 
0

>  <s_lp_Force_Field>  (163) 
OPLS3e

>  <r_lp_Energy>  (163) 
219.798

>  <b_lp_Chiralities_Consistent>  (163) 
1

>  <s_lp_Variant>  (163) 
40:0-1

>  <s_i_glide_gridfile>  (163) 
pfpi4k_grid

>  <i_i_glide_lignum>  (163) 
26

>  <i_i_glide_rotatable_bonds>  (163) 
0

>  <r_i_docking_score>  (163) 
-2.97162

>  <r_i_glide_ligand_efficiency>  (163) 
-0.148581

>  <r_i_glide_ligand_efficiency_sa>  (163) 
-0.403311

>  <r_i_glide_ligand_efficiency_ln>  (163) 
-0.743699

>  <r_i_glide_gscore>  (163) 
-2.97162

>  <r_i_glide_lipo>  (163) 
-0.751294

>  <r_i_glide_hbond>  (163) 
0

>  <r_i_glide_metal>  (163) 
-0

>  <r_i_glide_rewards>  (163) 
-1.62702

>  <r_i_glide_evdw>  (163) 
-9.25566

>  <r_i_glide_ecoul>  (163) 
-0.870146

>  <r_i_glide_erotb>  (163) 
0

>  <r_i_glide_esite>  (163) 
0

>  <r_i_glide_emodel>  (163) 
-8.88018

>  <r_i_glide_energy>  (163) 
-10.1258

>  <r_i_glide_einternal>  (163) 
0

>  <r_i_glide_intrahb_reward>  (163) 
-0

>  <i_i_glide_confnum>  (163) 
2

>  <i_i_glide_posenum>  (163) 
18

>  <r_i_glide_eff_state_penalty>  (163) 
0

>  <ligand_id>  (163) 
40

>  <original_smiles>  (163) 
CC12C(=O)C3CCCC4C5CC6=CC1C4C(C5CC6)C32

>  <smiles>  (163) 
[H]C1=C2C([H])([H])C([H])([H])C3([H])C([H])(C2([H])[H])C2([H])C([H])([H])C([H])([H])C([H])([H])C4([H])C(=O)C5(C([H])([H])[H])C1([H])C2([H])C3([H])C45[H]

$$$$
40:0:1
     RDKit          3D

 44 49  0  0  1  0  0  0  0  0999 V2000
    6.1295   -0.3849    1.3923 C   0  0  0  0  0  0  0  0  0  0  0  0
    5.2926   -1.4433    0.7571 C   0  0  1  0  0  0  0  0  0  0  0  0
    5.5820   -1.5670   -0.7627 C   0  0  0  0  0  0  0  0  0  0  0  0
    6.5688   -1.8991   -1.3979 O   0  0  0  0  0  0  0  0  0  0  0  0
    4.1567   -1.0972   -1.1419 C   0  0  1  0  0  0  0  0  0  0  0  0
    3.3251   -1.9896   -2.1028 C   0  0  0  0  0  0  0  0  0  0  0  0
    3.2208   -3.5348   -1.8966 C   0  0  0  0  0  0  0  0  0  0  0  0
    2.2986   -4.0918   -0.7571 C   0  0  0  0  0  0  0  0  0  0  0  0
    3.0014   -4.3891    0.6119 C   0  0  2  0  0  0  0  0  0  0  0  0
    2.1795   -4.0621    1.8768 C   0  0  1  0  0  0  0  0  0  0  0  0
    3.0348   -4.4555    3.1158 C   0  0  0  0  0  0  0  0  0  0  0  0
    3.8759   -3.2979    3.6331 C   0  0  0  0  0  0  0  0  0  0  0  0
    5.0233   -2.8021    3.0562 C   0  0  0  0  0  0  0  0  0  0  0  0
    5.3092   -2.8462    1.5035 C   0  0  1  0  0  0  0  0  0  0  0  0
    4.1156   -3.3704    0.7030 C   0  0  2  0  0  0  0  0  0  0  0  0
    3.2123   -2.1527    1.0805 C   0  0  2  0  0  0  0  0  0  0  0  0
    1.9222   -2.5167    1.8242 C   0  0  2  0  0  0  0  0  0  0  0  0
    1.7516   -1.9489    3.2820 C   0  0  0  0  0  0  0  0  0  0  0  0
    2.9328   -2.2911    4.2735 C   0  0  0  0  0  0  0  0  0  0  0  0
    3.8262   -1.0202    0.3586 C   0  0  1  0  0  0  0  0  0  0  0  0
    5.6867    0.0029    2.3207 H   0  0  0  0  0  0  0  0  0  0  0  0
    6.1622    0.4480    0.6915 H   0  0  0  0  0  0  0  0  0  0  0  0
    7.1266   -0.7493    1.6389 H   0  0  0  0  0  0  0  0  0  0  0  0
    4.2125   -0.0784   -1.5164 H   0  0  0  0  0  0  0  0  0  0  0  0
    2.2937   -1.6455   -2.0604 H   0  0  0  0  0  0  0  0  0  0  0  0
    3.6116   -1.7875   -3.1447 H   0  0  0  0  0  0  0  0  0  0  0  0
    2.7157   -3.8286   -2.8130 H   0  0  0  0  0  0  0  0  0  0  0  0
    4.1949   -4.0343   -1.9228 H   0  0  0  0  0  0  0  0  0  0  0  0
    1.4554   -3.4030   -0.6817 H   0  0  0  0  0  0  0  0  0  0  0  0
    1.8220   -5.0167   -1.0721 H   0  0  0  0  0  0  0  0  0  0  0  0
    3.3215   -5.4413    0.5921 H   0  0  0  0  0  0  0  0  0  0  0  0
    1.2960   -4.6862    1.9264 H   0  0  0  0  0  0  0  0  0  0  0  0
    2.3468   -4.7508    3.9092 H   0  0  0  0  0  0  0  0  0  0  0  0
    3.6489   -5.3402    2.9122 H   0  0  0  0  0  0  0  0  0  0  0  0
    5.4150   -1.8969    3.4784 H   0  0  0  0  0  0  0  0  0  0  0  0
    6.2584   -3.3585    1.3132 H   0  0  0  0  0  0  0  0  0  0  0  0
    4.5197   -4.1963    1.2716 H   0  0  0  0  0  0  0  0  0  0  0  0
    3.4427   -1.5611    1.9554 H   0  0  0  0  0  0  0  0  0  0  0  0
    1.1018   -2.1738    1.2117 H   0  0  0  0  0  0  0  0  0  0  0  0
    1.5727   -0.8690    3.2463 H   0  0  0  0  0  0  0  0  0  0  0  0
    0.8281   -2.3708    3.6755 H   0  0  0  0  0  0  0  0  0  0  0  0
    2.5151   -2.7207    5.1852 H   0  0  0  0  0  0  0  0  0  0  0  0
    3.4666   -1.3833    4.5580 H   0  0  0  0  0  0  0  0  0  0  0  0
    3.5727   -0.0017    0.6781 H   0  0  0  0  0  0  0  0  0  0  0  0
  2  1  1  1
  1 21  1  0
  1 22  1  0
  1 23  1  0
  2 14  1  0
  2 20  1  0
  2  3  1  0
  3  4  2  0
  3  5  1  0
  5 20  1  0
  5  6  1  0
  5 24  1  6
  6  7  1  0
  6 25  1  0
  6 26  1  0
  7  8  1  0
  7 27  1  0
  7 28  1  0
  8  9  1  0
  8 29  1  0
  8 30  1  0
  9 15  1  0
  9 10  1  0
  9 31  1  6
 10 17  1  0
 10 11  1  0
 10 32  1  6
 11 12  1  0
 11 33  1  0
 11 34  1  0
 12 19  1  0
 12 13  2  0
 13 14  1  0
 13 35  1  0
 14 15  1  0
 14 36  1  1
 15 16  1  0
 15 37  1  6
 16 17  1  0
 16 20  1  0
 16 38  1  1
 17 18  1  0
 17 39  1  6
 18 19  1  0
 18 40  1  0
 18 41  1  0
 19 42  1  0
 19 43  1  0
 20 44  1  1
M  END
>  <i_m_ct_stereo_status>  (164) 
1

>  <s_m_source_file>  (164) 
/var/tmp/pbs.5076255.sched01/tmp9vbryffn/46pprzbbw9.sdf

>  <i_m_source_file_index>  (164) 
26

>  <i_lp_mmshare_version>  (164) 
48012

>  <i_f3d_flags>  (164) 
0

>  <s_epik_input>  (164) 
W0NIM11bQ0BdMTJbQ0BASF0zW0NAQEhdNFtDQEhdNVtDQEBIXTZbQ0BASF0oW0NIMl1bQ0gyXUMoW0NIMl02KT1bQ0hdMylbQ0BIXTRbQ0BASF0yW0NAQEhdKEMxPU8pW0NIMl1bQ0gyXVtDSDJdNQ==

>  <s_epik_cmdline>  (164) 
J2VwaWtfcHl0aG9uJywgJy1waHQnLCAnMi4wJywgJy1waCcsICc3LjAnLCAnLXRuJywgJzgnLCAnLW1hJywgJzIwMCcsICctaW1hZScsICc8aW5maWxlLm1hZT4nLCAnLW9tYWUnLCAnPG91dGZpbGUubWFlPic=

>  <r_lp_tautomer_probability>  (164) 
1

>  <r_epik_Ionization_Penalty>  (164) 
2.2628e-14

>  <r_epik_Ionization_Penalty_Charging>  (164) 
0

>  <r_epik_Ionization_Penalty_Neutral>  (164) 
2.2628e-14

>  <r_epik_State_Penalty>  (164) 
-0

>  <r_epik_Charging_Adjusted_Penalty>  (164) 
0

>  <i_epik_Tot_Q>  (164) 
0

>  <i_epik_Tot_abs_Q>  (164) 
0

>  <s_lp_Force_Field>  (164) 
OPLS3e

>  <r_lp_Energy>  (164) 
219.798

>  <b_lp_Chiralities_Consistent>  (164) 
1

>  <s_lp_Variant>  (164) 
40:0-1

>  <s_i_glide_gridfile>  (164) 
pfpi4k_grid

>  <i_i_glide_lignum>  (164) 
26

>  <i_i_glide_rotatable_bonds>  (164) 
0

>  <r_i_docking_score>  (164) 
-2.93286

>  <r_i_glide_ligand_efficiency>  (164) 
-0.146643

>  <r_i_glide_ligand_efficiency_sa>  (164) 
-0.39805

>  <r_i_glide_ligand_efficiency_ln>  (164) 
-0.733998

>  <r_i_glide_gscore>  (164) 
-2.93286

>  <r_i_glide_lipo>  (164) 
-0.228858

>  <r_i_glide_hbond>  (164) 
-0.16

>  <r_i_glide_metal>  (164) 
-0

>  <r_i_glide_rewards>  (164) 
-1.57914

>  <r_i_glide_evdw>  (164) 
-10.0636

>  <r_i_glide_ecoul>  (164) 
-2.76203

>  <r_i_glide_erotb>  (164) 
0

>  <r_i_glide_esite>  (164) 
-0.0473793

>  <r_i_glide_emodel>  (164) 
-12.346

>  <r_i_glide_energy>  (164) 
-12.8257

>  <r_i_glide_einternal>  (164) 
0

>  <r_i_glide_intrahb_reward>  (164) 
-0

>  <i_i_glide_confnum>  (164) 
1

>  <i_i_glide_posenum>  (164) 
3

>  <r_i_glide_eff_state_penalty>  (164) 
0

>  <ligand_id>  (164) 
40

>  <original_smiles>  (164) 
CC12C(=O)C3CCCC4C5CC6=CC1C4C(C5CC6)C32

>  <smiles>  (164) 
[H]C1=C2C([H])([H])C([H])([H])C3([H])C([H])(C2([H])[H])C2([H])C([H])([H])C([H])([H])C([H])([H])C4([H])C(=O)C5(C([H])([H])[H])C1([H])C2([H])C3([H])C45[H]

$$$$
41:0:0
     RDKit          3D

 63 68  0  0  1  0  0  0  0  0999 V2000
    2.6173   -3.0730   -1.5187 C   0  0  0  0  0  0  0  0  0  0  0  0
    4.0198   -3.0879   -0.8508 C   0  0  0  0  0  0  0  0  0  0  0  0
    4.8980   -2.8607   -2.1190 C   0  0  0  0  0  0  0  0  0  0  0  0
    4.2706   -1.9418    0.1837 C   0  0  1  0  0  0  0  0  0  0  0  0
    3.0718   -1.7614    1.0358 C   0  0  0  0  0  0  0  0  0  0  0  0
    2.6194   -3.0897    1.6628 C   0  0  2  0  0  0  0  0  0  0  0  0
    2.0444   -2.6841    3.0374 C   0  0  0  0  0  0  0  0  0  0  0  0
    3.1551   -2.3290    3.9954 C   0  0  0  0  0  0  0  0  0  0  0  0
    4.3949   -3.0512    3.6328 N   0  0  2  0  0  0  0  0  0  0  0  0
    5.3547   -2.2062    2.7840 C   0  0  0  0  0  0  0  0  0  0  0  0
    5.4795   -2.0581    1.1744 C   0  0  1  0  0  0  0  0  0  0  0  0
    6.8203   -2.5129    0.5202 C   0  0  0  0  0  0  0  0  0  0  0  0
    6.8534   -3.8929   -0.1639 C   0  0  0  0  0  0  0  0  0  0  0  0
    5.6885   -4.8340    0.2127 C   0  0  2  0  0  0  0  0  0  0  0  0
    4.2015   -4.4250   -0.0521 C   0  0  1  0  0  0  0  0  0  0  0  0
    3.3767   -4.5248    1.3291 C   0  0  2  0  0  0  0  0  0  0  0  0
    2.1484   -5.4721    1.2794 C   0  0  0  0  0  0  0  0  0  0  0  0
    1.6989   -5.8434    0.2010 O   0  0  0  0  0  0  0  0  0  0  0  0
    1.4095   -5.7988    2.5321 C   0  0  0  0  0  0  0  0  0  0  0  0
    1.8182   -5.6596    3.8238 C   0  0  0  0  0  0  0  0  0  0  0  0
    3.1289   -5.1943    4.4875 C   0  0  0  0  0  0  0  0  0  0  0  0
    4.3691   -4.5850    3.7060 C   0  0  2  0  0  0  0  0  0  0  0  0
    5.5637   -4.9885    4.6227 C   0  0  0  0  0  0  0  0  0  0  0  0
    4.4398   -5.2539    2.3050 C   0  0  1  0  0  0  0  0  0  0  0  0
    4.3232   -6.8489    2.3816 C   0  0  0  0  0  0  0  0  0  0  0  0
    5.8483   -5.1116    1.6841 C   0  0  1  0  0  0  0  0  0  0  0  0
    6.8044   -6.1455    1.8704 O   0  0  0  0  0  0  0  0  0  0  0  0
    2.3553   -2.0762   -1.8735 H   0  0  0  0  0  0  0  0  0  0  0  0
    1.8119   -3.4242   -0.8869 H   0  0  0  0  0  0  0  0  0  0  0  0
    2.5805   -3.7228   -2.3959 H   0  0  0  0  0  0  0  0  0  0  0  0
    5.7827   -2.2603   -1.9292 H   0  0  0  0  0  0  0  0  0  0  0  0
    4.3811   -2.2708   -2.8775 H   0  0  0  0  0  0  0  0  0  0  0  0
    5.1833   -3.7979   -2.6004 H   0  0  0  0  0  0  0  0  0  0  0  0
    4.3869   -1.0159   -0.3845 H   0  0  0  0  0  0  0  0  0  0  0  0
    3.2661   -0.9710    1.7604 H   0  0  0  0  0  0  0  0  0  0  0  0
    2.2514   -1.3392    0.4786 H   0  0  0  0  0  0  0  0  0  0  0  0
    1.6930   -3.1754    1.1358 H   0  0  0  0  0  0  0  0  0  0  0  0
    1.4401   -1.7847    2.9086 H   0  0  0  0  0  0  0  0  0  0  0  0
    1.3143   -3.3585    3.4641 H   0  0  0  0  0  0  0  0  0  0  0  0
    3.3299   -1.2541    3.9541 H   0  0  0  0  0  0  0  0  0  0  0  0
    2.8587   -2.5020    5.0286 H   0  0  0  0  0  0  0  0  0  0  0  0
    5.3176   -1.1935    3.1907 H   0  0  0  0  0  0  0  0  0  0  0  0
    6.2950   -2.5410    3.1316 H   0  0  0  0  0  0  0  0  0  0  0  0
    5.7276   -0.9966    1.2079 H   0  0  0  0  0  0  0  0  0  0  0  0
    7.1599   -1.7671   -0.1972 H   0  0  0  0  0  0  0  0  0  0  0  0
    7.6103   -2.5048    1.2687 H   0  0  0  0  0  0  0  0  0  0  0  0
    6.9935   -3.8178   -1.2355 H   0  0  0  0  0  0  0  0  0  0  0  0
    7.7898   -4.3742    0.1211 H   0  0  0  0  0  0  0  0  0  0  0  0
    5.8294   -5.7717   -0.3231 H   0  0  0  0  0  0  0  0  0  0  0  0
    3.8373   -5.2071   -0.7181 H   0  0  0  0  0  0  0  0  0  0  0  0
    0.4202   -6.2020    2.3933 H   0  0  0  0  0  0  0  0  0  0  0  0
    1.0896   -5.9604    4.5641 H   0  0  0  0  0  0  0  0  0  0  0  0
    2.8670   -4.5813    5.3466 H   0  0  0  0  0  0  0  0  0  0  0  0
    3.4569   -6.1160    4.9681 H   0  0  0  0  0  0  0  0  0  0  0  0
    5.6565   -6.0691    4.7344 H   0  0  0  0  0  0  0  0  0  0  0  0
    5.4394   -4.5795    5.6284 H   0  0  0  0  0  0  0  0  0  0  0  0
    6.5393   -4.6708    4.2673 H   0  0  0  0  0  0  0  0  0  0  0  0
    5.0846   -7.3031    3.0169 H   0  0  0  0  0  0  0  0  0  0  0  0
    4.4386   -7.2935    1.3892 H   0  0  0  0  0  0  0  0  0  0  0  0
    3.4161   -7.2799    2.7892 H   0  0  0  0  0  0  0  0  0  0  0  0
    6.3813   -4.3131    2.1568 H   0  0  0  0  0  0  0  0  0  0  0  0
    7.6417   -5.8475    1.5541 H   0  0  0  0  0  0  0  0  0  0  0  0
    4.8641   -2.9126    4.5119 H   0  0  0  0  0  0  0  0  0  0  0  0
  1  2  1  0
  1 28  1  0
  1 29  1  0
  1 30  1  0
  2 15  1  0
  2  3  1  0
  2  4  1  0
  3 31  1  0
  3 32  1  0
  3 33  1  0
  4 11  1  0
  4  5  1  0
  4 34  1  6
  5  6  1  0
  5 35  1  0
  5 36  1  0
  6 16  1  0
  6  7  1  0
  6 37  1  6
  7  8  1  0
  7 38  1  0
  7 39  1  0
  8  9  1  0
  8 40  1  0
  8 41  1  0
  9 22  1  0
  9 10  1  0
  9 63  1  1
 10 11  1  0
 10 42  1  0
 10 43  1  0
 11 12  1  0
 11 44  1  1
 12 13  1  0
 12 45  1  0
 12 46  1  0
 13 14  1  0
 13 47  1  0
 13 48  1  0
 14 26  1  0
 14 15  1  0
 14 49  1  6
 15 16  1  0
 15 50  1  6
 16 24  1  0
 16 17  1  6
 17 18  2  0
 17 19  1  0
 19 20  2  0
 19 51  1  0
 20 21  1  0
 20 52  1  0
 21 22  1  0
 21 53  1  0
 21 54  1  0
 22 23  1  1
 22 24  1  0
 23 55  1  0
 23 56  1  0
 23 57  1  0
 24 25  1  1
 24 26  1  0
 25 58  1  0
 25 59  1  0
 25 60  1  0
 26 27  1  0
 26 61  1  1
 27 62  1  0
M  CHG  1   9   1
M  END
>  <i_m_ct_stereo_status>  (165) 
1

>  <s_m_source_file>  (165) 
/var/tmp/pbs.5076255.sched01/tmp9vbryffn/46pprzbbw9.sdf

>  <i_m_source_file_index>  (165) 
27

>  <i_lp_mmshare_version>  (165) 
48012

>  <i_f3d_flags>  (165) 
0

>  <s_epik_input>  (165) 
W0NIM11DMShbQ0gzXSlbQ0BIXTJbQ0BASF0oW0NIMl1bQ0gyXTMpW0NASF0oW09IXSlbQ0BAXTQoW0NIM10pW0NAXShbQ0gzXSkoW0NIMl1bQ0hdPVtDSF1DNT1PKU4oW0NIMl1bQ0gyXTYpW0NIMl1bQ0BASF0zW0NAQEhdMVtDSDJdW0NASF02W0NAQF0yNDU=

>  <s_epik_cmdline>  (165) 
J2VwaWtfcHl0aG9uJywgJy1waHQnLCAnMi4wJywgJy1waCcsICc3LjAnLCAnLXRuJywgJzgnLCAnLW1hJywgJzIwMCcsICctaW1hZScsICc8aW5maWxlLm1hZT4nLCAnLW9tYWUnLCAnPG91dGZpbGUubWFlPic=

>  <r_epik_Ionization_Penalty>  (165) 
0.00344548

>  <r_epik_Ionization_Penalty_Charging>  (165) 
0.00344543

>  <r_epik_Ionization_Penalty_Neutral>  (165) 
4.45299e-08

>  <r_epik_State_Penalty>  (165) 
0.00244198

>  <r_epik_Charging_Adjusted_Penalty>  (165) 
0.00588742

>  <i_epik_Tot_Q>  (165) 
1

>  <i_epik_Tot_abs_Q>  (165) 
1

>  <s_lp_Force_Field>  (165) 
OPLS3e

>  <r_lp_Energy>  (165) 
189.523

>  <b_lp_Chiralities_Consistent>  (165) 
1

>  <s_lp_Variant>  (165) 
41:0-1

>  <s_i_glide_gridfile>  (165) 
pfpi4k_grid

>  <i_i_glide_lignum>  (165) 
27

>  <i_i_glide_rotatable_bonds>  (165) 
1

>  <r_i_docking_score>  (165) 
-2.90001

>  <r_i_glide_ligand_efficiency>  (165) 
-0.107408

>  <r_i_glide_ligand_efficiency_sa>  (165) 
-0.322223

>  <r_i_glide_ligand_efficiency_ln>  (165) 
-0.675075

>  <r_i_glide_gscore>  (165) 
-2.90001

>  <r_i_glide_lipo>  (165) 
-0.565203

>  <r_i_glide_hbond>  (165) 
-0.0817645

>  <r_i_glide_metal>  (165) 
-0

>  <r_i_glide_rewards>  (165) 
-0.882626

>  <r_i_glide_evdw>  (165) 
-19.0993

>  <r_i_glide_ecoul>  (165) 
-2.49828

>  <r_i_glide_erotb>  (165) 
0

>  <r_i_glide_esite>  (165) 
-0.0407127

>  <r_i_glide_emodel>  (165) 
-23.2165

>  <r_i_glide_energy>  (165) 
-21.5975

>  <r_i_glide_einternal>  (165) 
0.329073

>  <r_i_glide_intrahb_reward>  (165) 
-0

>  <i_i_glide_confnum>  (165) 
1

>  <i_i_glide_posenum>  (165) 
17

>  <r_i_glide_eff_state_penalty>  (165) 
0

>  <ligand_id>  (165) 
41

>  <original_smiles>  (165) 
CC1(C)C2CC3CCN4CC2CCC2C1C31C(=O)C=CCC4(C)C1(C)C2O

>  <smiles>  (165) 
[H]OC1([H])C2([H])C([H])([H])C([H])([H])C3([H])C4([H])C([H])([H])C5([H])C([H])([H])C([H])([H])[N+]([H])(C3([H])[H])C3(C([H])([H])[H])C([H])([H])C([H])=C([H])C(=O)C5(C2([H])C4(C([H])([H])[H])C([H])([H])[H])C13C([H])([H])[H]

$$$$
41:0:1
     RDKit          3D

 63 68  0  0  1  0  0  0  0  0999 V2000
    2.6186   -3.0728   -1.5088 C   0  0  0  0  0  0  0  0  0  0  0  0
    4.0270   -3.0704   -0.8420 C   0  0  0  0  0  0  0  0  0  0  0  0
    4.9054   -2.8540   -2.1131 C   0  0  0  0  0  0  0  0  0  0  0  0
    4.2713   -1.9133    0.1808 C   0  0  1  0  0  0  0  0  0  0  0  0
    3.0756   -1.7314    1.0326 C   0  0  0  0  0  0  0  0  0  0  0  0
    2.6272   -3.0557    1.6689 C   0  0  2  0  0  0  0  0  0  0  0  0
    2.0536   -2.6374    3.0427 C   0  0  0  0  0  0  0  0  0  0  0  0
    3.1614   -2.2623    3.9950 C   0  0  0  0  0  0  0  0  0  0  0  0
    4.4020   -2.9797    3.6398 N   0  0  2  0  0  0  0  0  0  0  0  0
    5.3546   -2.1403    2.7811 C   0  0  0  0  0  0  0  0  0  0  0  0
    5.4810   -2.0126    1.1741 C   0  0  1  0  0  0  0  0  0  0  0  0
    6.8213   -2.4672    0.5210 C   0  0  0  0  0  0  0  0  0  0  0  0
    6.8681   -3.8572   -0.1430 C   0  0  0  0  0  0  0  0  0  0  0  0
    5.7076   -4.7996    0.2424 C   0  0  2  0  0  0  0  0  0  0  0  0
    4.2173   -4.4002   -0.0314 C   0  0  1  0  0  0  0  0  0  0  0  0
    3.3938   -4.4902    1.3534 C   0  0  2  0  0  0  0  0  0  0  0  0
    2.1752   -5.4518    1.3119 C   0  0  0  0  0  0  0  0  0  0  0  0
    1.7339   -5.8416    0.2376 O   0  0  0  0  0  0  0  0  0  0  0  0
    1.4307   -5.7581    2.5720 C   0  0  0  0  0  0  0  0  0  0  0  0
    1.8392   -5.5991    3.8566 C   0  0  0  0  0  0  0  0  0  0  0  0
    3.1479   -5.1185    4.5205 C   0  0  0  0  0  0  0  0  0  0  0  0
    4.3828   -4.5107    3.7328 C   0  0  2  0  0  0  0  0  0  0  0  0
    5.5718   -4.8988    4.6618 C   0  0  0  0  0  0  0  0  0  0  0  0
    4.4591   -5.1962    2.3420 C   0  0  1  0  0  0  0  0  0  0  0  0
    4.3512   -6.7908    2.4369 C   0  0  0  0  0  0  0  0  0  0  0  0
    5.8672   -5.0563    1.7196 C   0  0  1  0  0  0  0  0  0  0  0  0
    6.8300   -6.0829    1.9181 O   0  0  0  0  0  0  0  0  0  0  0  0
    2.3555   -2.0809   -1.8777 H   0  0  0  0  0  0  0  0  0  0  0  0
    1.8146   -3.4239   -0.8726 H   0  0  0  0  0  0  0  0  0  0  0  0
    2.5919   -3.7332   -2.3790 H   0  0  0  0  0  0  0  0  0  0  0  0
    5.7858   -2.2460   -1.9292 H   0  0  0  0  0  0  0  0  0  0  0  0
    4.3848   -2.2754   -2.8766 H   0  0  0  0  0  0  0  0  0  0  0  0
    5.1980   -3.7942   -2.5832 H   0  0  0  0  0  0  0  0  0  0  0  0
    4.3826   -0.9936   -0.3976 H   0  0  0  0  0  0  0  0  0  0  0  0
    3.2629   -0.9325    1.7503 H   0  0  0  0  0  0  0  0  0  0  0  0
    2.2508   -1.3191    0.4736 H   0  0  0  0  0  0  0  0  0  0  0  0
    1.6983   -3.1539    1.1448 H   0  0  0  0  0  0  0  0  0  0  0  0
    1.4433   -1.7429    2.9019 H   0  0  0  0  0  0  0  0  0  0  0  0
    1.3244   -3.3090    3.4764 H   0  0  0  0  0  0  0  0  0  0  0  0
    3.3253   -1.1870    3.9406 H   0  0  0  0  0  0  0  0  0  0  0  0
    2.8638   -2.4230    5.0274 H   0  0  0  0  0  0  0  0  0  0  0  0
    5.3149   -1.1244    3.1747 H   0  0  0  0  0  0  0  0  0  0  0  0
    6.3006   -2.4546    3.1249 H   0  0  0  0  0  0  0  0  0  0  0  0
    5.7250   -0.9493    1.1940 H   0  0  0  0  0  0  0  0  0  0  0  0
    7.1592   -1.7275   -0.2040 H   0  0  0  0  0  0  0  0  0  0  0  0
    7.6147   -2.4433    1.2705 H   0  0  0  0  0  0  0  0  0  0  0  0
    7.0104   -3.7960   -1.2157 H   0  0  0  0  0  0  0  0  0  0  0  0
    7.8048   -4.3330    0.1536 H   0  0  0  0  0  0  0  0  0  0  0  0
    5.8629   -5.7413   -0.2860 H   0  0  0  0  0  0  0  0  0  0  0  0
    3.8624   -5.1821   -0.7037 H   0  0  0  0  0  0  0  0  0  0  0  0
    0.4406   -6.1700    2.4368 H   0  0  0  0  0  0  0  0  0  0  0  0
    1.1161   -5.8972    4.6053 H   0  0  0  0  0  0  0  0  0  0  0  0
    2.8793   -4.4991    5.3731 H   0  0  0  0  0  0  0  0  0  0  0  0
    3.4806   -6.0323    5.0120 H   0  0  0  0  0  0  0  0  0  0  0  0
    5.6777   -5.9764    4.7852 H   0  0  0  0  0  0  0  0  0  0  0  0
    5.4421   -4.4795    5.6631 H   0  0  0  0  0  0  0  0  0  0  0  0
    6.5424   -4.5704    4.3168 H   0  0  0  0  0  0  0  0  0  0  0  0
    5.1078   -7.2410    3.0818 H   0  0  0  0  0  0  0  0  0  0  0  0
    4.4717   -7.2476    1.4481 H   0  0  0  0  0  0  0  0  0  0  0  0
    3.4431   -7.2246    2.8451 H   0  0  0  0  0  0  0  0  0  0  0  0
    6.3973   -4.2503    2.1830 H   0  0  0  0  0  0  0  0  0  0  0  0
    7.0246   -6.1389    2.8393 H   0  0  0  0  0  0  0  0  0  0  0  0
    4.8682   -2.8258    4.5179 H   0  0  0  0  0  0  0  0  0  0  0  0
  1  2  1  0
  1 28  1  0
  1 29  1  0
  1 30  1  0
  2 15  1  0
  2  3  1  0
  2  4  1  0
  3 31  1  0
  3 32  1  0
  3 33  1  0
  4 11  1  0
  4  5  1  0
  4 34  1  6
  5  6  1  0
  5 35  1  0
  5 36  1  0
  6 16  1  0
  6  7  1  0
  6 37  1  6
  7  8  1  0
  7 38  1  0
  7 39  1  0
  8  9  1  0
  8 40  1  0
  8 41  1  0
  9 22  1  0
  9 10  1  0
  9 63  1  1
 10 11  1  0
 10 42  1  0
 10 43  1  0
 11 12  1  0
 11 44  1  1
 12 13  1  0
 12 45  1  0
 12 46  1  0
 13 14  1  0
 13 47  1  0
 13 48  1  0
 14 26  1  0
 14 15  1  0
 14 49  1  6
 15 16  1  0
 15 50  1  6
 16 24  1  0
 16 17  1  6
 17 18  2  0
 17 19  1  0
 19 20  2  0
 19 51  1  0
 20 21  1  0
 20 52  1  0
 21 22  1  0
 21 53  1  0
 21 54  1  0
 22 23  1  1
 22 24  1  0
 23 55  1  0
 23 56  1  0
 23 57  1  0
 24 25  1  1
 24 26  1  0
 25 58  1  0
 25 59  1  0
 25 60  1  0
 26 27  1  0
 26 61  1  1
 27 62  1  0
M  CHG  1   9   1
M  END
>  <i_m_ct_stereo_status>  (166) 
1

>  <s_m_source_file>  (166) 
/var/tmp/pbs.5076255.sched01/tmp9vbryffn/46pprzbbw9.sdf

>  <i_m_source_file_index>  (166) 
27

>  <i_lp_mmshare_version>  (166) 
48012

>  <i_f3d_flags>  (166) 
0

>  <s_epik_input>  (166) 
W0NIM11DMShbQ0gzXSlbQ0BIXTJbQ0BASF0oW0NIMl1bQ0gyXTMpW0NASF0oW09IXSlbQ0BAXTQoW0NIM10pW0NAXShbQ0gzXSkoW0NIMl1bQ0hdPVtDSF1DNT1PKU4oW0NIMl1bQ0gyXTYpW0NIMl1bQ0BASF0zW0NAQEhdMVtDSDJdW0NASF02W0NAQF0yNDU=

>  <s_epik_cmdline>  (166) 
J2VwaWtfcHl0aG9uJywgJy1waHQnLCAnMi4wJywgJy1waCcsICc3LjAnLCAnLXRuJywgJzgnLCAnLW1hJywgJzIwMCcsICctaW1hZScsICc8aW5maWxlLm1hZT4nLCAnLW9tYWUnLCAnPG91dGZpbGUubWFlPic=

>  <r_epik_Ionization_Penalty>  (166) 
0.00344548

>  <r_epik_Ionization_Penalty_Charging>  (166) 
0.00344543

>  <r_epik_Ionization_Penalty_Neutral>  (166) 
4.45299e-08

>  <r_epik_State_Penalty>  (166) 
0.00244198

>  <r_epik_Charging_Adjusted_Penalty>  (166) 
0.00588742

>  <i_epik_Tot_Q>  (166) 
1

>  <i_epik_Tot_abs_Q>  (166) 
1

>  <s_lp_Force_Field>  (166) 
OPLS3e

>  <r_lp_Energy>  (166) 
189.523

>  <b_lp_Chiralities_Consistent>  (166) 
1

>  <s_lp_Variant>  (166) 
41:0-1

>  <s_i_glide_gridfile>  (166) 
pfpi4k_grid

>  <i_i_glide_lignum>  (166) 
27

>  <i_i_glide_rotatable_bonds>  (166) 
1

>  <r_i_docking_score>  (166) 
-2.88279

>  <r_i_glide_ligand_efficiency>  (166) 
-0.10677

>  <r_i_glide_ligand_efficiency_sa>  (166) 
-0.32031

>  <r_i_glide_ligand_efficiency_ln>  (166) 
-0.671066

>  <r_i_glide_gscore>  (166) 
-2.88279

>  <r_i_glide_lipo>  (166) 
-0.57614

>  <r_i_glide_hbond>  (166) 
-0.0747207

>  <r_i_glide_metal>  (166) 
-0

>  <r_i_glide_rewards>  (166) 
-0.882626

>  <r_i_glide_evdw>  (166) 
-18.8527

>  <r_i_glide_ecoul>  (166) 
-2.44999

>  <r_i_glide_erotb>  (166) 
0

>  <r_i_glide_esite>  (166) 
-0.0391702

>  <r_i_glide_emodel>  (166) 
-22.781

>  <r_i_glide_energy>  (166) 
-21.3027

>  <r_i_glide_einternal>  (166) 
0.32877

>  <r_i_glide_intrahb_reward>  (166) 
-0

>  <i_i_glide_confnum>  (166) 
2

>  <i_i_glide_posenum>  (166) 
20

>  <r_i_glide_eff_state_penalty>  (166) 
0

>  <ligand_id>  (166) 
41

>  <original_smiles>  (166) 
CC1(C)C2CC3CCN4CC2CCC2C1C31C(=O)C=CCC4(C)C1(C)C2O

>  <smiles>  (166) 
[H]OC1([H])C2([H])C([H])([H])C([H])([H])C3([H])C4([H])C([H])([H])C5([H])C([H])([H])C([H])([H])[N+]([H])(C3([H])[H])C3(C([H])([H])[H])C([H])([H])C([H])=C([H])C(=O)C5(C2([H])C4(C([H])([H])[H])C([H])([H])[H])C13C([H])([H])[H]

$$$$
41:0:2
     RDKit          3D

 63 68  0  0  1  0  0  0  0  0999 V2000
    2.6405   -3.0701   -1.5473 C   0  0  0  0  0  0  0  0  0  0  0  0
    4.0468   -3.0708   -0.8699 C   0  0  0  0  0  0  0  0  0  0  0  0
    4.9380   -2.8719   -2.1358 C   0  0  0  0  0  0  0  0  0  0  0  0
    4.2946   -1.9038    0.1445 C   0  0  1  0  0  0  0  0  0  0  0  0
    3.1008   -1.7135    0.9980 C   0  0  0  0  0  0  0  0  0  0  0  0
    2.6331   -3.0296    1.6315 C   0  0  2  0  0  0  0  0  0  0  0  0
    2.0446   -2.5886    2.9922 C   0  0  0  0  0  0  0  0  0  0  0  0
    3.1446   -2.2034    3.9480 C   0  0  0  0  0  0  0  0  0  0  0  0
    4.3894   -2.9302    3.6128 N   0  0  2  0  0  0  0  0  0  0  0  0
    5.3570   -2.1049    2.7545 C   0  0  0  0  0  0  0  0  0  0  0  0
    5.4948   -1.9947    1.1472 C   0  0  1  0  0  0  0  0  0  0  0  0
    6.8366   -2.4595    0.5119 C   0  0  0  0  0  0  0  0  0  0  0  0
    6.8855   -3.8584   -0.1384 C   0  0  0  0  0  0  0  0  0  0  0  0
    5.7202   -4.7953    0.2416 C   0  0  2  0  0  0  0  0  0  0  0  0
    4.2306   -4.3943   -0.0461 C   0  0  1  0  0  0  0  0  0  0  0  0
    3.3977   -4.4676    1.3345 C   0  0  2  0  0  0  0  0  0  0  0  0
    2.1781   -5.4243    1.2967 C   0  0  0  0  0  0  0  0  0  0  0  0
    1.7433   -5.8343    0.2208 O   0  0  0  0  0  0  0  0  0  0  0  0
    1.4214   -5.7147    2.5499 C   0  0  0  0  0  0  0  0  0  0  0  0
    1.8199   -5.5393    3.8408 C   0  0  0  0  0  0  0  0  0  0  0  0
    3.1213   -5.0553    4.5071 C   0  0  0  0  0  0  0  0  0  0  0  0
    4.3648   -4.4617    3.7229 C   0  0  2  0  0  0  0  0  0  0  0  0
    5.5397   -4.8372    4.6701 C   0  0  0  0  0  0  0  0  0  0  0  0
    4.4539   -5.1643    2.3402 C   0  0  1  0  0  0  0  0  0  0  0  0
    4.3425   -6.7548    2.4531 C   0  0  0  0  0  0  0  0  0  0  0  0
    5.8667   -5.0426    1.7250 C   0  0  1  0  0  0  0  0  0  0  0  0
    6.8521   -6.0404    1.9791 O   0  0  0  0  0  0  0  0  0  0  0  0
    2.3786   -2.0820   -1.9243 H   0  0  0  0  0  0  0  0  0  0  0  0
    1.8287   -3.4140   -0.9206 H   0  0  0  0  0  0  0  0  0  0  0  0
    2.6182   -3.7371   -2.4102 H   0  0  0  0  0  0  0  0  0  0  0  0
    5.8191   -2.2654   -1.9493 H   0  0  0  0  0  0  0  0  0  0  0  0
    4.4265   -2.3012   -2.9119 H   0  0  0  0  0  0  0  0  0  0  0  0
    5.2337   -3.8181   -2.5908 H   0  0  0  0  0  0  0  0  0  0  0  0
    4.4092   -0.9902   -0.4443 H   0  0  0  0  0  0  0  0  0  0  0  0
    3.2833   -0.9008    1.7011 H   0  0  0  0  0  0  0  0  0  0  0  0
    2.2677   -1.2955    0.4623 H   0  0  0  0  0  0  0  0  0  0  0  0
    1.7105   -3.1267    1.0899 H   0  0  0  0  0  0  0  0  0  0  0  0
    1.4382   -1.6947    2.8319 H   0  0  0  0  0  0  0  0  0  0  0  0
    1.3090   -3.2525    3.4258 H   0  0  0  0  0  0  0  0  0  0  0  0
    3.3129   -1.1306    3.8831 H   0  0  0  0  0  0  0  0  0  0  0  0
    2.8380   -2.3514    4.9784 H   0  0  0  0  0  0  0  0  0  0  0  0
    5.3097   -1.0851    3.1347 H   0  0  0  0  0  0  0  0  0  0  0  0
    6.2989   -2.4171    3.1160 H   0  0  0  0  0  0  0  0  0  0  0  0
    5.7371   -0.9320    1.1554 H   0  0  0  0  0  0  0  0  0  0  0  0
    7.1827   -1.7288   -0.2189 H   0  0  0  0  0  0  0  0  0  0  0  0
    7.6212   -2.4289    1.2667 H   0  0  0  0  0  0  0  0  0  0  0  0
    7.0395   -3.8040   -1.2098 H   0  0  0  0  0  0  0  0  0  0  0  0
    7.8168   -4.3308    0.1747 H   0  0  0  0  0  0  0  0  0  0  0  0
    5.8752   -5.7358   -0.2874 H   0  0  0  0  0  0  0  0  0  0  0  0
    3.8770   -5.1802   -0.7166 H   0  0  0  0  0  0  0  0  0  0  0  0
    0.4338   -6.1256    2.4136 H   0  0  0  0  0  0  0  0  0  0  0  0
    1.0851   -5.8241    4.5833 H   0  0  0  0  0  0  0  0  0  0  0  0
    2.8480   -4.4235    5.3500 H   0  0  0  0  0  0  0  0  0  0  0  0
    3.4469   -5.9632    5.0117 H   0  0  0  0  0  0  0  0  0  0  0  0
    5.6490   -5.9119    4.7991 H   0  0  0  0  0  0  0  0  0  0  0  0
    5.4014   -4.4085    5.6659 H   0  0  0  0  0  0  0  0  0  0  0  0
    6.5093   -4.5057    4.3306 H   0  0  0  0  0  0  0  0  0  0  0  0
    5.0948   -7.1938    3.1118 H   0  0  0  0  0  0  0  0  0  0  0  0
    4.4627   -7.2260    1.4714 H   0  0  0  0  0  0  0  0  0  0  0  0
    3.4297   -7.1804    2.8628 H   0  0  0  0  0  0  0  0  0  0  0  0
    6.3803   -4.2253    2.1788 H   0  0  0  0  0  0  0  0  0  0  0  0
    6.5605   -6.8624    1.6221 H   0  0  0  0  0  0  0  0  0  0  0  0
    4.8485   -2.7681    4.4940 H   0  0  0  0  0  0  0  0  0  0  0  0
  1  2  1  0
  1 28  1  0
  1 29  1  0
  1 30  1  0
  2 15  1  0
  2  3  1  0
  2  4  1  0
  3 31  1  0
  3 32  1  0
  3 33  1  0
  4 11  1  0
  4  5  1  0
  4 34  1  6
  5  6  1  0
  5 35  1  0
  5 36  1  0
  6 16  1  0
  6  7  1  0
  6 37  1  6
  7  8  1  0
  7 38  1  0
  7 39  1  0
  8  9  1  0
  8 40  1  0
  8 41  1  0
  9 22  1  0
  9 10  1  0
  9 63  1  1
 10 11  1  0
 10 42  1  0
 10 43  1  0
 11 12  1  0
 11 44  1  1
 12 13  1  0
 12 45  1  0
 12 46  1  0
 13 14  1  0
 13 47  1  0
 13 48  1  0
 14 26  1  0
 14 15  1  0
 14 49  1  6
 15 16  1  0
 15 50  1  6
 16 24  1  0
 16 17  1  6
 17 18  2  0
 17 19  1  0
 19 20  2  0
 19 51  1  0
 20 21  1  0
 20 52  1  0
 21 22  1  0
 21 53  1  0
 21 54  1  0
 22 23  1  1
 22 24  1  0
 23 55  1  0
 23 56  1  0
 23 57  1  0
 24 25  1  1
 24 26  1  0
 25 58  1  0
 25 59  1  0
 25 60  1  0
 26 27  1  0
 26 61  1  1
 27 62  1  0
M  CHG  1   9   1
M  END
>  <i_m_ct_stereo_status>  (167) 
1

>  <s_m_source_file>  (167) 
/var/tmp/pbs.5076255.sched01/tmp9vbryffn/46pprzbbw9.sdf

>  <i_m_source_file_index>  (167) 
27

>  <i_lp_mmshare_version>  (167) 
48012

>  <i_f3d_flags>  (167) 
0

>  <s_epik_input>  (167) 
W0NIM11DMShbQ0gzXSlbQ0BIXTJbQ0BASF0oW0NIMl1bQ0gyXTMpW0NASF0oW09IXSlbQ0BAXTQoW0NIM10pW0NAXShbQ0gzXSkoW0NIMl1bQ0hdPVtDSF1DNT1PKU4oW0NIMl1bQ0gyXTYpW0NIMl1bQ0BASF0zW0NAQEhdMVtDSDJdW0NASF02W0NAQF0yNDU=

>  <s_epik_cmdline>  (167) 
J2VwaWtfcHl0aG9uJywgJy1waHQnLCAnMi4wJywgJy1waCcsICc3LjAnLCAnLXRuJywgJzgnLCAnLW1hJywgJzIwMCcsICctaW1hZScsICc8aW5maWxlLm1hZT4nLCAnLW9tYWUnLCAnPG91dGZpbGUubWFlPic=

>  <r_epik_Ionization_Penalty>  (167) 
0.00344548

>  <r_epik_Ionization_Penalty_Charging>  (167) 
0.00344543

>  <r_epik_Ionization_Penalty_Neutral>  (167) 
4.45299e-08

>  <r_epik_State_Penalty>  (167) 
0.00244198

>  <r_epik_Charging_Adjusted_Penalty>  (167) 
0.00588742

>  <i_epik_Tot_Q>  (167) 
1

>  <i_epik_Tot_abs_Q>  (167) 
1

>  <s_lp_Force_Field>  (167) 
OPLS3e

>  <r_lp_Energy>  (167) 
189.523

>  <b_lp_Chiralities_Consistent>  (167) 
1

>  <s_lp_Variant>  (167) 
41:0-1

>  <s_i_glide_gridfile>  (167) 
pfpi4k_grid

>  <i_i_glide_lignum>  (167) 
27

>  <i_i_glide_rotatable_bonds>  (167) 
1

>  <r_i_docking_score>  (167) 
-2.8432

>  <r_i_glide_ligand_efficiency>  (167) 
-0.105304

>  <r_i_glide_ligand_efficiency_sa>  (167) 
-0.315911

>  <r_i_glide_ligand_efficiency_ln>  (167) 
-0.66185

>  <r_i_glide_gscore>  (167) 
-2.8432

>  <r_i_glide_lipo>  (167) 
-0.596227

>  <r_i_glide_hbond>  (167) 
-0.0716585

>  <r_i_glide_metal>  (167) 
-0

>  <r_i_glide_rewards>  (167) 
-0.882626

>  <r_i_glide_evdw>  (167) 
-18.8382

>  <r_i_glide_ecoul>  (167) 
-2.07228

>  <r_i_glide_erotb>  (167) 
0

>  <r_i_glide_esite>  (167) 
-0.0399337

>  <r_i_glide_emodel>  (167) 
-22.4556

>  <r_i_glide_energy>  (167) 
-20.9105

>  <r_i_glide_einternal>  (167) 
0.0030493

>  <r_i_glide_intrahb_reward>  (167) 
-0

>  <i_i_glide_confnum>  (167) 
1

>  <i_i_glide_posenum>  (167) 
29

>  <r_i_glide_eff_state_penalty>  (167) 
0

>  <ligand_id>  (167) 
41

>  <original_smiles>  (167) 
CC1(C)C2CC3CCN4CC2CCC2C1C31C(=O)C=CCC4(C)C1(C)C2O

>  <smiles>  (167) 
[H]OC1([H])C2([H])C([H])([H])C([H])([H])C3([H])C4([H])C([H])([H])C5([H])C([H])([H])C([H])([H])[N+]([H])(C3([H])[H])C3(C([H])([H])[H])C([H])([H])C([H])=C([H])C(=O)C5(C2([H])C4(C([H])([H])[H])C([H])([H])[H])C13C([H])([H])[H]

$$$$
42:0:0
     RDKit          3D

 80 85  0  0  1  0  0  0  0  0999 V2000
    3.8767    0.3390    3.4864 C   0  0  0  0  0  0  0  0  0  0  0  0
    2.9102   -0.1270    4.6109 C   0  0  2  0  0  0  0  0  0  0  0  0
    3.3124    0.1949    6.1489 C   0  0  2  0  0  0  0  0  0  0  0  0
    4.8704    0.0920    6.2234 C   0  0  0  0  0  0  0  0  0  0  0  0
    2.8712   -0.8600    7.2763 C   0  0  0  0  0  0  0  0  0  0  0  0
    2.7197   -2.4047    7.0879 C   0  0  0  0  0  0  0  0  0  0  0  0
    1.4683   -2.8535    6.3064 C   0  0  1  0  0  0  0  0  0  0  0  0
    0.1896   -2.1744    6.8198 C   0  0  0  0  0  0  0  0  0  0  0  0
    0.2882   -1.2377    5.8688 C   0  0  0  0  0  0  0  0  0  0  0  0
   -0.3687    0.1240    5.6851 C   0  0  1  0  0  0  0  0  0  0  0  0
   -1.7591   -0.0124    5.9295 O   0  0  0  0  0  0  0  0  0  0  0  0
    0.1828    1.1987    6.6821 C   0  0  0  0  0  0  0  0  0  0  0  0
    1.3358    2.1530    6.1834 C   0  0  1  0  0  0  0  0  0  0  0  0
    0.9547    3.7033    6.3188 C   0  0  2  0  0  0  0  0  0  0  0  0
    0.7263    4.1044    7.8112 C   0  0  0  0  0  0  0  0  0  0  0  0
   -0.4047    4.0619    5.6183 C   0  0  0  0  0  0  0  0  0  0  0  0
   -0.3660    4.1794    4.0926 C   0  0  0  0  0  0  0  0  0  0  0  0
    0.5958    5.2887    3.6602 C   0  0  1  0  0  0  0  0  0  0  0  0
    0.0805    6.5425    4.0822 O   0  0  0  0  0  0  0  0  0  0  0  0
    2.0373    4.9990    4.1620 C   0  0  0  0  0  0  0  0  0  0  0  0
    2.6210    3.9041    3.2323 C   0  0  0  0  0  0  0  0  0  0  0  0
    2.8966    6.2547    3.9067 C   0  0  0  0  0  0  0  0  0  0  0  0
    2.0625    4.6486    5.7129 C   0  0  2  0  0  0  0  0  0  0  0  0
    3.4503    4.2662    6.2633 C   0  0  0  0  0  0  0  0  0  0  0  0
    3.8239    2.7819    6.0975 C   0  0  0  0  0  0  0  0  0  0  0  0
    2.8278    1.7003    6.6302 C   0  0  2  0  0  0  0  0  0  0  0  0
    2.9812    1.8215    8.1879 C   0  0  0  0  0  0  0  0  0  0  0  0
    1.2177   -2.0866    5.0188 C   0  0  2  0  0  0  0  0  0  0  0  0
    0.5948   -2.6659    3.7647 C   0  0  0  0  0  0  0  0  0  0  0  0
    1.4022   -1.6059    3.0195 C   0  0  0  0  0  0  0  0  0  0  0  0
    2.3913   -1.5268    4.2181 C   0  0  1  0  0  0  0  0  0  0  0  0
    3.5762   -2.5012    4.0010 C   0  0  0  0  0  0  0  0  0  0  0  0
    4.8378   -0.1777    3.5046 H   0  0  0  0  0  0  0  0  0  0  0  0
    4.0720    1.3983    3.4898 H   0  0  0  0  0  0  0  0  0  0  0  0
    3.4362    0.1460    2.5067 H   0  0  0  0  0  0  0  0  0  0  0  0
    2.0528    0.4739    4.3913 H   0  0  0  0  0  0  0  0  0  0  0  0
    5.2705    0.3580    7.2013 H   0  0  0  0  0  0  0  0  0  0  0  0
    5.3927    0.7326    5.5129 H   0  0  0  0  0  0  0  0  0  0  0  0
    5.2123   -0.9219    6.0321 H   0  0  0  0  0  0  0  0  0  0  0  0
    3.5873   -0.7793    8.0937 H   0  0  0  0  0  0  0  0  0  0  0  0
    1.9711   -0.5345    7.7710 H   0  0  0  0  0  0  0  0  0  0  0  0
    3.6329   -2.8097    6.6585 H   0  0  0  0  0  0  0  0  0  0  0  0
    2.6783   -2.8465    8.0851 H   0  0  0  0  0  0  0  0  0  0  0  0
    1.4154   -3.9306    6.1342 H   0  0  0  0  0  0  0  0  0  0  0  0
   -0.3800   -2.2809    7.7378 H   0  0  0  0  0  0  0  0  0  0  0  0
   -0.2590    0.4388    4.6511 H   0  0  0  0  0  0  0  0  0  0  0  0
   -2.2127    0.5277    5.2945 H   0  0  0  0  0  0  0  0  0  0  0  0
   -0.6682    1.7956    6.9893 H   0  0  0  0  0  0  0  0  0  0  0  0
    0.4031    0.7420    7.6412 H   0  0  0  0  0  0  0  0  0  0  0  0
    1.2800    2.0948    5.1110 H   0  0  0  0  0  0  0  0  0  0  0  0
    0.1755    5.0402    7.9015 H   0  0  0  0  0  0  0  0  0  0  0  0
    1.6401    4.3000    8.3590 H   0  0  0  0  0  0  0  0  0  0  0  0
    0.1664    3.3603    8.3744 H   0  0  0  0  0  0  0  0  0  0  0  0
   -1.2102    3.3836    5.8746 H   0  0  0  0  0  0  0  0  0  0  0  0
   -0.7549    5.0265    5.9870 H   0  0  0  0  0  0  0  0  0  0  0  0
   -0.0869    3.2240    3.6462 H   0  0  0  0  0  0  0  0  0  0  0  0
   -1.3663    4.3907    3.7158 H   0  0  0  0  0  0  0  0  0  0  0  0
    0.6022    5.3428    2.5706 H   0  0  0  0  0  0  0  0  0  0  0  0
    0.2170    7.1874    3.3803 H   0  0  0  0  0  0  0  0  0  0  0  0
    3.7017    3.8203    3.3356 H   0  0  0  0  0  0  0  0  0  0  0  0
    2.4472    4.1510    2.1814 H   0  0  0  0  0  0  0  0  0  0  0  0
    2.1763    2.9262    3.3949 H   0  0  0  0  0  0  0  0  0  0  0  0
    3.9626    6.0735    4.0103 H   0  0  0  0  0  0  0  0  0  0  0  0
    2.6257    7.0817    4.5597 H   0  0  0  0  0  0  0  0  0  0  0  0
    2.7492    6.5969    2.8890 H   0  0  0  0  0  0  0  0  0  0  0  0
    1.8554    5.6205    6.1608 H   0  0  0  0  0  0  0  0  0  0  0  0
    4.2237    4.8664    5.7932 H   0  0  0  0  0  0  0  0  0  0  0  0
    3.5229    4.5566    7.3082 H   0  0  0  0  0  0  0  0  0  0  0  0
    4.0287    2.6255    5.0590 H   0  0  0  0  0  0  0  0  0  0  0  0
    4.7926    2.6721    6.5827 H   0  0  0  0  0  0  0  0  0  0  0  0
    3.0956    2.8413    8.5376 H   0  0  0  0  0  0  0  0  0  0  0  0
    3.8790    1.3358    8.5694 H   0  0  0  0  0  0  0  0  0  0  0  0
    2.1377    1.4189    8.7459 H   0  0  0  0  0  0  0  0  0  0  0  0
    0.9162   -3.6829    3.5468 H   0  0  0  0  0  0  0  0  0  0  0  0
   -0.4834   -2.5593    3.7131 H   0  0  0  0  0  0  0  0  0  0  0  0
    1.8452   -1.9599    2.0882 H   0  0  0  0  0  0  0  0  0  0  0  0
    0.8327   -0.6945    2.8519 H   0  0  0  0  0  0  0  0  0  0  0  0
    3.2581   -3.5373    4.1162 H   0  0  0  0  0  0  0  0  0  0  0  0
    4.4044   -2.3493    4.6848 H   0  0  0  0  0  0  0  0  0  0  0  0
    3.9863   -2.4190    2.9912 H   0  0  0  0  0  0  0  0  0  0  0  0
  1  2  1  0
  1 33  1  0
  1 34  1  0
  1 35  1  0
  2 31  1  0
  2  3  1  0
  2 36  1  6
  3 26  1  0
  3  4  1  6
  3  5  1  0
  4 37  1  0
  4 38  1  0
  4 39  1  0
  5  6  1  0
  5 40  1  0
  5 41  1  0
  6  7  1  0
  6 42  1  0
  6 43  1  0
  7 28  1  0
  7  8  1  0
  7 44  1  6
  8  9  2  0
  8 45  1  0
  9 10  1  0
  9 28  1  0
 10 11  1  0
 10 12  1  0
 10 46  1  6
 11 47  1  0
 12 13  1  0
 12 48  1  0
 12 49  1  0
 13 26  1  0
 13 14  1  0
 13 50  1  6
 14 23  1  0
 14 15  1  1
 14 16  1  0
 15 51  1  0
 15 52  1  0
 15 53  1  0
 16 17  1  0
 16 54  1  0
 16 55  1  0
 17 18  1  0
 17 56  1  0
 17 57  1  0
 18 19  1  0
 18 20  1  0
 18 58  1  6
 19 59  1  0
 20 21  1  0
 20 22  1  0
 20 23  1  0
 21 60  1  0
 21 61  1  0
 21 62  1  0
 22 63  1  0
 22 64  1  0
 22 65  1  0
 23 24  1  0
 23 66  1  1
 24 25  1  0
 24 67  1  0
 24 68  1  0
 25 26  1  0
 25 69  1  0
 25 70  1  0
 26 27  1  1
 27 71  1  0
 27 72  1  0
 27 73  1  0
 28 31  1  0
 28 29  1  6
 29 30  1  0
 29 74  1  0
 29 75  1  0
 30 31  1  0
 30 76  1  0
 30 77  1  0
 31 32  1  6
 32 78  1  0
 32 79  1  0
 32 80  1  0
M  END
>  <i_m_ct_stereo_status>  (168) 
1

>  <s_m_source_file>  (168) 
/var/tmp/pbs.5076255.sched01/tmp9vbryffn/46pprzbbw9.sdf

>  <i_m_source_file_index>  (168) 
28

>  <i_lp_mmshare_version>  (168) 
48012

>  <i_f3d_flags>  (168) 
0

>  <s_epik_input>  (168) 
W0NAQF0xMjNbQ0BIXTRbQ0gyXVtDSDJdW0NAQF0oW0NIM10pKFtDQEBIXShbQ0gzXSlbQ0BdMyhbQ0gzXSlbQ0gyXVtDSDJdMilbQ0BdNShbQ0gzXSlbQ0BASF0oW0NIMl1bQ0BIXShbT0hdKUMxPVtDSF00KVtDQEBdNihbQ0gzXSlbQ0BASF0oW0NIMl1bQ0gyXTUpQyhbQ0gzXSkoW0NIM10pW0NASF0oW09IXSlbQ0gyXVtDSDJdNg==

>  <s_epik_cmdline>  (168) 
J2VwaWtfcHl0aG9uJywgJy1waHQnLCAnMi4wJywgJy1waCcsICc3LjAnLCAnLXRuJywgJzgnLCAnLW1hJywgJzIwMCcsICctaW1hZScsICc8aW5maWxlLm1hZT4nLCAnLW9tYWUnLCAnPG91dGZpbGUubWFlPic=

>  <r_lp_tautomer_probability>  (168) 
1

>  <r_epik_Ionization_Penalty>  (168) 
3.6279e-06

>  <r_epik_Ionization_Penalty_Charging>  (168) 
0

>  <r_epik_Ionization_Penalty_Neutral>  (168) 
3.6279e-06

>  <r_epik_State_Penalty>  (168) 
-0

>  <r_epik_Charging_Adjusted_Penalty>  (168) 
0

>  <i_epik_Tot_Q>  (168) 
0

>  <i_epik_Tot_abs_Q>  (168) 
0

>  <s_lp_Force_Field>  (168) 
OPLS3e

>  <r_lp_Energy>  (168) 
147.398

>  <b_lp_Chiralities_Consistent>  (168) 
1

>  <s_lp_Variant>  (168) 
42:0-1

>  <s_i_glide_gridfile>  (168) 
pfpi4k_grid

>  <i_i_glide_lignum>  (168) 
28

>  <i_i_glide_rotatable_bonds>  (168) 
2

>  <r_i_docking_score>  (168) 
-2.86282

>  <r_i_glide_ligand_efficiency>  (168) 
-0.0894631

>  <r_i_glide_ligand_efficiency_sa>  (168) 
-0.284028

>  <r_i_glide_ligand_efficiency_ln>  (168) 
-0.641063

>  <r_i_glide_gscore>  (168) 
-2.86282

>  <r_i_glide_lipo>  (168) 
-0.0449456

>  <r_i_glide_hbond>  (168) 
-0.278474

>  <r_i_glide_metal>  (168) 
-0

>  <r_i_glide_rewards>  (168) 
-0.404312

>  <r_i_glide_evdw>  (168) 
-14.6107

>  <r_i_glide_ecoul>  (168) 
-9.36369

>  <r_i_glide_erotb>  (168) 
0

>  <r_i_glide_esite>  (168) 
0

>  <r_i_glide_emodel>  (168) 
-27.8605

>  <r_i_glide_energy>  (168) 
-23.9744

>  <r_i_glide_einternal>  (168) 
1.92192

>  <r_i_glide_intrahb_reward>  (168) 
-0

>  <i_i_glide_confnum>  (168) 
1

>  <i_i_glide_posenum>  (168) 
13

>  <r_i_glide_eff_state_penalty>  (168) 
0

>  <ligand_id>  (168) 
42

>  <original_smiles>  (168) 
CC1C2(C)CCC3C=C(C(O)CC4C5(C)CCC(O)C(C)(C)C5CCC42C)C32CCC12C

>  <smiles>  (168) 
[H]OC1([H])C2=C([H])C3([H])C([H])([H])C([H])([H])C(C([H])([H])[H])(C([H])(C([H])([H])[H])C4(C([H])([H])[H])C([H])([H])C([H])([H])C234)C2(C([H])([H])[H])C([H])([H])C([H])([H])C3([H])C(C([H])([H])[H])(C([H])([H])[H])C([H])(O[H])C([H])([H])C([H])([H])C3(C([H])([H])[H])C2([H])C1([H])[H]

$$$$
42:0:1
     RDKit          3D

 80 85  0  0  1  0  0  0  0  0999 V2000
    4.0079    0.9633    5.0724 C   0  0  0  0  0  0  0  0  0  0  0  0
    3.0769    0.1223    5.9955 C   0  0  2  0  0  0  0  0  0  0  0  0
    2.7978    0.6645    7.4983 C   0  0  2  0  0  0  0  0  0  0  0  0
    4.1214    1.3435    7.9709 C   0  0  0  0  0  0  0  0  0  0  0  0
    2.5693   -0.4247    8.6577 C   0  0  0  0  0  0  0  0  0  0  0  0
    3.2074   -1.8546    8.7266 C   0  0  0  0  0  0  0  0  0  0  0  0
    2.6001   -2.8903    7.7564 C   0  0  1  0  0  0  0  0  0  0  0  0
    1.0696   -2.9026    7.8040 C   0  0  0  0  0  0  0  0  0  0  0  0
    1.0110   -2.0728    6.7580 C   0  0  0  0  0  0  0  0  0  0  0  0
   -0.0892   -1.2192    6.1620 C   0  0  1  0  0  0  0  0  0  0  0  0
   -1.2609   -2.0044    6.0799 O   0  0  0  0  0  0  0  0  0  0  0  0
   -0.4252    0.0216    7.0562 C   0  0  0  0  0  0  0  0  0  0  0  0
    0.2417    1.3964    6.6918 C   0  0  1  0  0  0  0  0  0  0  0  0
   -0.8316    2.5628    6.4478 C   0  0  2  0  0  0  0  0  0  0  0  0
   -1.6639    2.8570    7.7382 C   0  0  0  0  0  0  0  0  0  0  0  0
   -1.9220    2.1778    5.3857 C   0  0  0  0  0  0  0  0  0  0  0  0
   -1.4813    2.2206    3.9285 C   0  0  0  0  0  0  0  0  0  0  0  0
   -1.0537    3.6338    3.5526 C   0  0  1  0  0  0  0  0  0  0  0  0
   -2.1884    4.4827    3.6198 O   0  0  0  0  0  0  0  0  0  0  0  0
    0.1350    4.1283    4.4182 C   0  0  0  0  0  0  0  0  0  0  0  0
    1.4034    3.4308    3.8763 C   0  0  0  0  0  0  0  0  0  0  0  0
    0.3470    5.6365    4.1301 C   0  0  0  0  0  0  0  0  0  0  0  0
   -0.1563    3.9048    5.9651 C   0  0  2  0  0  0  0  0  0  0  0  0
    1.0096    4.2768    6.9002 C   0  0  0  0  0  0  0  0  0  0  0  0
    2.0527    3.1620    7.1007 C   0  0  0  0  0  0  0  0  0  0  0  0
    1.5573    1.7548    7.5659 C   0  0  2  0  0  0  0  0  0  0  0  0
    1.1600    1.9952    9.0643 C   0  0  0  0  0  0  0  0  0  0  0  0
    2.4344   -2.4038    6.3262 C   0  0  2  0  0  0  0  0  0  0  0  0
    2.5538   -3.2644    5.0746 C   0  0  0  0  0  0  0  0  0  0  0  0
    2.9728   -1.9694    4.3818 C   0  0  0  0  0  0  0  0  0  0  0  0
    3.4008   -1.3664    5.7497 C   0  0  1  0  0  0  0  0  0  0  0  0
    4.9028   -1.6363    6.0124 C   0  0  0  0  0  0  0  0  0  0  0  0
    5.0417    0.9844    5.4194 H   0  0  0  0  0  0  0  0  0  0  0  0
    3.6927    1.9854    4.9196 H   0  0  0  0  0  0  0  0  0  0  0  0
    4.0253    0.5338    4.0711 H   0  0  0  0  0  0  0  0  0  0  0  0
    2.1480    0.2192    5.4674 H   0  0  0  0  0  0  0  0  0  0  0  0
    4.0384    1.8109    8.9506 H   0  0  0  0  0  0  0  0  0  0  0  0
    4.4792    2.1281    7.3038 H   0  0  0  0  0  0  0  0  0  0  0  0
    4.9293    0.6214    8.0565 H   0  0  0  0  0  0  0  0  0  0  0  0
    2.8867    0.0315    9.5969 H   0  0  0  0  0  0  0  0  0  0  0  0
    1.5210   -0.5638    8.8531 H   0  0  0  0  0  0  0  0  0  0  0  0
    4.2866   -1.7723    8.6126 H   0  0  0  0  0  0  0  0  0  0  0  0
    3.0751   -2.2136    9.7455 H   0  0  0  0  0  0  0  0  0  0  0  0
    3.1014   -3.8650    7.7727 H   0  0  0  0  0  0  0  0  0  0  0  0
    0.3535   -3.2260    8.5563 H   0  0  0  0  0  0  0  0  0  0  0  0
    0.1665   -0.9252    5.1448 H   0  0  0  0  0  0  0  0  0  0  0  0
   -1.0830   -2.7398    5.5132 H   0  0  0  0  0  0  0  0  0  0  0  0
   -1.4936    0.1409    7.0079 H   0  0  0  0  0  0  0  0  0  0  0  0
   -0.3301   -0.2260    8.1070 H   0  0  0  0  0  0  0  0  0  0  0  0
    0.5415    1.2736    5.6658 H   0  0  0  0  0  0  0  0  0  0  0  0
   -2.5786    3.4031    7.5159 H   0  0  0  0  0  0  0  0  0  0  0  0
   -1.1538    3.4990    8.4460 H   0  0  0  0  0  0  0  0  0  0  0  0
   -1.9585    1.9574    8.2734 H   0  0  0  0  0  0  0  0  0  0  0  0
   -2.3433    1.1952    5.5483 H   0  0  0  0  0  0  0  0  0  0  0  0
   -2.7740    2.8500    5.4756 H   0  0  0  0  0  0  0  0  0  0  0  0
   -0.6775    1.5138    3.7436 H   0  0  0  0  0  0  0  0  0  0  0  0
   -2.3006    1.9056    3.2840 H   0  0  0  0  0  0  0  0  0  0  0  0
   -0.7812    3.6066    2.4988 H   0  0  0  0  0  0  0  0  0  0  0  0
   -2.8072    4.1475    2.9923 H   0  0  0  0  0  0  0  0  0  0  0  0
    2.3113    3.8955    4.2510 H   0  0  0  0  0  0  0  0  0  0  0  0
    1.4539    3.5182    2.7890 H   0  0  0  0  0  0  0  0  0  0  0  0
    1.4293    2.3680    4.1021 H   0  0  0  0  0  0  0  0  0  0  0  0
    1.2914    6.0043    4.5284 H   0  0  0  0  0  0  0  0  0  0  0  0
   -0.4438    6.2428    4.5713 H   0  0  0  0  0  0  0  0  0  0  0  0
    0.3555    5.8384    3.0560 H   0  0  0  0  0  0  0  0  0  0  0  0
   -0.9112    4.6664    6.1634 H   0  0  0  0  0  0  0  0  0  0  0  0
    1.5222    5.1571    6.5257 H   0  0  0  0  0  0  0  0  0  0  0  0
    0.6199    4.6075    7.8585 H   0  0  0  0  0  0  0  0  0  0  0  0
    2.6106    3.0828    6.1911 H   0  0  0  0  0  0  0  0  0  0  0  0
    2.7619    3.5639    7.8230 H   0  0  0  0  0  0  0  0  0  0  0  0
    0.6804    2.9526    9.2366 H   0  0  0  0  0  0  0  0  0  0  0  0
    2.0159    2.0326    9.7339 H   0  0  0  0  0  0  0  0  0  0  0  0
    0.4701    1.2553    9.4632 H   0  0  0  0  0  0  0  0  0  0  0  0
    3.3640   -3.9961    5.1386 H   0  0  0  0  0  0  0  0  0  0  0  0
    1.6367   -3.7072    4.7012 H   0  0  0  0  0  0  0  0  0  0  0  0
    3.7920   -2.0999    3.6725 H   0  0  0  0  0  0  0  0  0  0  0  0
    2.1285   -1.4628    3.9201 H   0  0  0  0  0  0  0  0  0  0  0  0
    5.0751   -2.6890    6.2323 H   0  0  0  0  0  0  0  0  0  0  0  0
    5.3162   -1.0706    6.8368 H   0  0  0  0  0  0  0  0  0  0  0  0
    5.5093   -1.4053    5.1341 H   0  0  0  0  0  0  0  0  0  0  0  0
  1  2  1  0
  1 33  1  0
  1 34  1  0
  1 35  1  0
  2 31  1  0
  2  3  1  0
  2 36  1  6
  3 26  1  0
  3  4  1  1
  3  5  1  0
  4 37  1  0
  4 38  1  0
  4 39  1  0
  5  6  1  0
  5 40  1  0
  5 41  1  0
  6  7  1  0
  6 42  1  0
  6 43  1  0
  7 28  1  0
  7  8  1  0
  7 44  1  6
  8  9  2  0
  8 45  1  0
  9 10  1  0
  9 28  1  0
 10 11  1  0
 10 12  1  0
 10 46  1  6
 11 47  1  0
 12 13  1  0
 12 48  1  0
 12 49  1  0
 13 26  1  0
 13 14  1  0
 13 50  1  6
 14 23  1  0
 14 15  1  1
 14 16  1  0
 15 51  1  0
 15 52  1  0
 15 53  1  0
 16 17  1  0
 16 54  1  0
 16 55  1  0
 17 18  1  0
 17 56  1  0
 17 57  1  0
 18 19  1  0
 18 20  1  0
 18 58  1  6
 19 59  1  0
 20 21  1  0
 20 22  1  0
 20 23  1  0
 21 60  1  0
 21 61  1  0
 21 62  1  0
 22 63  1  0
 22 64  1  0
 22 65  1  0
 23 24  1  0
 23 66  1  1
 24 25  1  0
 24 67  1  0
 24 68  1  0
 25 26  1  0
 25 69  1  0
 25 70  1  0
 26 27  1  1
 27 71  1  0
 27 72  1  0
 27 73  1  0
 28 31  1  0
 28 29  1  6
 29 30  1  0
 29 74  1  0
 29 75  1  0
 30 31  1  0
 30 76  1  0
 30 77  1  0
 31 32  1  1
 32 78  1  0
 32 79  1  0
 32 80  1  0
M  END
>  <i_m_ct_stereo_status>  (169) 
1

>  <s_m_source_file>  (169) 
/var/tmp/pbs.5076255.sched01/tmp9vbryffn/46pprzbbw9.sdf

>  <i_m_source_file_index>  (169) 
28

>  <i_lp_mmshare_version>  (169) 
48012

>  <i_f3d_flags>  (169) 
0

>  <s_epik_input>  (169) 
W0NAQF0xMjNbQ0BIXTRbQ0gyXVtDSDJdW0NAQF0oW0NIM10pKFtDQEBIXShbQ0gzXSlbQ0BdMyhbQ0gzXSlbQ0gyXVtDSDJdMilbQ0BdNShbQ0gzXSlbQ0BASF0oW0NIMl1bQ0BIXShbT0hdKUMxPVtDSF00KVtDQEBdNihbQ0gzXSlbQ0BASF0oW0NIMl1bQ0gyXTUpQyhbQ0gzXSkoW0NIM10pW0NASF0oW09IXSlbQ0gyXVtDSDJdNg==

>  <s_epik_cmdline>  (169) 
J2VwaWtfcHl0aG9uJywgJy1waHQnLCAnMi4wJywgJy1waCcsICc3LjAnLCAnLXRuJywgJzgnLCAnLW1hJywgJzIwMCcsICctaW1hZScsICc8aW5maWxlLm1hZT4nLCAnLW9tYWUnLCAnPG91dGZpbGUubWFlPic=

>  <r_lp_tautomer_probability>  (169) 
1

>  <r_epik_Ionization_Penalty>  (169) 
3.6279e-06

>  <r_epik_Ionization_Penalty_Charging>  (169) 
0

>  <r_epik_Ionization_Penalty_Neutral>  (169) 
3.6279e-06

>  <r_epik_State_Penalty>  (169) 
-0

>  <r_epik_Charging_Adjusted_Penalty>  (169) 
0

>  <i_epik_Tot_Q>  (169) 
0

>  <i_epik_Tot_abs_Q>  (169) 
0

>  <s_lp_Force_Field>  (169) 
OPLS3e

>  <r_lp_Energy>  (169) 
147.398

>  <b_lp_Chiralities_Consistent>  (169) 
1

>  <s_lp_Variant>  (169) 
42:0-1

>  <s_i_glide_gridfile>  (169) 
pfpi4k_grid

>  <i_i_glide_lignum>  (169) 
28

>  <i_i_glide_rotatable_bonds>  (169) 
2

>  <r_i_docking_score>  (169) 
-2.1043

>  <r_i_glide_ligand_efficiency>  (169) 
-0.0657593

>  <r_i_glide_ligand_efficiency_sa>  (169) 
-0.208773

>  <r_i_glide_ligand_efficiency_ln>  (169) 
-0.47121

>  <r_i_glide_gscore>  (169) 
-2.1043

>  <r_i_glide_lipo>  (169) 
-0.0152681

>  <r_i_glide_hbond>  (169) 
-0.16

>  <r_i_glide_metal>  (169) 
-0

>  <r_i_glide_rewards>  (169) 
-0.404312

>  <r_i_glide_evdw>  (169) 
-13.0466

>  <r_i_glide_ecoul>  (169) 
-5.81594

>  <r_i_glide_erotb>  (169) 
0

>  <r_i_glide_esite>  (169) 
0

>  <r_i_glide_emodel>  (169) 
-22.2761

>  <r_i_glide_energy>  (169) 
-18.8625

>  <r_i_glide_einternal>  (169) 
0.66167

>  <r_i_glide_intrahb_reward>  (169) 
-0

>  <i_i_glide_confnum>  (169) 
1

>  <i_i_glide_posenum>  (169) 
1

>  <r_i_glide_eff_state_penalty>  (169) 
0

>  <ligand_id>  (169) 
42

>  <original_smiles>  (169) 
CC1C2(C)CCC3C=C(C(O)CC4C5(C)CCC(O)C(C)(C)C5CCC42C)C32CCC12C

>  <smiles>  (169) 
[H]OC1([H])C2=C([H])C3([H])C([H])([H])C([H])([H])C(C([H])([H])[H])(C([H])(C([H])([H])[H])C4(C([H])([H])[H])C([H])([H])C([H])([H])C234)C2(C([H])([H])[H])C([H])([H])C([H])([H])C3([H])C(C([H])([H])[H])(C([H])([H])[H])C([H])(O[H])C([H])([H])C([H])([H])C3(C([H])([H])[H])C2([H])C1([H])[H]

$$$$
43:0:0
     RDKit          3D

 41 45  0  0  1  0  0  0  0  0999 V2000
    4.0119   -1.5883    4.3754 C   0  0  0  0  0  0  0  0  0  0  0  0
    4.4097   -2.1135    3.0735 N   0  0  0  0  0  0  0  0  0  0  0  0
    5.0726   -1.4102    2.1295 C   0  0  0  0  0  0  0  0  0  0  0  0
    5.4622   -0.2685    2.3175 O   0  0  0  0  0  0  0  0  0  0  0  0
    5.2927   -2.1077    0.8131 C   0  0  1  0  0  0  0  0  0  0  0  0
    6.7247   -2.4973    0.5102 C   0  0  0  0  0  0  0  0  0  0  0  0
    5.6829   -3.5571    0.7954 C   0  0  2  0  0  0  0  0  0  0  0  0
    4.8759   -4.2472   -0.2845 C   0  0  1  0  0  0  0  0  0  0  0  0
    3.8054   -5.0272    0.3307 N   0  0  0  0  0  0  0  0  0  0  0  0
    2.6024   -4.5797    0.7308 C   0  0  0  0  0  0  0  0  0  0  0  0
    1.7852   -5.4534    1.2955 N   0  0  0  0  0  0  0  0  0  0  0  0
    2.5465   -6.6078    1.2756 C   0  0  0  0  0  0  0  0  0  0  0  0
    2.2511   -7.9207    1.7140 C   0  0  0  0  0  0  0  0  0  0  0  0
    0.9638   -8.2814    2.3410 C   0  0  0  0  0  0  0  0  0  0  0  0
    0.6133   -9.6096    2.7174 C   0  0  0  0  0  0  0  0  0  0  0  0
   -0.5729   -9.7402    3.2524 N   0  0  0  0  0  0  0  0  0  0  0  0
   -1.2360   -8.2116    3.3029 S   0  0  0  0  0  0  0  0  0  0  0  0
    0.0273   -7.3829    2.5922 N   0  0  0  0  0  0  0  0  0  0  0  0
    3.2005   -8.8711    1.5357 N   0  0  0  0  0  0  0  0  0  0  0  0
    4.3605   -8.5315    0.9628 C   0  0  0  0  0  0  0  0  0  0  0  0
    4.7711   -7.3381    0.5046 N   0  0  0  0  0  0  0  0  0  0  0  0
    3.8142   -6.3849    0.6814 C   0  0  0  0  0  0  0  0  0  0  0  0
    4.3374   -3.0985   -1.1874 C   0  0  1  0  0  0  0  0  0  0  0  0
    3.1278   -3.4110   -1.8572 O   0  0  0  0  0  0  0  0  0  0  0  0
    4.3020   -1.8042   -0.3161 C   0  0  1  0  0  0  0  0  0  0  0  0
    3.0249   -1.5756    0.2288 O   0  0  0  0  0  0  0  0  0  0  0  0
    2.9740   -1.2511    4.3553 H   0  0  0  0  0  0  0  0  0  0  0  0
    4.6331   -0.7515    4.6961 H   0  0  0  0  0  0  0  0  0  0  0  0
    4.0939   -2.3714    5.1289 H   0  0  0  0  0  0  0  0  0  0  0  0
    4.1000   -3.0384    2.8351 H   0  0  0  0  0  0  0  0  0  0  0  0
    7.0857   -2.3854   -0.5103 H   0  0  0  0  0  0  0  0  0  0  0  0
    7.4747   -2.3085    1.2775 H   0  0  0  0  0  0  0  0  0  0  0  0
    5.8019   -4.1011    1.7353 H   0  0  0  0  0  0  0  0  0  0  0  0
    5.5280   -4.9166   -0.8549 H   0  0  0  0  0  0  0  0  0  0  0  0
    2.2767   -3.5710    0.5909 H   0  0  0  0  0  0  0  0  0  0  0  0
    1.2294  -10.4865    2.5771 H   0  0  0  0  0  0  0  0  0  0  0  0
    5.0765   -9.3332    0.8623 H   0  0  0  0  0  0  0  0  0  0  0  0
    5.0683   -2.9374   -1.9747 H   0  0  0  0  0  0  0  0  0  0  0  0
    3.1331   -4.3436   -2.1139 H   0  0  0  0  0  0  0  0  0  0  0  0
    4.6215   -0.9241   -0.8828 H   0  0  0  0  0  0  0  0  0  0  0  0
    2.3477   -1.4436   -0.4295 H   0  0  0  0  0  0  0  0  0  0  0  0
  1  2  1  0
  1 27  1  0
  1 28  1  0
  1 29  1  0
  2  3  1  0
  2 30  1  0
  3  4  2  0
  5  3  1  1
  5  7  1  0
  5 25  1  0
  5  6  1  0
  6  7  1  0
  6 31  1  0
  6 32  1  0
  7  8  1  0
  7 33  1  1
  8  9  1  0
  8 23  1  0
  8 34  1  6
  9 22  1  0
  9 10  1  0
 10 11  2  0
 10 35  1  0
 11 12  1  0
 12 22  2  0
 12 13  1  0
 13 14  1  0
 13 19  2  0
 14 18  2  0
 14 15  1  0
 15 16  2  0
 15 36  1  0
 16 17  1  0
 17 18  1  0
 19 20  1  0
 20 21  2  0
 20 37  1  0
 21 22  1  0
 23 24  1  0
 23 25  1  0
 23 38  1  6
 24 39  1  0
 25 26  1  0
 25 40  1  6
 26 41  1  0
M  END
>  <i_m_ct_stereo_status>  (170) 
1

>  <s_m_source_file>  (170) 
/var/tmp/pbs.5076255.sched01/tmp9vbryffn/46pprzbbw9.sdf

>  <i_m_source_file_index>  (170) 
29

>  <i_lp_mmshare_version>  (170) 
48012

>  <i_f3d_flags>  (170) 
0

>  <s_epik_input>  (170) 
W0NIM11bTkhdQyg9TylbQ0BdMTJbQ0BIXShbQ0gyXTEpW0NASF0oW0NAQEhdKFtPSF0pW0NASF0yW09IXSluKFtjSF1uMyljKGMzNCluW2NIXW5jNC1jNVtjSF1uc241

>  <s_epik_cmdline>  (170) 
J2VwaWtfcHl0aG9uJywgJy1waHQnLCAnMi4wJywgJy1waCcsICc3LjAnLCAnLXRuJywgJzgnLCAnLW1hJywgJzIwMCcsICctaW1hZScsICc8aW5maWxlLm1hZT4nLCAnLW9tYWUnLCAnPG91dGZpbGUubWFlPic=

>  <r_lp_tautomer_probability>  (170) 
1

>  <r_epik_Ionization_Penalty>  (170) 
3.79399e-05

>  <r_epik_Ionization_Penalty_Charging>  (170) 
0

>  <r_epik_Ionization_Penalty_Neutral>  (170) 
3.79399e-05

>  <r_epik_State_Penalty>  (170) 
-0

>  <r_epik_Charging_Adjusted_Penalty>  (170) 
0

>  <i_epik_Tot_Q>  (170) 
0

>  <i_epik_Tot_abs_Q>  (170) 
0

>  <s_lp_Force_Field>  (170) 
OPLS3e

>  <r_lp_Energy>  (170) 
31.6444

>  <b_lp_Chiralities_Consistent>  (170) 
1

>  <s_lp_Variant>  (170) 
43:0-1

>  <s_i_glide_gridfile>  (170) 
pfpi4k_grid

>  <i_i_glide_lignum>  (170) 
29

>  <i_i_glide_rotatable_bonds>  (170) 
6

>  <r_i_docking_score>  (170) 
-4.01169

>  <r_i_glide_ligand_efficiency>  (170) 
-0.154296

>  <r_i_glide_ligand_efficiency_sa>  (170) 
-0.4571

>  <r_i_glide_ligand_efficiency_ln>  (170) 
-0.942131

>  <r_i_glide_gscore>  (170) 
-4.01169

>  <r_i_glide_lipo>  (170) 
-0.263755

>  <r_i_glide_hbond>  (170) 
-0.242938

>  <r_i_glide_metal>  (170) 
-0

>  <r_i_glide_rewards>  (170) 
-1.09867

>  <r_i_glide_evdw>  (170) 
-27.8602

>  <r_i_glide_ecoul>  (170) 
-9.14074

>  <r_i_glide_erotb>  (170) 
0.415819

>  <r_i_glide_esite>  (170) 
-0.0580207

>  <r_i_glide_emodel>  (170) 
-44.3705

>  <r_i_glide_energy>  (170) 
-37.001

>  <r_i_glide_einternal>  (170) 
5.18349

>  <r_i_glide_intrahb_reward>  (170) 
-0

>  <i_i_glide_confnum>  (170) 
2

>  <i_i_glide_posenum>  (170) 
19

>  <r_i_glide_eff_state_penalty>  (170) 
0

>  <ligand_id>  (170) 
43

>  <original_smiles>  (170) 
CNC(=O)C12CC1C(n1cnc3c(-c4cnsn4)ncnc31)C(O)C2O

>  <smiles>  (170) 
[H]OC1([H])C([H])(O[H])C2(C(=O)N([H])C([H])([H])[H])C([H])([H])C2([H])C1([H])n1c([H])nc2c(-c3nsnc3[H])nc([H])nc21

$$$$
43:0:1
     RDKit          3D

 41 45  0  0  1  0  0  0  0  0999 V2000
    3.1506   -4.0498   -0.4020 C   0  0  0  0  0  0  0  0  0  0  0  0
    2.7845   -5.3694    0.1048 N   0  0  0  0  0  0  0  0  0  0  0  0
    2.6375   -5.6733    1.4023 C   0  0  0  0  0  0  0  0  0  0  0  0
    2.8182   -4.8469    2.2962 O   0  0  0  0  0  0  0  0  0  0  0  0
    2.2121   -7.0876    1.6976 C   0  0  1  0  0  0  0  0  0  0  0  0
    3.2878   -8.1606    1.6708 C   0  0  0  0  0  0  0  0  0  0  0  0
    2.7279   -7.6881    2.9901 C   0  0  2  0  0  0  0  0  0  0  0  0
    1.5717   -8.3465    3.7202 C   0  0  1  0  0  0  0  0  0  0  0  0
    1.1561   -7.5141    4.8604 N   0  0  0  0  0  0  0  0  0  0  0  0
    0.9418   -6.1905    4.8678 C   0  0  0  0  0  0  0  0  0  0  0  0
    0.5105   -5.6214    5.9882 N   0  0  0  0  0  0  0  0  0  0  0  0
    0.5096   -6.7061    6.8396 C   0  0  0  0  0  0  0  0  0  0  0  0
    0.2138   -6.8195    8.2191 C   0  0  0  0  0  0  0  0  0  0  0  0
   -0.1844   -5.6646    9.0447 C   0  0  0  0  0  0  0  0  0  0  0  0
   -0.6492   -4.3918    8.5695 C   0  0  0  0  0  0  0  0  0  0  0  0
   -0.9689   -3.5226    9.5037 N   0  0  0  0  0  0  0  0  0  0  0  0
   -0.6726   -4.2999   10.9547 S   0  0  0  0  0  0  0  0  0  0  0  0
   -0.1355   -5.7637   10.3575 N   0  0  0  0  0  0  0  0  0  0  0  0
    0.2855   -8.0553    8.7798 N   0  0  0  0  0  0  0  0  0  0  0  0
    0.6605   -9.0989    8.0287 C   0  0  0  0  0  0  0  0  0  0  0  0
    0.9784   -9.1359    6.7354 N   0  0  0  0  0  0  0  0  0  0  0  0
    0.8899   -7.9029    6.1703 C   0  0  0  0  0  0  0  0  0  0  0  0
    0.4510   -8.5002    2.6550 C   0  0  1  0  0  0  0  0  0  0  0  0
   -0.8672   -8.4929    3.1930 O   0  0  0  0  0  0  0  0  0  0  0  0
    0.7100   -7.3992    1.5758 C   0  0  1  0  0  0  0  0  0  0  0  0
   -0.0813   -6.2568    1.8475 O   0  0  0  0  0  0  0  0  0  0  0  0
    4.2243   -4.0113   -0.5989 H   0  0  0  0  0  0  0  0  0  0  0  0
    2.8981   -3.2415    0.2903 H   0  0  0  0  0  0  0  0  0  0  0  0
    2.6303   -3.8524   -1.3430 H   0  0  0  0  0  0  0  0  0  0  0  0
    2.6512   -6.0860   -0.5940 H   0  0  0  0  0  0  0  0  0  0  0  0
    3.0139   -9.1503    1.3192 H   0  0  0  0  0  0  0  0  0  0  0  0
    4.3084   -7.8639    1.4320 H   0  0  0  0  0  0  0  0  0  0  0  0
    3.4176   -7.1193    3.6164 H   0  0  0  0  0  0  0  0  0  0  0  0
    1.8882   -9.3218    4.0894 H   0  0  0  0  0  0  0  0  0  0  0  0
    1.1091   -5.5714    4.0070 H   0  0  0  0  0  0  0  0  0  0  0  0
   -0.7718   -4.0903    7.5410 H   0  0  0  0  0  0  0  0  0  0  0  0
    0.7294  -10.0361    8.5512 H   0  0  0  0  0  0  0  0  0  0  0  0
    0.5869   -9.4699    2.1661 H   0  0  0  0  0  0  0  0  0  0  0  0
   -0.9757   -9.2316    3.7803 H   0  0  0  0  0  0  0  0  0  0  0  0
    0.4773   -7.7582    0.5698 H   0  0  0  0  0  0  0  0  0  0  0  0
    0.1385   -6.0165    2.7311 H   0  0  0  0  0  0  0  0  0  0  0  0
  1  2  1  0
  1 27  1  0
  1 28  1  0
  1 29  1  0
  2  3  1  0
  2 30  1  0
  3  4  2  0
  5  3  1  1
  5  7  1  0
  5 25  1  0
  5  6  1  0
  6  7  1  0
  6 31  1  0
  6 32  1  0
  7  8  1  0
  7 33  1  1
  8  9  1  0
  8 23  1  0
  8 34  1  1
  9 22  1  0
  9 10  1  0
 10 11  2  0
 10 35  1  0
 11 12  1  0
 12 22  2  0
 12 13  1  0
 13 14  1  0
 13 19  2  0
 14 18  2  0
 14 15  1  0
 15 16  2  0
 15 36  1  0
 16 17  1  0
 17 18  1  0
 19 20  1  0
 20 21  2  0
 20 37  1  0
 21 22  1  0
 23 24  1  0
 23 25  1  0
 23 38  1  6
 24 39  1  0
 25 26  1  0
 25 40  1  6
 26 41  1  0
M  END
>  <i_m_ct_stereo_status>  (171) 
1

>  <s_m_source_file>  (171) 
/var/tmp/pbs.5076255.sched01/tmp9vbryffn/46pprzbbw9.sdf

>  <i_m_source_file_index>  (171) 
29

>  <i_lp_mmshare_version>  (171) 
48012

>  <i_f3d_flags>  (171) 
0

>  <s_epik_input>  (171) 
W0NIM11bTkhdQyg9TylbQ0BdMTJbQ0BIXShbQ0gyXTEpW0NASF0oW0NAQEhdKFtPSF0pW0NASF0yW09IXSluKFtjSF1uMyljKGMzNCluW2NIXW5jNC1jNVtjSF1uc241

>  <s_epik_cmdline>  (171) 
J2VwaWtfcHl0aG9uJywgJy1waHQnLCAnMi4wJywgJy1waCcsICc3LjAnLCAnLXRuJywgJzgnLCAnLW1hJywgJzIwMCcsICctaW1hZScsICc8aW5maWxlLm1hZT4nLCAnLW9tYWUnLCAnPG91dGZpbGUubWFlPic=

>  <r_lp_tautomer_probability>  (171) 
1

>  <r_epik_Ionization_Penalty>  (171) 
3.79399e-05

>  <r_epik_Ionization_Penalty_Charging>  (171) 
0

>  <r_epik_Ionization_Penalty_Neutral>  (171) 
3.79399e-05

>  <r_epik_State_Penalty>  (171) 
-0

>  <r_epik_Charging_Adjusted_Penalty>  (171) 
0

>  <i_epik_Tot_Q>  (171) 
0

>  <i_epik_Tot_abs_Q>  (171) 
0

>  <s_lp_Force_Field>  (171) 
OPLS3e

>  <r_lp_Energy>  (171) 
31.6444

>  <b_lp_Chiralities_Consistent>  (171) 
1

>  <s_lp_Variant>  (171) 
43:0-1

>  <s_i_glide_gridfile>  (171) 
pfpi4k_grid

>  <i_i_glide_lignum>  (171) 
29

>  <i_i_glide_rotatable_bonds>  (171) 
6

>  <r_i_docking_score>  (171) 
-3.78869

>  <r_i_glide_ligand_efficiency>  (171) 
-0.145719

>  <r_i_glide_ligand_efficiency_sa>  (171) 
-0.431691

>  <r_i_glide_ligand_efficiency_ln>  (171) 
-0.889761

>  <r_i_glide_gscore>  (171) 
-3.78869

>  <r_i_glide_lipo>  (171) 
0

>  <r_i_glide_hbond>  (171) 
-0.549723

>  <r_i_glide_metal>  (171) 
-0

>  <r_i_glide_rewards>  (171) 
-0.863245

>  <r_i_glide_evdw>  (171) 
-21.6285

>  <r_i_glide_ecoul>  (171) 
-10.2723

>  <r_i_glide_erotb>  (171) 
0.415819

>  <r_i_glide_esite>  (171) 
-0.169277

>  <r_i_glide_emodel>  (171) 
-40.5206

>  <r_i_glide_energy>  (171) 
-31.9008

>  <r_i_glide_einternal>  (171) 
2.88481

>  <r_i_glide_intrahb_reward>  (171) 
-0

>  <i_i_glide_confnum>  (171) 
3

>  <i_i_glide_posenum>  (171) 
29

>  <r_i_glide_eff_state_penalty>  (171) 
0

>  <ligand_id>  (171) 
43

>  <original_smiles>  (171) 
CNC(=O)C12CC1C(n1cnc3c(-c4cnsn4)ncnc31)C(O)C2O

>  <smiles>  (171) 
[H]OC1([H])C([H])(O[H])C2(C(=O)N([H])C([H])([H])[H])C([H])([H])C2([H])C1([H])n1c([H])nc2c(-c3nsnc3[H])nc([H])nc21

$$$$
43:0:2
     RDKit          3D

 41 45  0  0  1  0  0  0  0  0999 V2000
    3.0306   -1.5449   -3.7259 C   0  0  0  0  0  0  0  0  0  0  0  0
    3.9237   -1.9171   -2.6381 N   0  0  0  0  0  0  0  0  0  0  0  0
    4.8327   -2.9024   -2.6739 C   0  0  0  0  0  0  0  0  0  0  0  0
    5.0236   -3.5777   -3.6808 O   0  0  0  0  0  0  0  0  0  0  0  0
    5.5954   -3.1283   -1.3945 C   0  0  1  0  0  0  0  0  0  0  0  0
    7.0716   -2.7522   -1.4307 C   0  0  0  0  0  0  0  0  0  0  0  0
    6.1007   -1.9658   -0.5822 C   0  0  2  0  0  0  0  0  0  0  0  0
    5.8518   -2.2696    0.8821 C   0  0  1  0  0  0  0  0  0  0  0  0
    4.7019   -1.4962    1.3515 N   0  0  0  0  0  0  0  0  0  0  0  0
    3.5068   -1.4006    0.7397 C   0  0  0  0  0  0  0  0  0  0  0  0
    2.5876   -0.6540    1.3196 N   0  0  0  0  0  0  0  0  0  0  0  0
    3.2282   -0.2389    2.4575 C   0  0  0  0  0  0  0  0  0  0  0  0
    2.8046    0.5837    3.5298 C   0  0  0  0  0  0  0  0  0  0  0  0
    1.4680    1.2084    3.5993 C   0  0  0  0  0  0  0  0  0  0  0  0
    1.0691    2.1522    4.5987 C   0  0  0  0  0  0  0  0  0  0  0  0
   -0.1647    2.5957    4.4933 N   0  0  0  0  0  0  0  0  0  0  0  0
   -0.7956    1.8600    3.1270 S   0  0  0  0  0  0  0  0  0  0  0  0
    0.5299    0.9324    2.7161 N   0  0  0  0  0  0  0  0  0  0  0  0
    3.6953    0.8119    4.5275 N   0  0  0  0  0  0  0  0  0  0  0  0
    4.9098    0.2505    4.4718 C   0  0  0  0  0  0  0  0  0  0  0  0
    5.4353   -0.5339    3.5286 N   0  0  0  0  0  0  0  0  0  0  0  0
    4.5472   -0.7603    2.5258 C   0  0  0  0  0  0  0  0  0  0  0  0
    5.5862   -3.8005    0.9513 C   0  0  1  0  0  0  0  0  0  0  0  0
    4.7480   -4.1676    2.0463 O   0  0  0  0  0  0  0  0  0  0  0  0
    5.0793   -4.2276   -0.4618 C   0  0  1  0  0  0  0  0  0  0  0  0
    3.6620   -4.3389   -0.4572 O   0  0  0  0  0  0  0  0  0  0  0  0
    2.0749   -2.0648   -3.6178 H   0  0  0  0  0  0  0  0  0  0  0  0
    3.4442   -1.7857   -4.7092 H   0  0  0  0  0  0  0  0  0  0  0  0
    2.8386   -0.4684   -3.6900 H   0  0  0  0  0  0  0  0  0  0  0  0
    3.7648   -1.4477   -1.7630 H   0  0  0  0  0  0  0  0  0  0  0  0
    7.7856   -3.4036   -0.9284 H   0  0  0  0  0  0  0  0  0  0  0  0
    7.4653   -2.2668   -2.3215 H   0  0  0  0  0  0  0  0  0  0  0  0
    5.8881   -0.9475   -0.9042 H   0  0  0  0  0  0  0  0  0  0  0  0
    6.7250   -1.9981    1.4836 H   0  0  0  0  0  0  0  0  0  0  0  0
    3.2686   -1.8976   -0.1818 H   0  0  0  0  0  0  0  0  0  0  0  0
    1.6875    2.5074    5.4042 H   0  0  0  0  0  0  0  0  0  0  0  0
    5.5637    0.4755    5.2962 H   0  0  0  0  0  0  0  0  0  0  0  0
    6.5482   -4.2875    1.1160 H   0  0  0  0  0  0  0  0  0  0  0  0
    5.1161   -4.9228    2.4874 H   0  0  0  0  0  0  0  0  0  0  0  0
    5.4968   -5.1941   -0.7491 H   0  0  0  0  0  0  0  0  0  0  0  0
    3.3738   -4.6588   -1.3088 H   0  0  0  0  0  0  0  0  0  0  0  0
  1  2  1  0
  1 27  1  0
  1 28  1  0
  1 29  1  0
  2  3  1  0
  2 30  1  0
  3  4  2  0
  5  3  1  6
  5  7  1  0
  5 25  1  0
  5  6  1  0
  6  7  1  0
  6 31  1  0
  6 32  1  0
  7  8  1  0
  7 33  1  6
  8  9  1  0
  8 23  1  0
  8 34  1  1
  9 22  1  0
  9 10  1  0
 10 11  2  0
 10 35  1  0
 11 12  1  0
 12 22  2  0
 12 13  1  0
 13 14  1  0
 13 19  2  0
 14 18  2  0
 14 15  1  0
 15 16  2  0
 15 36  1  0
 16 17  1  0
 17 18  1  0
 19 20  1  0
 20 21  2  0
 20 37  1  0
 21 22  1  0
 23 24  1  0
 23 25  1  0
 23 38  1  1
 24 39  1  0
 25 26  1  0
 25 40  1  6
 26 41  1  0
M  END
>  <i_m_ct_stereo_status>  (172) 
1

>  <s_m_source_file>  (172) 
/var/tmp/pbs.5076255.sched01/tmp9vbryffn/46pprzbbw9.sdf

>  <i_m_source_file_index>  (172) 
29

>  <i_lp_mmshare_version>  (172) 
48012

>  <i_f3d_flags>  (172) 
0

>  <s_epik_input>  (172) 
W0NIM11bTkhdQyg9TylbQ0BdMTJbQ0BIXShbQ0gyXTEpW0NASF0oW0NAQEhdKFtPSF0pW0NASF0yW09IXSluKFtjSF1uMyljKGMzNCluW2NIXW5jNC1jNVtjSF1uc241

>  <s_epik_cmdline>  (172) 
J2VwaWtfcHl0aG9uJywgJy1waHQnLCAnMi4wJywgJy1waCcsICc3LjAnLCAnLXRuJywgJzgnLCAnLW1hJywgJzIwMCcsICctaW1hZScsICc8aW5maWxlLm1hZT4nLCAnLW9tYWUnLCAnPG91dGZpbGUubWFlPic=

>  <r_lp_tautomer_probability>  (172) 
1

>  <r_epik_Ionization_Penalty>  (172) 
3.79399e-05

>  <r_epik_Ionization_Penalty_Charging>  (172) 
0

>  <r_epik_Ionization_Penalty_Neutral>  (172) 
3.79399e-05

>  <r_epik_State_Penalty>  (172) 
-0

>  <r_epik_Charging_Adjusted_Penalty>  (172) 
0

>  <i_epik_Tot_Q>  (172) 
0

>  <i_epik_Tot_abs_Q>  (172) 
0

>  <s_lp_Force_Field>  (172) 
OPLS3e

>  <r_lp_Energy>  (172) 
31.6444

>  <b_lp_Chiralities_Consistent>  (172) 
1

>  <s_lp_Variant>  (172) 
43:0-1

>  <s_i_glide_gridfile>  (172) 
pfpi4k_grid

>  <i_i_glide_lignum>  (172) 
29

>  <i_i_glide_rotatable_bonds>  (172) 
6

>  <r_i_docking_score>  (172) 
-3.46008

>  <r_i_glide_ligand_efficiency>  (172) 
-0.13308

>  <r_i_glide_ligand_efficiency_sa>  (172) 
-0.394249

>  <r_i_glide_ligand_efficiency_ln>  (172) 
-0.812588

>  <r_i_glide_gscore>  (172) 
-3.46008

>  <r_i_glide_lipo>  (172) 
-0.460694

>  <r_i_glide_hbond>  (172) 
0

>  <r_i_glide_metal>  (172) 
-0

>  <r_i_glide_rewards>  (172) 
-1.30728

>  <r_i_glide_evdw>  (172) 
-33.1129

>  <r_i_glide_ecoul>  (172) 
-2.61534

>  <r_i_glide_erotb>  (172) 
0.415819

>  <r_i_glide_esite>  (172) 
-0.0599752

>  <r_i_glide_emodel>  (172) 
-43.0412

>  <r_i_glide_energy>  (172) 
-35.7283

>  <r_i_glide_einternal>  (172) 
3.06997

>  <r_i_glide_intrahb_reward>  (172) 
-0

>  <i_i_glide_confnum>  (172) 
2

>  <i_i_glide_posenum>  (172) 
15

>  <r_i_glide_eff_state_penalty>  (172) 
0

>  <ligand_id>  (172) 
43

>  <original_smiles>  (172) 
CNC(=O)C12CC1C(n1cnc3c(-c4cnsn4)ncnc31)C(O)C2O

>  <smiles>  (172) 
[H]OC1([H])C([H])(O[H])C2(C(=O)N([H])C([H])([H])[H])C([H])([H])C2([H])C1([H])n1c([H])nc2c(-c3nsnc3[H])nc([H])nc21

$$$$
44:0:0
     RDKit          3D

 25 27  0  0  1  0  0  0  0  0999 V2000
    4.4174   -9.0723    0.9192 C   0  0  0  0  0  0  0  0  0  0  0  0
    4.2307   -7.9646    1.9651 C   0  0  0  0  0  0  0  0  0  0  0  0
    3.4828   -6.8403    1.3955 N   0  0  0  0  0  0  0  0  0  0  0  0
    2.1317   -6.6277    1.3702 C   0  0  0  0  0  0  0  0  0  0  0  0
    1.0970   -7.5372    1.9092 C   0  0  0  0  0  0  0  0  0  0  0  0
    1.1991   -8.8317    2.3659 C   0  0  0  0  0  0  0  0  0  0  0  0
   -0.3479   -9.3790    2.8955 S   0  0  0  0  0  0  0  0  0  0  0  0
   -1.0959   -7.9297    2.4831 N   0  0  0  0  0  0  0  0  0  0  0  0
   -0.2300   -7.0828    1.9965 N   0  0  0  0  0  0  0  0  0  0  0  0
    1.7900   -5.4716    0.7713 N   0  0  0  0  0  0  0  0  0  0  0  0
    2.9925   -4.9271    0.3701 C   0  0  0  0  0  0  0  0  0  0  0  0
    3.3071   -3.7345   -0.3143 C   0  0  0  0  0  0  0  0  0  0  0  0
    4.6645   -3.4649   -0.5884 C   0  0  0  0  0  0  0  0  0  0  0  0
    5.6460   -4.3875   -0.1677 C   0  0  0  0  0  0  0  0  0  0  0  0
    5.3871   -5.5342    0.4927 N   0  0  0  0  0  0  0  0  0  0  0  0
    4.0669   -5.7632    0.7366 C   0  0  0  0  0  0  0  0  0  0  0  0
    4.9403   -9.9289    1.3417 H   0  0  0  0  0  0  0  0  0  0  0  0
    5.0114   -8.7020    0.0813 H   0  0  0  0  0  0  0  0  0  0  0  0
    3.4743   -9.4371    0.5066 H   0  0  0  0  0  0  0  0  0  0  0  0
    3.7389   -8.3152    2.8737 H   0  0  0  0  0  0  0  0  0  0  0  0
    5.2012   -7.5965    2.2905 H   0  0  0  0  0  0  0  0  0  0  0  0
    2.0545   -9.5044    2.4090 H   0  0  0  0  0  0  0  0  0  0  0  0
    2.5314   -3.0504   -0.6262 H   0  0  0  0  0  0  0  0  0  0  0  0
    4.9447   -2.5708   -1.1199 H   0  0  0  0  0  0  0  0  0  0  0  0
    6.6933   -4.2007   -0.3788 H   0  0  0  0  0  0  0  0  0  0  0  0
  1  2  1  0
  1 17  1  0
  1 18  1  0
  1 19  1  0
  2  3  1  0
  2 20  1  0
  2 21  1  0
  3 16  1  0
  3  4  1  0
  4  5  1  0
  4 10  2  0
  5  9  1  0
  5  6  2  0
  6  7  1  0
  6 22  1  0
  7  8  1  0
  8  9  2  0
 10 11  1  0
 11 16  2  0
 11 12  1  0
 12 13  2  0
 12 23  1  0
 13 14  1  0
 13 24  1  0
 14 15  2  0
 14 25  1  0
 15 16  1  0
M  END
>  <i_m_ct_stereo_status>  (173) 
1

>  <s_m_source_file>  (173) 
/var/tmp/pbs.5076255.sched01/tmp9vbryffn/46pprzbbw9.sdf

>  <i_m_source_file_index>  (173) 
30

>  <i_lp_mmshare_version>  (173) 
48012

>  <i_f3d_flags>  (173) 
0

>  <s_epik_input>  (173) 
W2NIXTFbY0hdW2NIXW5jKGMxMiluKFtDSDJdW0NIM10pYyhuMiktYzNbY0hdc25uMw==

>  <s_epik_cmdline>  (173) 
J2VwaWtfcHl0aG9uJywgJy1waHQnLCAnMi4wJywgJy1waCcsICc3LjAnLCAnLXRuJywgJzgnLCAnLW1hJywgJzIwMCcsICctaW1hZScsICc8aW5maWxlLm1hZT4nLCAnLW9tYWUnLCAnPG91dGZpbGUubWFlPic=

>  <r_lp_tautomer_probability>  (173) 
1

>  <r_epik_Ionization_Penalty>  (173) 
0.00011584

>  <r_epik_Ionization_Penalty_Charging>  (173) 
0.000111052

>  <r_epik_Ionization_Penalty_Neutral>  (173) 
4.7881e-06

>  <r_epik_State_Penalty>  (173) 
-0

>  <r_epik_Charging_Adjusted_Penalty>  (173) 
0.000111052

>  <i_epik_Tot_Q>  (173) 
0

>  <i_epik_Tot_abs_Q>  (173) 
0

>  <s_lp_Force_Field>  (173) 
OPLS3e

>  <r_lp_Energy>  (173) 
18.144

>  <b_lp_Chiralities_Consistent>  (173) 
1

>  <s_lp_Variant>  (173) 
44:0-1

>  <s_i_glide_gridfile>  (173) 
pfpi4k_grid

>  <i_i_glide_lignum>  (173) 
30

>  <i_i_glide_rotatable_bonds>  (173) 
2

>  <r_i_docking_score>  (173) 
-3.8234

>  <r_i_glide_ligand_efficiency>  (173) 
-0.238963

>  <r_i_glide_ligand_efficiency_sa>  (173) 
-0.602148

>  <r_i_glide_ligand_efficiency_ln>  (173) 
-1.01347

>  <r_i_glide_gscore>  (173) 
-3.8234

>  <r_i_glide_lipo>  (173) 
-0.0975429

>  <r_i_glide_hbond>  (173) 
-0.108908

>  <r_i_glide_metal>  (173) 
-0

>  <r_i_glide_rewards>  (173) 
-2.01295

>  <r_i_glide_evdw>  (173) 
-22.9229

>  <r_i_glide_ecoul>  (173) 
-3.99878

>  <r_i_glide_erotb>  (173) 
0.319771

>  <r_i_glide_esite>  (173) 
-0.177819

>  <r_i_glide_emodel>  (173) 
-32.837

>  <r_i_glide_energy>  (173) 
-26.9216

>  <r_i_glide_einternal>  (173) 
2.80648

>  <r_i_glide_intrahb_reward>  (173) 
-0

>  <i_i_glide_confnum>  (173) 
3

>  <i_i_glide_posenum>  (173) 
31

>  <r_i_glide_eff_state_penalty>  (173) 
0

>  <ligand_id>  (173) 
44

>  <original_smiles>  (173) 
CCn1c(-c2csnn2)nc2cccnc21

>  <smiles>  (173) 
[H]c1nc2c(nc(-c3nnsc3[H])n2C([H])([H])C([H])([H])[H])c([H])c1[H]

$$$$
44:0:1
     RDKit          3D

 25 27  0  0  1  0  0  0  0  0999 V2000
    4.6512   -1.1270    1.5531 C   0  0  0  0  0  0  0  0  0  0  0  0
    5.0079   -2.4772    0.8908 C   0  0  0  0  0  0  0  0  0  0  0  0
    3.9553   -2.8751   -0.0625 N   0  0  0  0  0  0  0  0  0  0  0  0
    2.9601   -3.7914    0.0699 C   0  0  0  0  0  0  0  0  0  0  0  0
    2.6991   -4.6580    1.2410 C   0  0  0  0  0  0  0  0  0  0  0  0
    3.1408   -4.5685    2.5485 C   0  0  0  0  0  0  0  0  0  0  0  0
    2.5153   -5.9218    3.4401 S   0  0  0  0  0  0  0  0  0  0  0  0
    1.6331   -6.4999    2.1300 N   0  0  0  0  0  0  0  0  0  0  0  0
    1.8546   -5.7814    1.0698 N   0  0  0  0  0  0  0  0  0  0  0  0
    2.1457   -3.8552   -1.0111 N   0  0  0  0  0  0  0  0  0  0  0  0
    2.7094   -2.9783   -1.9121 C   0  0  0  0  0  0  0  0  0  0  0  0
    2.3681   -2.6206   -3.2369 C   0  0  0  0  0  0  0  0  0  0  0  0
    3.1351   -1.6132   -3.8709 C   0  0  0  0  0  0  0  0  0  0  0  0
    4.2061   -1.0278   -3.1712 C   0  0  0  0  0  0  0  0  0  0  0  0
    4.5886   -1.3655   -1.9256 N   0  0  0  0  0  0  0  0  0  0  0  0
    3.8178   -2.3264   -1.3357 C   0  0  0  0  0  0  0  0  0  0  0  0
    5.4008   -0.8528    2.2928 H   0  0  0  0  0  0  0  0  0  0  0  0
    3.6822   -1.1504    2.0579 H   0  0  0  0  0  0  0  0  0  0  0  0
    4.6043   -0.3124    0.8229 H   0  0  0  0  0  0  0  0  0  0  0  0
    5.9363   -2.3640    0.3121 H   0  0  0  0  0  0  0  0  0  0  0  0
    5.1974   -3.2598    1.6188 H   0  0  0  0  0  0  0  0  0  0  0  0
    3.7756   -3.8376    3.0388 H   0  0  0  0  0  0  0  0  0  0  0  0
    1.5157   -3.0605   -3.7292 H   0  0  0  0  0  0  0  0  0  0  0  0
    2.8879   -1.2486   -4.8569 H   0  0  0  0  0  0  0  0  0  0  0  0
    4.7732   -0.2408   -3.6405 H   0  0  0  0  0  0  0  0  0  0  0  0
  1  2  1  0
  1 17  1  0
  1 18  1  0
  1 19  1  0
  2  3  1  0
  2 20  1  0
  2 21  1  0
  3 16  1  0
  3  4  1  0
  4  5  1  0
  4 10  2  0
  5  9  1  0
  5  6  2  0
  6  7  1  0
  6 22  1  0
  7  8  1  0
  8  9  2  0
 10 11  1  0
 11 16  2  0
 11 12  1  0
 12 13  2  0
 12 23  1  0
 13 14  1  0
 13 24  1  0
 14 15  2  0
 14 25  1  0
 15 16  1  0
M  END
>  <i_m_ct_stereo_status>  (174) 
1

>  <s_m_source_file>  (174) 
/var/tmp/pbs.5076255.sched01/tmp9vbryffn/46pprzbbw9.sdf

>  <i_m_source_file_index>  (174) 
30

>  <i_lp_mmshare_version>  (174) 
48012

>  <i_f3d_flags>  (174) 
0

>  <s_epik_input>  (174) 
W2NIXTFbY0hdW2NIXW5jKGMxMiluKFtDSDJdW0NIM10pYyhuMiktYzNbY0hdc25uMw==

>  <s_epik_cmdline>  (174) 
J2VwaWtfcHl0aG9uJywgJy1waHQnLCAnMi4wJywgJy1waCcsICc3LjAnLCAnLXRuJywgJzgnLCAnLW1hJywgJzIwMCcsICctaW1hZScsICc8aW5maWxlLm1hZT4nLCAnLW9tYWUnLCAnPG91dGZpbGUubWFlPic=

>  <r_lp_tautomer_probability>  (174) 
1

>  <r_epik_Ionization_Penalty>  (174) 
0.00011584

>  <r_epik_Ionization_Penalty_Charging>  (174) 
0.000111052

>  <r_epik_Ionization_Penalty_Neutral>  (174) 
4.7881e-06

>  <r_epik_State_Penalty>  (174) 
-0

>  <r_epik_Charging_Adjusted_Penalty>  (174) 
0.000111052

>  <i_epik_Tot_Q>  (174) 
0

>  <i_epik_Tot_abs_Q>  (174) 
0

>  <s_lp_Force_Field>  (174) 
OPLS3e

>  <r_lp_Energy>  (174) 
18.144

>  <b_lp_Chiralities_Consistent>  (174) 
1

>  <s_lp_Variant>  (174) 
44:0-1

>  <s_i_glide_gridfile>  (174) 
pfpi4k_grid

>  <i_i_glide_lignum>  (174) 
30

>  <i_i_glide_rotatable_bonds>  (174) 
2

>  <r_i_docking_score>  (174) 
-3.46465

>  <r_i_glide_ligand_efficiency>  (174) 
-0.216541

>  <r_i_glide_ligand_efficiency_sa>  (174) 
-0.545648

>  <r_i_glide_ligand_efficiency_ln>  (174) 
-0.918375

>  <r_i_glide_gscore>  (174) 
-3.46465

>  <r_i_glide_lipo>  (174) 
-0.465577

>  <r_i_glide_hbond>  (174) 
0

>  <r_i_glide_metal>  (174) 
-0

>  <r_i_glide_rewards>  (174) 
-1.8322

>  <r_i_glide_evdw>  (174) 
-20.4606

>  <r_i_glide_ecoul>  (174) 
-2.0296

>  <r_i_glide_erotb>  (174) 
0.319771

>  <r_i_glide_esite>  (174) 
-0.159181

>  <r_i_glide_emodel>  (174) 
-27.3364

>  <r_i_glide_energy>  (174) 
-22.4902

>  <r_i_glide_einternal>  (174) 
2.95604

>  <r_i_glide_intrahb_reward>  (174) 
-0

>  <i_i_glide_confnum>  (174) 
6

>  <i_i_glide_posenum>  (174) 
16

>  <r_i_glide_eff_state_penalty>  (174) 
0

>  <ligand_id>  (174) 
44

>  <original_smiles>  (174) 
CCn1c(-c2csnn2)nc2cccnc21

>  <smiles>  (174) 
[H]c1nc2c(nc(-c3nnsc3[H])n2C([H])([H])C([H])([H])[H])c([H])c1[H]

$$$$
44:0:2
     RDKit          3D

 25 27  0  0  1  0  0  0  0  0999 V2000
    5.6282   -6.1431    2.3688 C   0  0  0  0  0  0  0  0  0  0  0  0
    5.3730   -6.3127    0.8533 C   0  0  0  0  0  0  0  0  0  0  0  0
    4.3902   -5.3457    0.3618 N   0  0  0  0  0  0  0  0  0  0  0  0
    3.0354   -5.3483    0.5029 C   0  0  0  0  0  0  0  0  0  0  0  0
    2.2496   -6.4069    1.2083 C   0  0  0  0  0  0  0  0  0  0  0  0
    2.6107   -7.5454    1.8680 C   0  0  0  0  0  0  0  0  0  0  0  0
    1.1998   -8.3474    2.4602 S   0  0  0  0  0  0  0  0  0  0  0  0
    0.1754   -7.1858    1.8257 N   0  0  0  0  0  0  0  0  0  0  0  0
    0.8413   -6.2613    1.1989 N   0  0  0  0  0  0  0  0  0  0  0  0
    2.4361   -4.2774   -0.0576 N   0  0  0  0  0  0  0  0  0  0  0  0
    3.4738   -3.5704   -0.6264 C   0  0  0  0  0  0  0  0  0  0  0  0
    3.5245   -2.3658   -1.3660 C   0  0  0  0  0  0  0  0  0  0  0  0
    4.7776   -1.8937   -1.8209 C   0  0  0  0  0  0  0  0  0  0  0  0
    5.9405   -2.6380   -1.5088 C   0  0  0  0  0  0  0  0  0  0  0  0
    5.9355   -3.7686   -0.7791 N   0  0  0  0  0  0  0  0  0  0  0  0
    4.7060   -4.2078   -0.3760 C   0  0  0  0  0  0  0  0  0  0  0  0
    6.3370   -6.8913    2.7288 H   0  0  0  0  0  0  0  0  0  0  0  0
    4.7371   -6.2175    2.9928 H   0  0  0  0  0  0  0  0  0  0  0  0
    6.0365   -5.1547    2.5830 H   0  0  0  0  0  0  0  0  0  0  0  0
    6.3118   -6.1447    0.3309 H   0  0  0  0  0  0  0  0  0  0  0  0
    5.0765   -7.3171    0.5396 H   0  0  0  0  0  0  0  0  0  0  0  0
    3.5812   -8.0206    2.0717 H   0  0  0  0  0  0  0  0  0  0  0  0
    2.6191   -1.8252   -1.5681 H   0  0  0  0  0  0  0  0  0  0  0  0
    4.8458   -0.9792   -2.3878 H   0  0  0  0  0  0  0  0  0  0  0  0
    6.9189   -2.3125   -1.8548 H   0  0  0  0  0  0  0  0  0  0  0  0
  1  2  1  0
  1 17  1  0
  1 18  1  0
  1 19  1  0
  2  3  1  0
  2 20  1  0
  2 21  1  0
  3 16  1  0
  3  4  1  0
  4  5  1  0
  4 10  2  0
  5  9  1  0
  5  6  2  0
  6  7  1  0
  6 22  1  0
  7  8  1  0
  8  9  2  0
 10 11  1  0
 11 16  2  0
 11 12  1  0
 12 13  2  0
 12 23  1  0
 13 14  1  0
 13 24  1  0
 14 15  2  0
 14 25  1  0
 15 16  1  0
M  END
>  <i_m_ct_stereo_status>  (175) 
1

>  <s_m_source_file>  (175) 
/var/tmp/pbs.5076255.sched01/tmp9vbryffn/46pprzbbw9.sdf

>  <i_m_source_file_index>  (175) 
30

>  <i_lp_mmshare_version>  (175) 
48012

>  <i_f3d_flags>  (175) 
0

>  <s_epik_input>  (175) 
W2NIXTFbY0hdW2NIXW5jKGMxMiluKFtDSDJdW0NIM10pYyhuMiktYzNbY0hdc25uMw==

>  <s_epik_cmdline>  (175) 
J2VwaWtfcHl0aG9uJywgJy1waHQnLCAnMi4wJywgJy1waCcsICc3LjAnLCAnLXRuJywgJzgnLCAnLW1hJywgJzIwMCcsICctaW1hZScsICc8aW5maWxlLm1hZT4nLCAnLW9tYWUnLCAnPG91dGZpbGUubWFlPic=

>  <r_lp_tautomer_probability>  (175) 
1

>  <r_epik_Ionization_Penalty>  (175) 
0.00011584

>  <r_epik_Ionization_Penalty_Charging>  (175) 
0.000111052

>  <r_epik_Ionization_Penalty_Neutral>  (175) 
4.7881e-06

>  <r_epik_State_Penalty>  (175) 
-0

>  <r_epik_Charging_Adjusted_Penalty>  (175) 
0.000111052

>  <i_epik_Tot_Q>  (175) 
0

>  <i_epik_Tot_abs_Q>  (175) 
0

>  <s_lp_Force_Field>  (175) 
OPLS3e

>  <r_lp_Energy>  (175) 
18.144

>  <b_lp_Chiralities_Consistent>  (175) 
1

>  <s_lp_Variant>  (175) 
44:0-1

>  <s_i_glide_gridfile>  (175) 
pfpi4k_grid

>  <i_i_glide_lignum>  (175) 
30

>  <i_i_glide_rotatable_bonds>  (175) 
2

>  <r_i_docking_score>  (175) 
-3.45031

>  <r_i_glide_ligand_efficiency>  (175) 
-0.215644

>  <r_i_glide_ligand_efficiency_sa>  (175) 
-0.54339

>  <r_i_glide_ligand_efficiency_ln>  (175) 
-0.914573

>  <r_i_glide_gscore>  (175) 
-3.45031

>  <r_i_glide_lipo>  (175) 
-0.140773

>  <r_i_glide_hbond>  (175) 
0

>  <r_i_glide_metal>  (175) 
-0

>  <r_i_glide_rewards>  (175) 
-1.93042

>  <r_i_glide_evdw>  (175) 
-21.389

>  <r_i_glide_ecoul>  (175) 
-2.76994

>  <r_i_glide_erotb>  (175) 
0.319771

>  <r_i_glide_esite>  (175) 
-0.213945

>  <r_i_glide_emodel>  (175) 
-29.2114

>  <r_i_glide_energy>  (175) 
-24.1589

>  <r_i_glide_einternal>  (175) 
2.95693

>  <r_i_glide_intrahb_reward>  (175) 
-0

>  <i_i_glide_confnum>  (175) 
6

>  <i_i_glide_posenum>  (175) 
12

>  <r_i_glide_eff_state_penalty>  (175) 
0

>  <ligand_id>  (175) 
44

>  <original_smiles>  (175) 
CCn1c(-c2csnn2)nc2cccnc21

>  <smiles>  (175) 
[H]c1nc2c(nc(-c3nnsc3[H])n2C([H])([H])C([H])([H])[H])c([H])c1[H]

$$$$
45:0:0
     RDKit          3D

 37 40  0  0  1  0  0  0  0  0999 V2000
    3.8130    0.7547   -4.4479 C   0  0  0  0  0  0  0  0  0  0  0  0
    2.7258   -0.0424   -5.1124 C   0  0  0  0  0  0  0  0  0  0  0  0
    2.6143   -1.2271   -4.3247 O   0  0  0  0  0  0  0  0  0  0  0  0
    3.4560   -1.1699   -3.2830 C   0  0  0  0  0  0  0  0  0  0  0  0
    3.4266   -2.2010   -2.4122 N   0  0  0  0  0  0  0  0  0  0  0  0
    4.2568   -2.3280   -1.2168 C   0  0  2  0  0  0  0  0  0  0  0  0
    5.7524   -2.3690   -1.6206 C   0  0  0  0  0  0  0  0  0  0  0  0
    6.6179   -2.4961   -0.3566 C   0  0  1  0  0  0  0  0  0  0  0  0
    6.3551   -1.2918    0.5775 C   0  0  0  0  0  0  0  0  0  0  0  0
    4.8699   -1.2756    0.9910 C   0  0  2  0  0  0  0  0  0  0  0  0
    4.5002   -2.5853    1.7116 C   0  0  0  0  0  0  0  0  0  0  0  0
    4.7661   -3.7775    0.7715 C   0  0  2  0  0  0  0  0  0  0  0  0
    6.2572   -3.8035    0.3755 C   0  0  0  0  0  0  0  0  0  0  0  0
    3.8963   -3.6414   -0.4902 C   0  0  0  0  0  0  0  0  0  0  0  0
    4.0001   -1.1339   -0.2616 C   0  0  0  0  0  0  0  0  0  0  0  0
    4.1893   -0.0574   -3.2970 N   0  0  0  0  0  0  0  0  0  0  0  0
    3.4745    1.7479   -4.1980 H   0  0  0  0  0  0  0  0  0  0  0  0
    4.6301    0.8811   -5.1490 H   0  0  0  0  0  0  0  0  0  0  0  0
    1.7740    0.4874   -5.1435 H   0  0  0  0  0  0  0  0  0  0  0  0
    3.0188   -0.2682   -6.1390 H   0  0  0  0  0  0  0  0  0  0  0  0
    5.9450   -3.2002   -2.3041 H   0  0  0  0  0  0  0  0  0  0  0  0
    6.0475   -1.4664   -2.1517 H   0  0  0  0  0  0  0  0  0  0  0  0
    7.6699   -2.5200   -0.6402 H   0  0  0  0  0  0  0  0  0  0  0  0
    6.9912   -1.3455    1.4627 H   0  0  0  0  0  0  0  0  0  0  0  0
    6.6028   -0.3526    0.0827 H   0  0  0  0  0  0  0  0  0  0  0  0
    4.6868   -0.4267    1.6489 H   0  0  0  0  0  0  0  0  0  0  0  0
    5.0786   -2.6899    2.6306 H   0  0  0  0  0  0  0  0  0  0  0  0
    3.4472   -2.5606    1.9959 H   0  0  0  0  0  0  0  0  0  0  0  0
    4.5119   -4.7021    1.2838 H   0  0  0  0  0  0  0  0  0  0  0  0
    6.4554   -4.6593   -0.2696 H   0  0  0  0  0  0  0  0  0  0  0  0
    6.8809   -3.9254    1.2627 H   0  0  0  0  0  0  0  0  0  0  0  0
    2.8366   -3.6470   -0.2300 H   0  0  0  0  0  0  0  0  0  0  0  0
    4.0618   -4.4952   -1.1474 H   0  0  0  0  0  0  0  0  0  0  0  0
    4.2348   -0.1791   -0.7249 H   0  0  0  0  0  0  0  0  0  0  0  0
    2.9483   -1.0850    0.0208 H   0  0  0  0  0  0  0  0  0  0  0  0
    4.8329    0.2443   -2.5749 H   0  0  0  0  0  0  0  0  0  0  0  0
    2.7594   -2.9393   -2.6019 H   0  0  0  0  0  0  0  0  0  0  0  0
  1 16  1  0
  1  2  1  0
  1 17  1  0
  1 18  1  0
  2  3  1  0
  2 19  1  0
  2 20  1  0
  3  4  1  0
  4  5  1  0
  4 16  2  0
  6  5  1  6
  5 37  1  0
  6 14  1  0
  6 15  1  0
  6  7  1  0
  7  8  1  0
  7 21  1  0
  7 22  1  0
  8 13  1  0
  8  9  1  0
  8 23  1  6
  9 10  1  0
  9 24  1  0
  9 25  1  0
 10 11  1  0
 10 15  1  0
 10 26  1  1
 11 12  1  0
 11 27  1  0
 11 28  1  0
 12 13  1  0
 12 14  1  0
 12 29  1  1
 13 30  1  0
 13 31  1  0
 14 32  1  0
 14 33  1  0
 15 34  1  0
 15 35  1  0
 16 36  1  0
M  CHG  1  16   1
M  END
>  <i_m_ct_stereo_status>  (176) 
1

>  <s_m_source_file>  (176) 
/var/tmp/pbs.5076255.sched01/tmp9vbryffn/46pprzbbw9.sdf

>  <i_m_source_file_index>  (176) 
31

>  <i_lp_mmshare_version>  (176) 
48012

>  <i_f3d_flags>  (176) 
0

>  <s_epik_input>  (176) 
W05IXTFbQ0gyXVtDSDJdTy9DMT1OXEMyM1tDSDJdW0NASF00W0NIMl1bQ0BASF0oW0NIMl0zKVtDSDJdW0NASF0oW0NIMl00KVtDSDJdMg==

>  <s_epik_cmdline>  (176) 
J2VwaWtfcHl0aG9uJywgJy1waHQnLCAnMi4wJywgJy1waCcsICc3LjAnLCAnLXRuJywgJzgnLCAnLW1hJywgJzIwMCcsICctaW1hZScsICc8aW5maWxlLm1hZT4nLCAnLW9tYWUnLCAnPG91dGZpbGUubWFlPic=

>  <r_epik_Ionization_Penalty>  (176) 
0.00114498

>  <r_epik_Ionization_Penalty_Charging>  (176) 
0.000743698

>  <r_epik_Ionization_Penalty_Neutral>  (176) 
0.00040128

>  <r_epik_State_Penalty>  (176) 
0.000721014

>  <r_epik_Charging_Adjusted_Penalty>  (176) 
0.00146471

>  <i_epik_Tot_Q>  (176) 
1

>  <i_epik_Tot_abs_Q>  (176) 
1

>  <s_epik_Chemistry_Notes>  (176) 
This compound has an imine and may undergo hydrolysis.

>  <s_lp_Force_Field>  (176) 
OPLS3e

>  <r_lp_Energy>  (176) 
5.68232

>  <b_lp_Chiralities_Consistent>  (176) 
1

>  <s_lp_Variant>  (176) 
45:0-1

>  <s_i_glide_gridfile>  (176) 
pfpi4k_grid

>  <i_i_glide_lignum>  (176) 
31

>  <i_i_glide_rotatable_bonds>  (176) 
2

>  <r_i_docking_score>  (176) 
-2.92783

>  <r_i_glide_ligand_efficiency>  (176) 
-0.182989

>  <r_i_glide_ligand_efficiency_sa>  (176) 
-0.461104

>  <r_i_glide_ligand_efficiency_ln>  (176) 
-0.776079

>  <r_i_glide_gscore>  (176) 
-2.92783

>  <r_i_glide_lipo>  (176) 
-0.352804

>  <r_i_glide_hbond>  (176) 
0

>  <r_i_glide_metal>  (176) 
-0

>  <r_i_glide_rewards>  (176) 
-2.03872

>  <r_i_glide_evdw>  (176) 
-17.5078

>  <r_i_glide_ecoul>  (176) 
-2.1211

>  <r_i_glide_erotb>  (176) 
0.689036

>  <r_i_glide_esite>  (176) 
-0.0317798

>  <r_i_glide_emodel>  (176) 
-23.2822

>  <r_i_glide_energy>  (176) 
-19.6289

>  <r_i_glide_einternal>  (176) 
0.0173536

>  <r_i_glide_intrahb_reward>  (176) 
-0

>  <i_i_glide_confnum>  (176) 
1

>  <i_i_glide_posenum>  (176) 
1

>  <r_i_glide_eff_state_penalty>  (176) 
0

>  <ligand_id>  (176) 
45

>  <original_smiles>  (176) 
C1COC(=NC23CC4CC(CC(C4)C2)C3)N1

>  <smiles>  (176) 
[H]N(C1=[N+]([H])C([H])([H])C([H])([H])O1)C12C([H])([H])C3([H])C([H])([H])C([H])(C([H])([H])C([H])(C3([H])[H])C1([H])[H])C2([H])[H]

$$$$
45:0:1
     RDKit          3D

 37 40  0  0  1  0  0  0  0  0999 V2000
    3.8175    0.9955   -4.7090 C   0  0  0  0  0  0  0  0  0  0  0  0
    2.6119    0.4939   -5.4545 C   0  0  0  0  0  0  0  0  0  0  0  0
    2.2189   -0.6510   -4.7208 O   0  0  0  0  0  0  0  0  0  0  0  0
    3.0216   -0.8308   -3.6634 C   0  0  0  0  0  0  0  0  0  0  0  0
    2.7562   -1.8768   -2.8656 N   0  0  0  0  0  0  0  0  0  0  0  0
    3.5866   -2.3324   -1.7471 C   0  0  2  0  0  0  0  0  0  0  0  0
    3.9319   -1.1742   -0.7707 C   0  0  0  0  0  0  0  0  0  0  0  0
    4.8143   -1.6950    0.3600 C   0  0  1  0  0  0  0  0  0  0  0  0
    4.0468   -2.7785    1.1336 C   0  0  0  0  0  0  0  0  0  0  0  0
    3.7142   -3.9461    0.1807 C   0  0  2  0  0  0  0  0  0  0  0  0
    5.0124   -4.5372   -0.4068 C   0  0  0  0  0  0  0  0  0  0  0  0
    5.7690   -3.4440   -1.1839 C   0  0  2  0  0  0  0  0  0  0  0  0
    6.1133   -2.2838   -0.2301 C   0  0  0  0  0  0  0  0  0  0  0  0
    4.8877   -2.9333   -2.3319 C   0  0  0  0  0  0  0  0  0  0  0  0
    2.8267   -3.4316   -0.9620 C   0  0  0  0  0  0  0  0  0  0  0  0
    3.9926    0.0792   -3.6117 N   0  0  0  0  0  0  0  0  0  0  0  0
    3.6841    2.0179   -4.3594 H   0  0  0  0  0  0  0  0  0  0  0  0
    4.6794    0.9483   -5.3597 H   0  0  0  0  0  0  0  0  0  0  0  0
    1.8164    1.2310   -5.5214 H   0  0  0  0  0  0  0  0  0  0  0  0
    2.9323    0.1855   -6.4424 H   0  0  0  0  0  0  0  0  0  0  0  0
    4.4989   -0.3710   -1.2241 H   0  0  0  0  0  0  0  0  0  0  0  0
    3.0169   -0.7267   -0.3794 H   0  0  0  0  0  0  0  0  0  0  0  0
    5.0586   -0.8626    1.0197 H   0  0  0  0  0  0  0  0  0  0  0  0
    4.6393   -3.1268    1.9821 H   0  0  0  0  0  0  0  0  0  0  0  0
    3.1256   -2.3507    1.5354 H   0  0  0  0  0  0  0  0  0  0  0  0
    3.1820   -4.7182    0.7321 H   0  0  0  0  0  0  0  0  0  0  0  0
    5.6441   -4.9466    0.3829 H   0  0  0  0  0  0  0  0  0  0  0  0
    4.7706   -5.3663   -1.0748 H   0  0  0  0  0  0  0  0  0  0  0  0
    6.6896   -3.8551   -1.5960 H   0  0  0  0  0  0  0  0  0  0  0  0
    6.6644   -1.5110   -0.7637 H   0  0  0  0  0  0  0  0  0  0  0  0
    6.7677   -2.6323    0.5720 H   0  0  0  0  0  0  0  0  0  0  0  0
    4.6562   -3.7466   -3.0262 H   0  0  0  0  0  0  0  0  0  0  0  0
    5.4278   -2.1871   -2.9148 H   0  0  0  0  0  0  0  0  0  0  0  0
    1.8888   -3.0547   -0.5575 H   0  0  0  0  0  0  0  0  0  0  0  0
    2.5399   -4.2484   -1.6213 H   0  0  0  0  0  0  0  0  0  0  0  0
    4.6406    0.2130   -2.8523 H   0  0  0  0  0  0  0  0  0  0  0  0
    1.8834   -2.3711   -3.0190 H   0  0  0  0  0  0  0  0  0  0  0  0
  1 16  1  0
  1  2  1  0
  1 17  1  0
  1 18  1  0
  2  3  1  0
  2 19  1  0
  2 20  1  0
  3  4  1  0
  4  5  1  0
  4 16  2  0
  6  5  1  6
  5 37  1  0
  6 14  1  0
  6 15  1  0
  6  7  1  0
  7  8  1  0
  7 21  1  0
  7 22  1  0
  8 13  1  0
  8  9  1  0
  8 23  1  1
  9 10  1  0
  9 24  1  0
  9 25  1  0
 10 11  1  0
 10 15  1  0
 10 26  1  1
 11 12  1  0
 11 27  1  0
 11 28  1  0
 12 13  1  0
 12 14  1  0
 12 29  1  6
 13 30  1  0
 13 31  1  0
 14 32  1  0
 14 33  1  0
 15 34  1  0
 15 35  1  0
 16 36  1  0
M  CHG  1  16   1
M  END
>  <i_m_ct_stereo_status>  (177) 
1

>  <s_m_source_file>  (177) 
/var/tmp/pbs.5076255.sched01/tmp9vbryffn/46pprzbbw9.sdf

>  <i_m_source_file_index>  (177) 
31

>  <i_lp_mmshare_version>  (177) 
48012

>  <i_f3d_flags>  (177) 
0

>  <s_epik_input>  (177) 
W05IXTFbQ0gyXVtDSDJdTy9DMT1OXEMyM1tDSDJdW0NASF00W0NIMl1bQ0BASF0oW0NIMl0zKVtDSDJdW0NASF0oW0NIMl00KVtDSDJdMg==

>  <s_epik_cmdline>  (177) 
J2VwaWtfcHl0aG9uJywgJy1waHQnLCAnMi4wJywgJy1waCcsICc3LjAnLCAnLXRuJywgJzgnLCAnLW1hJywgJzIwMCcsICctaW1hZScsICc8aW5maWxlLm1hZT4nLCAnLW9tYWUnLCAnPG91dGZpbGUubWFlPic=

>  <r_epik_Ionization_Penalty>  (177) 
0.00114498

>  <r_epik_Ionization_Penalty_Charging>  (177) 
0.000743698

>  <r_epik_Ionization_Penalty_Neutral>  (177) 
0.00040128

>  <r_epik_State_Penalty>  (177) 
0.000721014

>  <r_epik_Charging_Adjusted_Penalty>  (177) 
0.00146471

>  <i_epik_Tot_Q>  (177) 
1

>  <i_epik_Tot_abs_Q>  (177) 
1

>  <s_epik_Chemistry_Notes>  (177) 
This compound has an imine and may undergo hydrolysis.

>  <s_lp_Force_Field>  (177) 
OPLS3e

>  <r_lp_Energy>  (177) 
5.68232

>  <b_lp_Chiralities_Consistent>  (177) 
1

>  <s_lp_Variant>  (177) 
45:0-1

>  <s_i_glide_gridfile>  (177) 
pfpi4k_grid

>  <i_i_glide_lignum>  (177) 
31

>  <i_i_glide_rotatable_bonds>  (177) 
2

>  <r_i_docking_score>  (177) 
-2.84169

>  <r_i_glide_ligand_efficiency>  (177) 
-0.177605

>  <r_i_glide_ligand_efficiency_sa>  (177) 
-0.447538

>  <r_i_glide_ligand_efficiency_ln>  (177) 
-0.753246

>  <r_i_glide_gscore>  (177) 
-2.84169

>  <r_i_glide_lipo>  (177) 
-0.414577

>  <r_i_glide_hbond>  (177) 
0

>  <r_i_glide_metal>  (177) 
-0

>  <r_i_glide_rewards>  (177) 
-2.1962

>  <r_i_glide_evdw>  (177) 
-15.0554

>  <r_i_glide_ecoul>  (177) 
-0.898872

>  <r_i_glide_erotb>  (177) 
0.689036

>  <r_i_glide_esite>  (177) 
-0.0323506

>  <r_i_glide_emodel>  (177) 
-18.7714

>  <r_i_glide_energy>  (177) 
-15.9542

>  <r_i_glide_einternal>  (177) 
1.01129

>  <r_i_glide_intrahb_reward>  (177) 
-0

>  <i_i_glide_confnum>  (177) 
4

>  <i_i_glide_posenum>  (177) 
37

>  <r_i_glide_eff_state_penalty>  (177) 
0

>  <ligand_id>  (177) 
45

>  <original_smiles>  (177) 
C1COC(=NC23CC4CC(CC(C4)C2)C3)N1

>  <smiles>  (177) 
[H]N(C1=[N+]([H])C([H])([H])C([H])([H])O1)C12C([H])([H])C3([H])C([H])([H])C([H])(C([H])([H])C([H])(C3([H])[H])C1([H])[H])C2([H])[H]

$$$$
45:0:2
     RDKit          3D

 37 40  0  0  1  0  0  0  0  0999 V2000
    3.8368   -5.5166    3.2818 C   0  0  0  0  0  0  0  0  0  0  0  0
    2.4782   -6.2163    3.1525 C   0  0  0  0  0  0  0  0  0  0  0  0
    1.9842   -5.8290    1.8691 O   0  0  0  0  0  0  0  0  0  0  0  0
    2.8762   -5.0137    1.2772 C   0  0  0  0  0  0  0  0  0  0  0  0
    2.5770   -4.5383    0.0578 N   0  0  0  0  0  0  0  0  0  0  0  0
    3.3866   -3.6133   -0.7435 C   0  0  2  0  0  0  0  0  0  0  0  0
    4.7631   -4.2570   -1.0594 C   0  0  0  0  0  0  0  0  0  0  0  0
    5.5840   -3.2996   -1.9346 C   0  0  1  0  0  0  0  0  0  0  0  0
    4.8273   -3.0340   -3.2534 C   0  0  0  0  0  0  0  0  0  0  0  0
    3.4788   -2.3726   -2.9472 C   0  0  2  0  0  0  0  0  0  0  0  0
    3.6946   -1.0594   -2.1811 C   0  0  0  0  0  0  0  0  0  0  0  0
    4.4363   -1.3369   -0.8563 C   0  0  2  0  0  0  0  0  0  0  0  0
    5.7998   -1.9897   -1.1624 C   0  0  0  0  0  0  0  0  0  0  0  0
    3.5986   -2.2832    0.0171 C   0  0  0  0  0  0  0  0  0  0  0  0
    2.6268   -3.3058   -2.0710 C   0  0  0  0  0  0  0  0  0  0  0  0
    3.9562   -4.7967    2.0342 N   0  0  0  0  0  0  0  0  0  0  0  0
    4.6544   -6.2261    3.3869 H   0  0  0  0  0  0  0  0  0  0  0  0
    3.8604   -4.8202    4.1168 H   0  0  0  0  0  0  0  0  0  0  0  0
    2.5774   -7.3021    3.2036 H   0  0  0  0  0  0  0  0  0  0  0  0
    1.7857   -5.8967    3.9337 H   0  0  0  0  0  0  0  0  0  0  0  0
    5.3318   -4.4796   -0.1620 H   0  0  0  0  0  0  0  0  0  0  0  0
    4.6315   -5.2055   -1.5680 H   0  0  0  0  0  0  0  0  0  0  0  0
    6.5504   -3.7482   -2.1589 H   0  0  0  0  0  0  0  0  0  0  0  0
    5.3994   -2.3711   -3.8986 H   0  0  0  0  0  0  0  0  0  0  0  0
    4.6794   -3.9733   -3.7947 H   0  0  0  0  0  0  0  0  0  0  0  0
    2.9502   -2.1638   -3.8730 H   0  0  0  0  0  0  0  0  0  0  0  0
    4.2393   -0.3287   -2.7814 H   0  0  0  0  0  0  0  0  0  0  0  0
    2.7086   -0.6538   -1.9661 H   0  0  0  0  0  0  0  0  0  0  0  0
    4.5901   -0.3963   -0.3238 H   0  0  0  0  0  0  0  0  0  0  0  0
    6.3576   -2.1651   -0.2392 H   0  0  0  0  0  0  0  0  0  0  0  0
    6.3897   -1.3184   -1.7777 H   0  0  0  0  0  0  0  0  0  0  0  0
    2.6373   -1.8329    0.2626 H   0  0  0  0  0  0  0  0  0  0  0  0
    4.1189   -2.4336    0.9587 H   0  0  0  0  0  0  0  0  0  0  0  0
    2.3776   -4.2078   -2.6316 H   0  0  0  0  0  0  0  0  0  0  0  0
    1.6546   -2.8450   -1.8786 H   0  0  0  0  0  0  0  0  0  0  0  0
    4.7473   -4.2227    1.7830 H   0  0  0  0  0  0  0  0  0  0  0  0
    1.7563   -4.8902   -0.4150 H   0  0  0  0  0  0  0  0  0  0  0  0
  1 16  1  0
  1  2  1  0
  1 17  1  0
  1 18  1  0
  2  3  1  0
  2 19  1  0
  2 20  1  0
  3  4  1  0
  4  5  1  0
  4 16  2  0
  6  5  1  1
  5 37  1  0
  6 14  1  0
  6 15  1  0
  6  7  1  0
  7  8  1  0
  7 21  1  0
  7 22  1  0
  8 13  1  0
  8  9  1  0
  8 23  1  6
  9 10  1  0
  9 24  1  0
  9 25  1  0
 10 11  1  0
 10 15  1  0
 10 26  1  6
 11 12  1  0
 11 27  1  0
 11 28  1  0
 12 13  1  0
 12 14  1  0
 12 29  1  1
 13 30  1  0
 13 31  1  0
 14 32  1  0
 14 33  1  0
 15 34  1  0
 15 35  1  0
 16 36  1  0
M  CHG  1  16   1
M  END
>  <i_m_ct_stereo_status>  (178) 
1

>  <s_m_source_file>  (178) 
/var/tmp/pbs.5076255.sched01/tmp9vbryffn/46pprzbbw9.sdf

>  <i_m_source_file_index>  (178) 
31

>  <i_lp_mmshare_version>  (178) 
48012

>  <i_f3d_flags>  (178) 
0

>  <s_epik_input>  (178) 
W05IXTFbQ0gyXVtDSDJdTy9DMT1OXEMyM1tDSDJdW0NASF00W0NIMl1bQ0BASF0oW0NIMl0zKVtDSDJdW0NASF0oW0NIMl00KVtDSDJdMg==

>  <s_epik_cmdline>  (178) 
J2VwaWtfcHl0aG9uJywgJy1waHQnLCAnMi4wJywgJy1waCcsICc3LjAnLCAnLXRuJywgJzgnLCAnLW1hJywgJzIwMCcsICctaW1hZScsICc8aW5maWxlLm1hZT4nLCAnLW9tYWUnLCAnPG91dGZpbGUubWFlPic=

>  <r_epik_Ionization_Penalty>  (178) 
0.00114498

>  <r_epik_Ionization_Penalty_Charging>  (178) 
0.000743698

>  <r_epik_Ionization_Penalty_Neutral>  (178) 
0.00040128

>  <r_epik_State_Penalty>  (178) 
0.000721014

>  <r_epik_Charging_Adjusted_Penalty>  (178) 
0.00146471

>  <i_epik_Tot_Q>  (178) 
1

>  <i_epik_Tot_abs_Q>  (178) 
1

>  <s_epik_Chemistry_Notes>  (178) 
This compound has an imine and may undergo hydrolysis.

>  <s_lp_Force_Field>  (178) 
OPLS3e

>  <r_lp_Energy>  (178) 
5.68232

>  <b_lp_Chiralities_Consistent>  (178) 
1

>  <s_lp_Variant>  (178) 
45:0-1

>  <s_i_glide_gridfile>  (178) 
pfpi4k_grid

>  <i_i_glide_lignum>  (178) 
31

>  <i_i_glide_rotatable_bonds>  (178) 
2

>  <r_i_docking_score>  (178) 
-2.77713

>  <r_i_glide_ligand_efficiency>  (178) 
-0.173571

>  <r_i_glide_ligand_efficiency_sa>  (178) 
-0.437371

>  <r_i_glide_ligand_efficiency_ln>  (178) 
-0.736134

>  <r_i_glide_gscore>  (178) 
-2.77713

>  <r_i_glide_lipo>  (178) 
-0.499549

>  <r_i_glide_hbond>  (178) 
0

>  <r_i_glide_metal>  (178) 
-0

>  <r_i_glide_rewards>  (178) 
-1.9001

>  <r_i_glide_evdw>  (178) 
-15.1738

>  <r_i_glide_ecoul>  (178) 
-1.65267

>  <r_i_glide_erotb>  (178) 
0.689036

>  <r_i_glide_esite>  (178) 
-0.0599296

>  <r_i_glide_emodel>  (178) 
-20.2207

>  <r_i_glide_energy>  (178) 
-16.8265

>  <r_i_glide_einternal>  (178) 
0.0819585

>  <r_i_glide_intrahb_reward>  (178) 
-0

>  <i_i_glide_confnum>  (178) 
4

>  <i_i_glide_posenum>  (178) 
32

>  <r_i_glide_eff_state_penalty>  (178) 
0

>  <ligand_id>  (178) 
45

>  <original_smiles>  (178) 
C1COC(=NC23CC4CC(CC(C4)C2)C3)N1

>  <smiles>  (178) 
[H]N(C1=[N+]([H])C([H])([H])C([H])([H])O1)C12C([H])([H])C3([H])C([H])([H])C([H])(C([H])([H])C([H])(C3([H])[H])C1([H])[H])C2([H])[H]

$$$$
47:0:0
     RDKit          3D

 42 44  0  0  1  0  0  0  0  0999 V2000
    4.8807   -5.2951    0.6413 C   0  0  0  0  0  0  0  0  0  0  0  0
    3.5942   -5.5610    1.3715 C   0  0  0  0  0  0  0  0  0  0  0  0
    3.2487   -6.8210    1.5349 N   0  0  0  0  0  0  0  0  0  0  0  0
    2.0760   -6.7992    2.1943 N   0  0  0  0  0  0  0  0  0  0  0  0
    1.3964   -8.0030    2.5162 C   0  0  0  0  0  0  0  0  0  0  0  0
    0.1512   -8.0496    3.0140 N   0  0  0  0  0  0  0  0  0  0  0  0
   -0.2369   -9.3667    3.2661 C   0  0  0  0  0  0  0  0  0  0  0  0
    0.6902  -10.3158    2.9507 C   0  0  0  0  0  0  0  0  0  0  0  0
    2.1393   -9.6006    2.3248 S   0  0  0  0  0  0  0  0  0  0  0  0
    1.6927   -5.5104    2.4600 C   0  0  0  0  0  0  0  0  0  0  0  0
    2.6180   -4.6649    1.9337 C   0  0  0  0  0  0  0  0  0  0  0  0
    2.5553   -3.1418    1.9070 C   0  0  0  0  0  0  0  0  0  0  0  0
    3.2678   -2.4447    0.7090 C   0  0  2  0  0  0  0  0  0  0  0  0
    2.9685   -1.0052    0.6380 N   0  0  0  0  0  0  0  0  0  0  0  0
    2.9979   -3.0534   -0.6833 C   0  0  0  0  0  0  0  0  0  0  0  0
    2.0812   -3.8638   -0.7905 O   0  0  0  0  0  0  0  0  0  0  0  0
    3.7481   -2.6666   -1.7431 N   0  0  0  0  0  0  0  0  0  0  0  0
    4.7844   -1.6321   -1.7445 C   0  0  0  0  0  0  0  0  0  0  0  0
    4.3399   -0.5512   -2.7511 C   0  0  0  0  0  0  0  0  0  0  0  0
    4.2089   -1.1073   -4.0572 O   0  0  0  0  0  0  0  0  0  0  0  0
    3.2017   -2.1108   -4.0827 C   0  0  0  0  0  0  0  0  0  0  0  0
    3.5395   -3.2272   -3.0791 C   0  0  0  0  0  0  0  0  0  0  0  0
    5.1402   -4.2314    0.5778 H   0  0  0  0  0  0  0  0  0  0  0  0
    4.7952   -5.7023   -0.3705 H   0  0  0  0  0  0  0  0  0  0  0  0
    5.7144   -5.8384    1.1035 H   0  0  0  0  0  0  0  0  0  0  0  0
   -1.2239   -9.5223    3.6813 H   0  0  0  0  0  0  0  0  0  0  0  0
    0.6170  -11.3849    3.0527 H   0  0  0  0  0  0  0  0  0  0  0  0
    0.7729   -5.3005    2.9846 H   0  0  0  0  0  0  0  0  0  0  0  0
    1.5063   -2.8190    1.9649 H   0  0  0  0  0  0  0  0  0  0  0  0
    2.9954   -2.7454    2.8304 H   0  0  0  0  0  0  0  0  0  0  0  0
    4.3331   -2.5046    0.9079 H   0  0  0  0  0  0  0  0  0  0  0  0
    3.5932   -0.5849   -0.0243 H   0  0  0  0  0  0  0  0  0  0  0  0
    3.0405   -0.5523    1.5351 H   0  0  0  0  0  0  0  0  0  0  0  0
    4.9358   -1.1573   -0.7631 H   0  0  0  0  0  0  0  0  0  0  0  0
    5.7226   -2.0973   -2.0673 H   0  0  0  0  0  0  0  0  0  0  0  0
    3.3736   -0.1361   -2.4775 H   0  0  0  0  0  0  0  0  0  0  0  0
    5.0407    0.2759   -2.7499 H   0  0  0  0  0  0  0  0  0  0  0  0
    2.2179   -1.6794   -3.8557 H   0  0  0  0  0  0  0  0  0  0  0  0
    3.1623   -2.5374   -5.0864 H   0  0  0  0  0  0  0  0  0  0  0  0
    4.4407   -3.7577   -3.3882 H   0  0  0  0  0  0  0  0  0  0  0  0
    2.7156   -3.9360   -3.1510 H   0  0  0  0  0  0  0  0  0  0  0  0
    2.0096   -0.8976    0.3094 H   0  0  0  0  0  0  0  0  0  0  0  0
  1  2  1  0
  1 23  1  0
  1 24  1  0
  1 25  1  0
  2 11  1  0
  2  3  2  0
  3  4  1  0
  4  5  1  0
  4 10  1  0
  5  9  1  0
  5  6  2  0
  6  7  1  0
  7  8  2  0
  7 26  1  0
  8  9  1  0
  8 27  1  0
 10 11  2  0
 10 28  1  0
 11 12  1  0
 12 13  1  0
 12 29  1  0
 12 30  1  0
 13 14  1  0
 13 15  1  0
 13 31  1  1
 14 32  1  0
 14 33  1  0
 14 42  1  0
 15 16  2  0
 15 17  1  0
 17 22  1  0
 17 18  1  0
 18 19  1  0
 18 34  1  0
 18 35  1  0
 19 20  1  0
 19 36  1  0
 19 37  1  0
 20 21  1  0
 21 22  1  0
 21 38  1  0
 21 39  1  0
 22 40  1  0
 22 41  1  0
M  CHG  1  14   1
M  END
>  <i_m_ct_stereo_status>  (179) 
1

>  <s_m_source_file>  (179) 
/var/tmp/pbs.5076255.sched01/tmp9vbryffn/46pprzbbw9.sdf

>  <i_m_source_file_index>  (179) 
33

>  <i_lp_mmshare_version>  (179) 
48012

>  <i_f3d_flags>  (179) 
0

>  <s_epik_input>  (179) 
czFbY0hdW2NIXW5jMS1uKG5jMltDSDNdKVtjSF1jMltDSDJdW0NASF0oW05IMl0pQyg9TylOM1tDSDJdW0NIMl1PW0NIMl1bQ0gyXTM=

>  <s_epik_cmdline>  (179) 
J2VwaWtfcHl0aG9uJywgJy1waHQnLCAnMi4wJywgJy1waCcsICc3LjAnLCAnLXRuJywgJzgnLCAnLW1hJywgJzIwMCcsICctaW1hZScsICc8aW5maWxlLm1hZT4nLCAnLW9tYWUnLCAnPG91dGZpbGUubWFlPic=

>  <r_lp_tautomer_probability>  (179) 
1

>  <r_epik_Ionization_Penalty>  (179) 
0.284073

>  <r_epik_Ionization_Penalty_Charging>  (179) 
0.284072

>  <r_epik_Ionization_Penalty_Neutral>  (179) 
1.37478e-06

>  <r_epik_State_Penalty>  (179) 
0.276792

>  <r_epik_Charging_Adjusted_Penalty>  (179) 
0.560863

>  <i_epik_Tot_Q>  (179) 
1

>  <i_epik_Tot_abs_Q>  (179) 
1

>  <s_lp_Force_Field>  (179) 
OPLS3e

>  <r_lp_Energy>  (179) 
12.5212

>  <b_lp_Chiralities_Consistent>  (179) 
1

>  <s_lp_Variant>  (179) 
47:0-1

>  <s_i_glide_gridfile>  (179) 
pfpi4k_grid

>  <i_i_glide_lignum>  (179) 
33

>  <i_i_glide_rotatable_bonds>  (179) 
5

>  <r_i_docking_score>  (179) 
-3.92268

>  <r_i_glide_ligand_efficiency>  (179) 
-0.178304

>  <r_i_glide_ligand_efficiency_sa>  (179) 
-0.499614

>  <r_i_glide_ligand_efficiency_ln>  (179) 
-0.958846

>  <r_i_glide_gscore>  (179) 
-3.92268

>  <r_i_glide_lipo>  (179) 
-0.428162

>  <r_i_glide_hbond>  (179) 
-0.200943

>  <r_i_glide_metal>  (179) 
-0

>  <r_i_glide_rewards>  (179) 
-1.21086

>  <r_i_glide_evdw>  (179) 
-26.451

>  <r_i_glide_ecoul>  (179) 
-8.86921

>  <r_i_glide_erotb>  (179) 
0.719599

>  <r_i_glide_esite>  (179) 
-0.149379

>  <r_i_glide_emodel>  (179) 
-43.5095

>  <r_i_glide_energy>  (179) 
-35.3202

>  <r_i_glide_einternal>  (179) 
4.1853

>  <r_i_glide_intrahb_reward>  (179) 
-0

>  <i_i_glide_confnum>  (179) 
1

>  <i_i_glide_posenum>  (179) 
4

>  <r_i_glide_eff_state_penalty>  (179) 
0

>  <ligand_id>  (179) 
47

>  <original_smiles>  (179) 
Cc1nn(-c2nccs2)cc1CC(N)C(=O)N1CCOCC1

>  <smiles>  (179) 
[H]c1nc(-n2nc(C([H])([H])[H])c(C([H])([H])C([H])(C(=O)N3C([H])([H])C([H])([H])OC([H])([H])C3([H])[H])[N+]([H])([H])[H])c2[H])sc1[H]

$$$$
47:0:1
     RDKit          3D

 42 44  0  0  1  0  0  0  0  0999 V2000
    1.5747   -5.0213    4.1214 C   0  0  0  0  0  0  0  0  0  0  0  0
    1.8247   -3.7287    3.4035 C   0  0  0  0  0  0  0  0  0  0  0  0
    1.0411   -2.7045    3.6950 N   0  0  0  0  0  0  0  0  0  0  0  0
    1.4779   -1.6828    2.9345 N   0  0  0  0  0  0  0  0  0  0  0  0
    0.8627   -0.4087    2.9935 C   0  0  0  0  0  0  0  0  0  0  0  0
   -0.2279   -0.1445    3.7299 N   0  0  0  0  0  0  0  0  0  0  0  0
   -0.6592    1.1817    3.5938 C   0  0  0  0  0  0  0  0  0  0  0  0
    0.1298    1.9237    2.7608 C   0  0  0  0  0  0  0  0  0  0  0  0
    1.4376    0.9916    2.0916 S   0  0  0  0  0  0  0  0  0  0  0  0
    2.5426   -2.0797    2.1537 C   0  0  0  0  0  0  0  0  0  0  0  0
    2.8102   -3.3956    2.4189 C   0  0  0  0  0  0  0  0  0  0  0  0
    3.8761   -4.2742    1.8031 C   0  0  0  0  0  0  0  0  0  0  0  0
    3.8182   -4.3136    0.2534 C   0  0  2  0  0  0  0  0  0  0  0  0
    4.6129   -5.4337   -0.2792 N   0  0  0  0  0  0  0  0  0  0  0  0
    4.3216   -3.0230   -0.4331 C   0  0  0  0  0  0  0  0  0  0  0  0
    5.3019   -2.4549    0.0525 O   0  0  0  0  0  0  0  0  0  0  0  0
    3.7131   -2.5763   -1.5533 N   0  0  0  0  0  0  0  0  0  0  0  0
    2.5978   -3.2363   -2.2536 C   0  0  0  0  0  0  0  0  0  0  0  0
    2.9819   -3.4491   -3.7244 C   0  0  0  0  0  0  0  0  0  0  0  0
    3.3240   -2.2059   -4.3209 O   0  0  0  0  0  0  0  0  0  0  0  0
    4.4311   -1.5886   -3.6919 C   0  0  0  0  0  0  0  0  0  0  0  0
    4.1163   -1.3221   -2.2133 C   0  0  0  0  0  0  0  0  0  0  0  0
    2.2741   -5.8039    3.8237 H   0  0  0  0  0  0  0  0  0  0  0  0
    0.5622   -5.3781    3.9236 H   0  0  0  0  0  0  0  0  0  0  0  0
    1.6652   -4.8852    5.2019 H   0  0  0  0  0  0  0  0  0  0  0  0
   -1.5466    1.4997    4.1278 H   0  0  0  0  0  0  0  0  0  0  0  0
    0.0256    2.9601    2.4743 H   0  0  0  0  0  0  0  0  0  0  0  0
    3.0213   -1.3927    1.4725 H   0  0  0  0  0  0  0  0  0  0  0  0
    4.8694   -3.9837    2.1650 H   0  0  0  0  0  0  0  0  0  0  0  0
    3.7298   -5.2995    2.1443 H   0  0  0  0  0  0  0  0  0  0  0  0
    2.7714   -4.4988    0.0408 H   0  0  0  0  0  0  0  0  0  0  0  0
    4.4217   -5.5023   -1.2693 H   0  0  0  0  0  0  0  0  0  0  0  0
    4.3549   -6.3035    0.1640 H   0  0  0  0  0  0  0  0  0  0  0  0
    2.3189   -4.2118   -1.8779 H   0  0  0  0  0  0  0  0  0  0  0  0
    1.6971   -2.6253   -2.1744 H   0  0  0  0  0  0  0  0  0  0  0  0
    3.8191   -4.1453   -3.8120 H   0  0  0  0  0  0  0  0  0  0  0  0
    2.1404   -3.8813   -4.2606 H   0  0  0  0  0  0  0  0  0  0  0  0
    5.3042   -2.2362   -3.7901 H   0  0  0  0  0  0  0  0  0  0  0  0
    4.6247   -0.6544   -4.2221 H   0  0  0  0  0  0  0  0  0  0  0  0
    3.2910   -0.6195   -2.1349 H   0  0  0  0  0  0  0  0  0  0  0  0
    4.9830   -0.8403   -1.7553 H   0  0  0  0  0  0  0  0  0  0  0  0
    5.5970   -5.2495   -0.1380 H   0  0  0  0  0  0  0  0  0  0  0  0
  1  2  1  0
  1 23  1  0
  1 24  1  0
  1 25  1  0
  2 11  1  0
  2  3  2  0
  3  4  1  0
  4  5  1  0
  4 10  1  0
  5  9  1  0
  5  6  2  0
  6  7  1  0
  7  8  2  0
  7 26  1  0
  8  9  1  0
  8 27  1  0
 10 11  2  0
 10 28  1  0
 11 12  1  0
 12 13  1  0
 12 29  1  0
 12 30  1  0
 13 14  1  0
 13 15  1  0
 13 31  1  1
 14 32  1  0
 14 33  1  0
 14 42  1  0
 15 16  2  0
 15 17  1  0
 17 22  1  0
 17 18  1  0
 18 19  1  0
 18 34  1  0
 18 35  1  0
 19 20  1  0
 19 36  1  0
 19 37  1  0
 20 21  1  0
 21 22  1  0
 21 38  1  0
 21 39  1  0
 22 40  1  0
 22 41  1  0
M  CHG  1  14   1
M  END
>  <i_m_ct_stereo_status>  (180) 
1

>  <s_m_source_file>  (180) 
/var/tmp/pbs.5076255.sched01/tmp9vbryffn/46pprzbbw9.sdf

>  <i_m_source_file_index>  (180) 
33

>  <i_lp_mmshare_version>  (180) 
48012

>  <i_f3d_flags>  (180) 
0

>  <s_epik_input>  (180) 
czFbY0hdW2NIXW5jMS1uKG5jMltDSDNdKVtjSF1jMltDSDJdW0NASF0oW05IMl0pQyg9TylOM1tDSDJdW0NIMl1PW0NIMl1bQ0gyXTM=

>  <s_epik_cmdline>  (180) 
J2VwaWtfcHl0aG9uJywgJy1waHQnLCAnMi4wJywgJy1waCcsICc3LjAnLCAnLXRuJywgJzgnLCAnLW1hJywgJzIwMCcsICctaW1hZScsICc8aW5maWxlLm1hZT4nLCAnLW9tYWUnLCAnPG91dGZpbGUubWFlPic=

>  <r_lp_tautomer_probability>  (180) 
1

>  <r_epik_Ionization_Penalty>  (180) 
0.284073

>  <r_epik_Ionization_Penalty_Charging>  (180) 
0.284072

>  <r_epik_Ionization_Penalty_Neutral>  (180) 
1.37478e-06

>  <r_epik_State_Penalty>  (180) 
0.276792

>  <r_epik_Charging_Adjusted_Penalty>  (180) 
0.560863

>  <i_epik_Tot_Q>  (180) 
1

>  <i_epik_Tot_abs_Q>  (180) 
1

>  <s_lp_Force_Field>  (180) 
OPLS3e

>  <r_lp_Energy>  (180) 
12.5212

>  <b_lp_Chiralities_Consistent>  (180) 
1

>  <s_lp_Variant>  (180) 
47:0-1

>  <s_i_glide_gridfile>  (180) 
pfpi4k_grid

>  <i_i_glide_lignum>  (180) 
33

>  <i_i_glide_rotatable_bonds>  (180) 
5

>  <r_i_docking_score>  (180) 
-3.51635

>  <r_i_glide_ligand_efficiency>  (180) 
-0.159834

>  <r_i_glide_ligand_efficiency_sa>  (180) 
-0.447861

>  <r_i_glide_ligand_efficiency_ln>  (180) 
-0.859524

>  <r_i_glide_gscore>  (180) 
-3.51635

>  <r_i_glide_lipo>  (180) 
-0.376572

>  <r_i_glide_hbond>  (180) 
-0.32

>  <r_i_glide_metal>  (180) 
-0

>  <r_i_glide_rewards>  (180) 
-1.22681

>  <r_i_glide_evdw>  (180) 
-26.8946

>  <r_i_glide_ecoul>  (180) 
-5.84586

>  <r_i_glide_erotb>  (180) 
0.719599

>  <r_i_glide_esite>  (180) 
-0.0909632

>  <r_i_glide_emodel>  (180) 
-41.9623

>  <r_i_glide_energy>  (180) 
-32.7404

>  <r_i_glide_einternal>  (180) 
2.1295

>  <r_i_glide_intrahb_reward>  (180) 
-0

>  <i_i_glide_confnum>  (180) 
2

>  <i_i_glide_posenum>  (180) 
9

>  <r_i_glide_eff_state_penalty>  (180) 
0

>  <ligand_id>  (180) 
47

>  <original_smiles>  (180) 
Cc1nn(-c2nccs2)cc1CC(N)C(=O)N1CCOCC1

>  <smiles>  (180) 
[H]c1nc(-n2nc(C([H])([H])[H])c(C([H])([H])C([H])(C(=O)N3C([H])([H])C([H])([H])OC([H])([H])C3([H])[H])[N+]([H])([H])[H])c2[H])sc1[H]

$$$$
47:0:2
     RDKit          3D

 42 44  0  0  1  0  0  0  0  0999 V2000
   -2.9775    3.4281    3.2624 C   0  0  0  0  0  0  0  0  0  0  0  0
   -2.3668    2.7569    4.4539 C   0  0  0  0  0  0  0  0  0  0  0  0
   -2.7414    3.1651    5.6528 N   0  0  0  0  0  0  0  0  0  0  0  0
   -2.0734    2.3811    6.5177 N   0  0  0  0  0  0  0  0  0  0  0  0
   -2.2475    2.5354    7.9105 C   0  0  0  0  0  0  0  0  0  0  0  0
   -3.3865    2.9628    8.4706 N   0  0  0  0  0  0  0  0  0  0  0  0
   -3.3074    3.0143    9.8696 C   0  0  0  0  0  0  0  0  0  0  0  0
   -2.0902    2.6279   10.3580 C   0  0  0  0  0  0  0  0  0  0  0  0
   -0.9954    2.1495    9.0938 S   0  0  0  0  0  0  0  0  0  0  0  0
   -1.2554    1.4900    5.8521 C   0  0  0  0  0  0  0  0  0  0  0  0
   -1.4005    1.7029    4.5162 C   0  0  0  0  0  0  0  0  0  0  0  0
   -0.7195    0.9952    3.3701 C   0  0  0  0  0  0  0  0  0  0  0  0
    0.2283    1.9002    2.5485 C   0  0  2  0  0  0  0  0  0  0  0  0
    0.5775    1.2768    1.2807 N   0  0  0  0  0  0  0  0  0  0  0  0
    1.5348    2.2475    3.3014 C   0  0  0  0  0  0  0  0  0  0  0  0
    2.4330    1.4049    3.2776 O   0  0  0  0  0  0  0  0  0  0  0  0
    1.6837    3.4284    3.9520 N   0  0  0  0  0  0  0  0  0  0  0  0
    0.6757    4.4899    4.0659 C   0  0  0  0  0  0  0  0  0  0  0  0
    1.2743    5.8073    3.5486 C   0  0  0  0  0  0  0  0  0  0  0  0
    2.4345    6.1343    4.3015 O   0  0  0  0  0  0  0  0  0  0  0  0
    3.4472    5.1469    4.1607 C   0  0  0  0  0  0  0  0  0  0  0  0
    2.9270    3.7840    4.6620 C   0  0  0  0  0  0  0  0  0  0  0  0
   -2.6088    3.0077    2.3259 H   0  0  0  0  0  0  0  0  0  0  0  0
   -2.7438    4.4942    3.2668 H   0  0  0  0  0  0  0  0  0  0  0  0
   -4.0657    3.3265    3.2630 H   0  0  0  0  0  0  0  0  0  0  0  0
   -4.1762    3.3224   10.4369 H   0  0  0  0  0  0  0  0  0  0  0  0
   -1.7861    2.5608   11.3961 H   0  0  0  0  0  0  0  0  0  0  0  0
   -0.6443    0.7744    6.3836 H   0  0  0  0  0  0  0  0  0  0  0  0
   -0.1905    0.1081    3.7341 H   0  0  0  0  0  0  0  0  0  0  0  0
   -1.4902    0.6132    2.7010 H   0  0  0  0  0  0  0  0  0  0  0  0
   -0.3230    2.7706    2.2313 H   0  0  0  0  0  0  0  0  0  0  0  0
    1.0591    2.0042    0.7715 H   0  0  0  0  0  0  0  0  0  0  0  0
   -0.2253    0.9961    0.7077 H   0  0  0  0  0  0  0  0  0  0  0  0
   -0.2306    4.3373    3.4949 H   0  0  0  0  0  0  0  0  0  0  0  0
    0.3749    4.5794    5.1163 H   0  0  0  0  0  0  0  0  0  0  0  0
    1.5215    5.7344    2.4886 H   0  0  0  0  0  0  0  0  0  0  0  0
    0.5352    6.5979    3.6537 H   0  0  0  0  0  0  0  0  0  0  0  0
    3.7703    5.0866    3.1178 H   0  0  0  0  0  0  0  0  0  0  0  0
    4.3122    5.4663    4.7464 H   0  0  0  0  0  0  0  0  0  0  0  0
    2.7281    3.8371    5.7326 H   0  0  0  0  0  0  0  0  0  0  0  0
    3.7261    3.0493    4.5438 H   0  0  0  0  0  0  0  0  0  0  0  0
    1.2015    0.4954    1.4123 H   0  0  0  0  0  0  0  0  0  0  0  0
  1  2  1  0
  1 23  1  0
  1 24  1  0
  1 25  1  0
  2 11  1  0
  2  3  2  0
  3  4  1  0
  4  5  1  0
  4 10  1  0
  5  9  1  0
  5  6  2  0
  6  7  1  0
  7  8  2  0
  7 26  1  0
  8  9  1  0
  8 27  1  0
 10 11  2  0
 10 28  1  0
 11 12  1  0
 12 13  1  0
 12 29  1  0
 12 30  1  0
 13 14  1  0
 13 15  1  0
 13 31  1  6
 14 32  1  0
 14 33  1  0
 14 42  1  0
 15 16  2  0
 15 17  1  0
 17 22  1  0
 17 18  1  0
 18 19  1  0
 18 34  1  0
 18 35  1  0
 19 20  1  0
 19 36  1  0
 19 37  1  0
 20 21  1  0
 21 22  1  0
 21 38  1  0
 21 39  1  0
 22 40  1  0
 22 41  1  0
M  CHG  1  14   1
M  END
>  <i_m_ct_stereo_status>  (181) 
1

>  <s_m_source_file>  (181) 
/var/tmp/pbs.5076255.sched01/tmp9vbryffn/46pprzbbw9.sdf

>  <i_m_source_file_index>  (181) 
33

>  <i_lp_mmshare_version>  (181) 
48012

>  <i_f3d_flags>  (181) 
0

>  <s_epik_input>  (181) 
czFbY0hdW2NIXW5jMS1uKG5jMltDSDNdKVtjSF1jMltDSDJdW0NASF0oW05IMl0pQyg9TylOM1tDSDJdW0NIMl1PW0NIMl1bQ0gyXTM=

>  <s_epik_cmdline>  (181) 
J2VwaWtfcHl0aG9uJywgJy1waHQnLCAnMi4wJywgJy1waCcsICc3LjAnLCAnLXRuJywgJzgnLCAnLW1hJywgJzIwMCcsICctaW1hZScsICc8aW5maWxlLm1hZT4nLCAnLW9tYWUnLCAnPG91dGZpbGUubWFlPic=

>  <r_lp_tautomer_probability>  (181) 
1

>  <r_epik_Ionization_Penalty>  (181) 
0.284073

>  <r_epik_Ionization_Penalty_Charging>  (181) 
0.284072

>  <r_epik_Ionization_Penalty_Neutral>  (181) 
1.37478e-06

>  <r_epik_State_Penalty>  (181) 
0.276792

>  <r_epik_Charging_Adjusted_Penalty>  (181) 
0.560863

>  <i_epik_Tot_Q>  (181) 
1

>  <i_epik_Tot_abs_Q>  (181) 
1

>  <s_lp_Force_Field>  (181) 
OPLS3e

>  <r_lp_Energy>  (181) 
12.5212

>  <b_lp_Chiralities_Consistent>  (181) 
1

>  <s_lp_Variant>  (181) 
47:0-1

>  <s_i_glide_gridfile>  (181) 
pfpi4k_grid

>  <i_i_glide_lignum>  (181) 
33

>  <i_i_glide_rotatable_bonds>  (181) 
5

>  <r_i_docking_score>  (181) 
-3.34288

>  <r_i_glide_ligand_efficiency>  (181) 
-0.151949

>  <r_i_glide_ligand_efficiency_sa>  (181) 
-0.425767

>  <r_i_glide_ligand_efficiency_ln>  (181) 
-0.817122

>  <r_i_glide_gscore>  (181) 
-3.34288

>  <r_i_glide_lipo>  (181) 
-0.00279446

>  <r_i_glide_hbond>  (181) 
-0.2

>  <r_i_glide_metal>  (181) 
-0

>  <r_i_glide_rewards>  (181) 
-1.30625

>  <r_i_glide_evdw>  (181) 
-25.6632

>  <r_i_glide_ecoul>  (181) 
-7.47883

>  <r_i_glide_erotb>  (181) 
0.719599

>  <r_i_glide_esite>  (181) 
-0.14845

>  <r_i_glide_emodel>  (181) 
-41.8751

>  <r_i_glide_energy>  (181) 
-33.1421

>  <r_i_glide_einternal>  (181) 
1.66972

>  <r_i_glide_intrahb_reward>  (181) 
-0

>  <i_i_glide_confnum>  (181) 
2

>  <i_i_glide_posenum>  (181) 
2

>  <r_i_glide_eff_state_penalty>  (181) 
0

>  <ligand_id>  (181) 
47

>  <original_smiles>  (181) 
Cc1nn(-c2nccs2)cc1CC(N)C(=O)N1CCOCC1

>  <smiles>  (181) 
[H]c1nc(-n2nc(C([H])([H])[H])c(C([H])([H])C([H])(C(=O)N3C([H])([H])C([H])([H])OC([H])([H])C3([H])[H])[N+]([H])([H])[H])c2[H])sc1[H]

$$$$
47:1:0
     RDKit          3D

 41 43  0  0  1  0  0  0  0  0999 V2000
    4.2817   -3.8929    4.2602 C   0  0  0  0  0  0  0  0  0  0  0  0
    3.8729   -2.7219    3.4220 C   0  0  0  0  0  0  0  0  0  0  0  0
    2.7128   -2.1548    3.7006 N   0  0  0  0  0  0  0  0  0  0  0  0
    2.6100   -1.1449    2.8123 N   0  0  0  0  0  0  0  0  0  0  0  0
    1.4849   -0.2844    2.8078 C   0  0  0  0  0  0  0  0  0  0  0  0
    1.3224    0.6815    1.9033 N   0  0  0  0  0  0  0  0  0  0  0  0
    0.1189    1.3839    2.0688 C   0  0  0  0  0  0  0  0  0  0  0  0
   -0.6001    0.9708    3.1610 C   0  0  0  0  0  0  0  0  0  0  0  0
    0.1731   -0.3403    3.9996 S   0  0  0  0  0  0  0  0  0  0  0  0
    3.7002   -1.0872    1.9826 C   0  0  0  0  0  0  0  0  0  0  0  0
    4.5544   -2.0900    2.3330 C   0  0  0  0  0  0  0  0  0  0  0  0
    5.8769   -2.4428    1.6980 C   0  0  0  0  0  0  0  0  0  0  0  0
    5.7583   -2.9334    0.2423 C   0  0  2  0  0  0  0  0  0  0  0  0
    7.0330   -3.4622   -0.2271 N   0  0  0  0  0  0  0  0  0  0  0  0
    5.2821   -1.8270   -0.7213 C   0  0  0  0  0  0  0  0  0  0  0  0
    5.7499   -0.7024   -0.5722 O   0  0  0  0  0  0  0  0  0  0  0  0
    4.4023   -2.1130   -1.7032 N   0  0  0  0  0  0  0  0  0  0  0  0
    3.7452   -1.0562   -2.4935 C   0  0  0  0  0  0  0  0  0  0  0  0
    3.9646   -1.3124   -3.9902 C   0  0  0  0  0  0  0  0  0  0  0  0
    3.5014   -2.6066   -4.3250 O   0  0  0  0  0  0  0  0  0  0  0  0
    4.1910   -3.6213   -3.6225 C   0  0  0  0  0  0  0  0  0  0  0  0
    3.9699   -3.4568   -2.1125 C   0  0  0  0  0  0  0  0  0  0  0  0
    5.2385   -4.3085    3.9454 H   0  0  0  0  0  0  0  0  0  0  0  0
    3.5302   -4.6830    4.2002 H   0  0  0  0  0  0  0  0  0  0  0  0
    4.3662   -3.5932    5.3071 H   0  0  0  0  0  0  0  0  0  0  0  0
   -0.1421    2.1397    1.3471 H   0  0  0  0  0  0  0  0  0  0  0  0
   -1.5484    1.3472    3.5079 H   0  0  0  0  0  0  0  0  0  0  0  0
    3.7760   -0.3432    1.2052 H   0  0  0  0  0  0  0  0  0  0  0  0
    6.5805   -1.6090    1.7756 H   0  0  0  0  0  0  0  0  0  0  0  0
    6.3349   -3.2559    2.2553 H   0  0  0  0  0  0  0  0  0  0  0  0
    5.0497   -3.7557    0.3049 H   0  0  0  0  0  0  0  0  0  0  0  0
    7.0088   -3.5895   -1.2276 H   0  0  0  0  0  0  0  0  0  0  0  0
    7.7935   -2.8246   -0.0441 H   0  0  0  0  0  0  0  0  0  0  0  0
    2.6743   -1.0390   -2.2716 H   0  0  0  0  0  0  0  0  0  0  0  0
    4.1178   -0.0543   -2.2761 H   0  0  0  0  0  0  0  0  0  0  0  0
    3.4181   -0.5823   -4.5866 H   0  0  0  0  0  0  0  0  0  0  0  0
    5.0153   -1.2156   -4.2490 H   0  0  0  0  0  0  0  0  0  0  0  0
    3.8245   -4.5920   -3.9521 H   0  0  0  0  0  0  0  0  0  0  0  0
    5.2598   -3.5978   -3.8566 H   0  0  0  0  0  0  0  0  0  0  0  0
    4.5300   -4.2993   -1.7002 H   0  0  0  0  0  0  0  0  0  0  0  0
    2.9231   -3.5918   -1.8311 H   0  0  0  0  0  0  0  0  0  0  0  0
  1  2  1  0
  1 23  1  0
  1 24  1  0
  1 25  1  0
  2 11  1  0
  2  3  2  0
  3  4  1  0
  4  5  1  0
  4 10  1  0
  5  9  1  0
  5  6  2  0
  6  7  1  0
  7  8  2  0
  7 26  1  0
  8  9  1  0
  8 27  1  0
 10 11  2  0
 10 28  1  0
 11 12  1  0
 12 13  1  0
 12 29  1  0
 12 30  1  0
 13 14  1  0
 13 15  1  0
 13 31  1  1
 14 32  1  0
 14 33  1  0
 15 16  2  0
 15 17  1  0
 17 22  1  0
 17 18  1  0
 18 19  1  0
 18 34  1  0
 18 35  1  0
 19 20  1  0
 19 36  1  0
 19 37  1  0
 20 21  1  0
 21 22  1  0
 21 38  1  0
 21 39  1  0
 22 40  1  0
 22 41  1  0
M  END
>  <i_m_ct_stereo_status>  (182) 
1

>  <s_m_source_file>  (182) 
/var/tmp/pbs.5076255.sched01/tmp9vbryffn/46pprzbbw9.sdf

>  <i_m_source_file_index>  (182) 
34

>  <i_lp_mmshare_version>  (182) 
48012

>  <i_f3d_flags>  (182) 
0

>  <s_epik_input>  (182) 
czFbY0hdW2NIXW5jMS1uKG5jMltDSDNdKVtjSF1jMltDSDJdW0NASF0oW05IMl0pQyg9TylOM1tDSDJdW0NIMl1PW0NIMl1bQ0gyXTM=

>  <s_epik_cmdline>  (182) 
J2VwaWtfcHl0aG9uJywgJy1waHQnLCAnMi4wJywgJy1waCcsICc3LjAnLCAnLXRuJywgJzgnLCAnLW1hJywgJzIwMCcsICctaW1hZScsICc8aW5maWxlLm1hZT4nLCAnLW9tYWUnLCAnPG91dGZpbGUubWFlPic=

>  <r_lp_tautomer_probability>  (182) 
1

>  <r_epik_Ionization_Penalty>  (182) 
0.57191

>  <r_epik_Ionization_Penalty_Charging>  (182) 
0

>  <r_epik_Ionization_Penalty_Neutral>  (182) 
0.57191

>  <r_epik_State_Penalty>  (182) 
0.583936

>  <r_epik_Charging_Adjusted_Penalty>  (182) 
0.583936

>  <i_epik_Tot_Q>  (182) 
0

>  <i_epik_Tot_abs_Q>  (182) 
0

>  <s_lp_Force_Field>  (182) 
OPLS3e

>  <r_lp_Energy>  (182) 
14.2975

>  <b_lp_Chiralities_Consistent>  (182) 
1

>  <s_lp_Variant>  (182) 
47:0-2

>  <s_i_glide_gridfile>  (182) 
pfpi4k_grid

>  <i_i_glide_lignum>  (182) 
34

>  <i_i_glide_rotatable_bonds>  (182) 
5

>  <r_i_docking_score>  (182) 
-2.99178

>  <r_i_glide_ligand_efficiency>  (182) 
-0.13599

>  <r_i_glide_ligand_efficiency_sa>  (182) 
-0.38105

>  <r_i_glide_ligand_efficiency_ln>  (182) 
-0.731301

>  <r_i_glide_gscore>  (182) 
-2.99178

>  <r_i_glide_lipo>  (182) 
-0.311554

>  <r_i_glide_hbond>  (182) 
-0.336294

>  <r_i_glide_metal>  (182) 
-0

>  <r_i_glide_rewards>  (182) 
-1.21773

>  <r_i_glide_evdw>  (182) 
-28.1879

>  <r_i_glide_ecoul>  (182) 
-2.35394

>  <r_i_glide_erotb>  (182) 
0.723583

>  <r_i_glide_esite>  (182) 
-0.0872944

>  <r_i_glide_emodel>  (182) 
-36.2842

>  <r_i_glide_energy>  (182) 
-30.5419

>  <r_i_glide_einternal>  (182) 
0.546315

>  <r_i_glide_intrahb_reward>  (182) 
-0

>  <i_i_glide_confnum>  (182) 
4

>  <i_i_glide_posenum>  (182) 
2

>  <r_i_glide_eff_state_penalty>  (182) 
0

>  <ligand_id>  (182) 
47

>  <original_smiles>  (182) 
Cc1nn(-c2nccs2)cc1CC(N)C(=O)N1CCOCC1

>  <smiles>  (182) 
[H]c1nc(-n2nc(C([H])([H])[H])c(C([H])([H])C([H])(C(=O)N3C([H])([H])C([H])([H])OC([H])([H])C3([H])[H])N([H])[H])c2[H])sc1[H]

$$$$
47:1:1
     RDKit          3D

 41 43  0  0  1  0  0  0  0  0999 V2000
    5.1622   -8.2957    1.3691 C   0  0  0  0  0  0  0  0  0  0  0  0
    3.9043   -7.6154    1.8114 C   0  0  0  0  0  0  0  0  0  0  0  0
    2.8037   -8.3373    1.8969 N   0  0  0  0  0  0  0  0  0  0  0  0
    1.8596   -7.4691    2.3057 N   0  0  0  0  0  0  0  0  0  0  0  0
    0.5264   -7.8920    2.5101 C   0  0  0  0  0  0  0  0  0  0  0  0
   -0.5188   -7.0593    2.4762 N   0  0  0  0  0  0  0  0  0  0  0  0
   -1.7149   -7.7237    2.7202 C   0  0  0  0  0  0  0  0  0  0  0  0
   -1.5855   -9.0620    2.9429 C   0  0  0  0  0  0  0  0  0  0  0  0
    0.0775   -9.5664    2.8822 S   0  0  0  0  0  0  0  0  0  0  0  0
    2.3737   -6.2057    2.4740 C   0  0  0  0  0  0  0  0  0  0  0  0
    3.6952   -6.2487    2.1673 C   0  0  0  0  0  0  0  0  0  0  0  0
    4.6807   -5.1109    2.1705 C   0  0  0  0  0  0  0  0  0  0  0  0
    4.9875   -4.5413    0.7729 C   0  0  2  0  0  0  0  0  0  0  0  0
    6.0626   -3.5586    0.8829 N   0  0  0  0  0  0  0  0  0  0  0  0
    3.7665   -3.9302    0.0479 C   0  0  0  0  0  0  0  0  0  0  0  0
    2.7412   -3.6974    0.6976 O   0  0  0  0  0  0  0  0  0  0  0  0
    3.8490   -3.6465   -1.2672 N   0  0  0  0  0  0  0  0  0  0  0  0
    2.7018   -3.1238   -2.0267 C   0  0  0  0  0  0  0  0  0  0  0  0
    3.1108   -1.8236   -2.7348 C   0  0  0  0  0  0  0  0  0  0  0  0
    4.2274   -2.0726   -3.5829 O   0  0  0  0  0  0  0  0  0  0  0  0
    5.3513   -2.5347   -2.8430 C   0  0  0  0  0  0  0  0  0  0  0  0
    5.0178   -3.8584   -2.1403 C   0  0  0  0  0  0  0  0  0  0  0  0
    6.0010   -7.5993    1.3180 H   0  0  0  0  0  0  0  0  0  0  0  0
    5.0213   -8.7423    0.3836 H   0  0  0  0  0  0  0  0  0  0  0  0
    5.4227   -9.0982    2.0622 H   0  0  0  0  0  0  0  0  0  0  0  0
   -2.6321   -7.1518    2.7112 H   0  0  0  0  0  0  0  0  0  0  0  0
   -2.3414   -9.7929    3.1788 H   0  0  0  0  0  0  0  0  0  0  0  0
    1.7632   -5.3732    2.7905 H   0  0  0  0  0  0  0  0  0  0  0  0
    4.3318   -4.2991    2.8162 H   0  0  0  0  0  0  0  0  0  0  0  0
    5.6141   -5.4455    2.6266 H   0  0  0  0  0  0  0  0  0  0  0  0
    5.3504   -5.3648    0.1572 H   0  0  0  0  0  0  0  0  0  0  0  0
    6.1752   -3.0858    0.0039 H   0  0  0  0  0  0  0  0  0  0  0  0
    5.8465   -2.8465    1.5685 H   0  0  0  0  0  0  0  0  0  0  0  0
    2.3652   -3.8591   -2.7607 H   0  0  0  0  0  0  0  0  0  0  0  0
    1.8280   -2.9265   -1.4061 H   0  0  0  0  0  0  0  0  0  0  0  0
    2.2875   -1.4641   -3.3487 H   0  0  0  0  0  0  0  0  0  0  0  0
    3.3441   -1.0398   -2.0090 H   0  0  0  0  0  0  0  0  0  0  0  0
    6.1906   -2.6928   -3.5185 H   0  0  0  0  0  0  0  0  0  0  0  0
    5.6545   -1.7695   -2.1208 H   0  0  0  0  0  0  0  0  0  0  0  0
    5.9375   -4.1756   -1.6539 H   0  0  0  0  0  0  0  0  0  0  0  0
    4.7911   -4.6428   -2.8650 H   0  0  0  0  0  0  0  0  0  0  0  0
  1  2  1  0
  1 23  1  0
  1 24  1  0
  1 25  1  0
  2 11  1  0
  2  3  2  0
  3  4  1  0
  4  5  1  0
  4 10  1  0
  5  9  1  0
  5  6  2  0
  6  7  1  0
  7  8  2  0
  7 26  1  0
  8  9  1  0
  8 27  1  0
 10 11  2  0
 10 28  1  0
 11 12  1  0
 12 13  1  0
 12 29  1  0
 12 30  1  0
 13 14  1  0
 13 15  1  0
 13 31  1  6
 14 32  1  0
 14 33  1  0
 15 16  2  0
 15 17  1  0
 17 22  1  0
 17 18  1  0
 18 19  1  0
 18 34  1  0
 18 35  1  0
 19 20  1  0
 19 36  1  0
 19 37  1  0
 20 21  1  0
 21 22  1  0
 21 38  1  0
 21 39  1  0
 22 40  1  0
 22 41  1  0
M  END
>  <i_m_ct_stereo_status>  (183) 
1

>  <s_m_source_file>  (183) 
/var/tmp/pbs.5076255.sched01/tmp9vbryffn/46pprzbbw9.sdf

>  <i_m_source_file_index>  (183) 
34

>  <i_lp_mmshare_version>  (183) 
48012

>  <i_f3d_flags>  (183) 
0

>  <s_epik_input>  (183) 
czFbY0hdW2NIXW5jMS1uKG5jMltDSDNdKVtjSF1jMltDSDJdW0NASF0oW05IMl0pQyg9TylOM1tDSDJdW0NIMl1PW0NIMl1bQ0gyXTM=

>  <s_epik_cmdline>  (183) 
J2VwaWtfcHl0aG9uJywgJy1waHQnLCAnMi4wJywgJy1waCcsICc3LjAnLCAnLXRuJywgJzgnLCAnLW1hJywgJzIwMCcsICctaW1hZScsICc8aW5maWxlLm1hZT4nLCAnLW9tYWUnLCAnPG91dGZpbGUubWFlPic=

>  <r_lp_tautomer_probability>  (183) 
1

>  <r_epik_Ionization_Penalty>  (183) 
0.57191

>  <r_epik_Ionization_Penalty_Charging>  (183) 
0

>  <r_epik_Ionization_Penalty_Neutral>  (183) 
0.57191

>  <r_epik_State_Penalty>  (183) 
0.583936

>  <r_epik_Charging_Adjusted_Penalty>  (183) 
0.583936

>  <i_epik_Tot_Q>  (183) 
0

>  <i_epik_Tot_abs_Q>  (183) 
0

>  <s_lp_Force_Field>  (183) 
OPLS3e

>  <r_lp_Energy>  (183) 
14.2975

>  <b_lp_Chiralities_Consistent>  (183) 
1

>  <s_lp_Variant>  (183) 
47:0-2

>  <s_i_glide_gridfile>  (183) 
pfpi4k_grid

>  <i_i_glide_lignum>  (183) 
34

>  <i_i_glide_rotatable_bonds>  (183) 
5

>  <r_i_docking_score>  (183) 
-2.86749

>  <r_i_glide_ligand_efficiency>  (183) 
-0.13034

>  <r_i_glide_ligand_efficiency_sa>  (183) 
-0.365219

>  <r_i_glide_ligand_efficiency_ln>  (183) 
-0.700919

>  <r_i_glide_gscore>  (183) 
-2.86749

>  <r_i_glide_lipo>  (183) 
-0.297288

>  <r_i_glide_hbond>  (183) 
-0.132846

>  <r_i_glide_metal>  (183) 
-0

>  <r_i_glide_rewards>  (183) 
-1.21773

>  <r_i_glide_evdw>  (183) 
-29.2665

>  <r_i_glide_ecoul>  (183) 
-2.70907

>  <r_i_glide_erotb>  (183) 
0.723583

>  <r_i_glide_esite>  (183) 
-0.073514

>  <r_i_glide_emodel>  (183) 
-37.3208

>  <r_i_glide_energy>  (183) 
-31.9756

>  <r_i_glide_einternal>  (183) 
0.769738

>  <r_i_glide_intrahb_reward>  (183) 
-0

>  <i_i_glide_confnum>  (183) 
4

>  <i_i_glide_posenum>  (183) 
29

>  <r_i_glide_eff_state_penalty>  (183) 
0

>  <ligand_id>  (183) 
47

>  <original_smiles>  (183) 
Cc1nn(-c2nccs2)cc1CC(N)C(=O)N1CCOCC1

>  <smiles>  (183) 
[H]c1nc(-n2nc(C([H])([H])[H])c(C([H])([H])C([H])(C(=O)N3C([H])([H])C([H])([H])OC([H])([H])C3([H])[H])N([H])[H])c2[H])sc1[H]

$$$$
47:1:2
     RDKit          3D

 41 43  0  0  1  0  0  0  0  0999 V2000
   -2.9054    3.1825    3.2547 C   0  0  0  0  0  0  0  0  0  0  0  0
   -2.1858    2.6169    4.4419 C   0  0  0  0  0  0  0  0  0  0  0  0
   -2.5872    2.9915    5.6467 N   0  0  0  0  0  0  0  0  0  0  0  0
   -1.7846    2.3210    6.4992 N   0  0  0  0  0  0  0  0  0  0  0  0
   -1.9302    2.4567    7.9024 C   0  0  0  0  0  0  0  0  0  0  0  0
   -1.0915    1.8804    8.7709 N   0  0  0  0  0  0  0  0  0  0  0  0
   -1.4228    2.1695   10.1011 C   0  0  0  0  0  0  0  0  0  0  0  0
   -2.5475    2.9381   10.2280 C   0  0  0  0  0  0  0  0  0  0  0  0
   -3.2344    3.3498    8.6846 S   0  0  0  0  0  0  0  0  0  0  0  0
   -0.8738    1.5456    5.8197 C   0  0  0  0  0  0  0  0  0  0  0  0
   -1.0989    1.6932    4.4882 C   0  0  0  0  0  0  0  0  0  0  0  0
   -0.3294    1.0639    3.3489 C   0  0  0  0  0  0  0  0  0  0  0  0
    0.8747    1.9151    2.8974 C   0  0  2  0  0  0  0  0  0  0  0  0
    1.5430    1.3016    1.7583 N   0  0  0  0  0  0  0  0  0  0  0  0
    1.9105    2.1760    4.0178 C   0  0  0  0  0  0  0  0  0  0  0  0
    2.1169    1.2835    4.8461 O   0  0  0  0  0  0  0  0  0  0  0  0
    2.5791    3.3483    4.0562 N   0  0  0  0  0  0  0  0  0  0  0  0
    2.5695    4.3892    3.0129 C   0  0  0  0  0  0  0  0  0  0  0  0
    2.1179    5.7125    3.6457 C   0  0  0  0  0  0  0  0  0  0  0  0
    3.0142    6.0563    4.6978 O   0  0  0  0  0  0  0  0  0  0  0  0
    3.0103    5.0883    5.7416 C   0  0  0  0  0  0  0  0  0  0  0  0
    3.4416    3.7141    5.1945 C   0  0  0  0  0  0  0  0  0  0  0  0
   -2.4779    2.8295    2.3149 H   0  0  0  0  0  0  0  0  0  0  0  0
   -2.8589    4.2715    3.2598 H   0  0  0  0  0  0  0  0  0  0  0  0
   -3.9584    2.8964    3.2770 H   0  0  0  0  0  0  0  0  0  0  0  0
   -0.8181    1.7623   10.9030 H   0  0  0  0  0  0  0  0  0  0  0  0
   -3.0242    3.2616   11.1415 H   0  0  0  0  0  0  0  0  0  0  0  0
   -0.1264    0.9555    6.3332 H   0  0  0  0  0  0  0  0  0  0  0  0
   -0.0022    0.0517    3.6081 H   0  0  0  0  0  0  0  0  0  0  0  0
   -0.9890    0.9477    2.4888 H   0  0  0  0  0  0  0  0  0  0  0  0
    0.4281    2.8522    2.5735 H   0  0  0  0  0  0  0  0  0  0  0  0
    2.4281    1.7520    1.5872 H   0  0  0  0  0  0  0  0  0  0  0  0
    1.7342    0.3185    1.8952 H   0  0  0  0  0  0  0  0  0  0  0  0
    3.5753    4.4866    2.5973 H   0  0  0  0  0  0  0  0  0  0  0  0
    1.9304    4.1955    2.1554 H   0  0  0  0  0  0  0  0  0  0  0  0
    2.1186    6.5002    2.8977 H   0  0  0  0  0  0  0  0  0  0  0  0
    1.0973    5.6401    4.0292 H   0  0  0  0  0  0  0  0  0  0  0  0
    3.6960    5.4181    6.5245 H   0  0  0  0  0  0  0  0  0  0  0  0
    2.0148    5.0332    6.1895 H   0  0  0  0  0  0  0  0  0  0  0  0
    3.4026    3.0010    6.0214 H   0  0  0  0  0  0  0  0  0  0  0  0
    4.4774    3.7377    4.8634 H   0  0  0  0  0  0  0  0  0  0  0  0
  1  2  1  0
  1 23  1  0
  1 24  1  0
  1 25  1  0
  2 11  1  0
  2  3  2  0
  3  4  1  0
  4  5  1  0
  4 10  1  0
  5  9  1  0
  5  6  2  0
  6  7  1  0
  7  8  2  0
  7 26  1  0
  8  9  1  0
  8 27  1  0
 10 11  2  0
 10 28  1  0
 11 12  1  0
 12 13  1  0
 12 29  1  0
 12 30  1  0
 13 14  1  0
 13 15  1  0
 13 31  1  6
 14 32  1  0
 14 33  1  0
 15 16  2  0
 15 17  1  0
 17 22  1  0
 17 18  1  0
 18 19  1  0
 18 34  1  0
 18 35  1  0
 19 20  1  0
 19 36  1  0
 19 37  1  0
 20 21  1  0
 21 22  1  0
 21 38  1  0
 21 39  1  0
 22 40  1  0
 22 41  1  0
M  END
>  <i_m_ct_stereo_status>  (184) 
1

>  <s_m_source_file>  (184) 
/var/tmp/pbs.5076255.sched01/tmp9vbryffn/46pprzbbw9.sdf

>  <i_m_source_file_index>  (184) 
34

>  <i_lp_mmshare_version>  (184) 
48012

>  <i_f3d_flags>  (184) 
0

>  <s_epik_input>  (184) 
czFbY0hdW2NIXW5jMS1uKG5jMltDSDNdKVtjSF1jMltDSDJdW0NASF0oW05IMl0pQyg9TylOM1tDSDJdW0NIMl1PW0NIMl1bQ0gyXTM=

>  <s_epik_cmdline>  (184) 
J2VwaWtfcHl0aG9uJywgJy1waHQnLCAnMi4wJywgJy1waCcsICc3LjAnLCAnLXRuJywgJzgnLCAnLW1hJywgJzIwMCcsICctaW1hZScsICc8aW5maWxlLm1hZT4nLCAnLW9tYWUnLCAnPG91dGZpbGUubWFlPic=

>  <r_lp_tautomer_probability>  (184) 
1

>  <r_epik_Ionization_Penalty>  (184) 
0.57191

>  <r_epik_Ionization_Penalty_Charging>  (184) 
0

>  <r_epik_Ionization_Penalty_Neutral>  (184) 
0.57191

>  <r_epik_State_Penalty>  (184) 
0.583936

>  <r_epik_Charging_Adjusted_Penalty>  (184) 
0.583936

>  <i_epik_Tot_Q>  (184) 
0

>  <i_epik_Tot_abs_Q>  (184) 
0

>  <s_lp_Force_Field>  (184) 
OPLS3e

>  <r_lp_Energy>  (184) 
14.2975

>  <b_lp_Chiralities_Consistent>  (184) 
1

>  <s_lp_Variant>  (184) 
47:0-2

>  <s_i_glide_gridfile>  (184) 
pfpi4k_grid

>  <i_i_glide_lignum>  (184) 
34

>  <i_i_glide_rotatable_bonds>  (184) 
5

>  <r_i_docking_score>  (184) 
-2.45503

>  <r_i_glide_ligand_efficiency>  (184) 
-0.111592

>  <r_i_glide_ligand_efficiency_sa>  (184) 
-0.312686

>  <r_i_glide_ligand_efficiency_ln>  (184) 
-0.600099

>  <r_i_glide_gscore>  (184) 
-2.45503

>  <r_i_glide_lipo>  (184) 
-0.0347005

>  <r_i_glide_hbond>  (184) 
0

>  <r_i_glide_metal>  (184) 
-0

>  <r_i_glide_rewards>  (184) 
-1.23219

>  <r_i_glide_evdw>  (184) 
-27.1266

>  <r_i_glide_ecoul>  (184) 
-3.43702

>  <r_i_glide_erotb>  (184) 
0.723583

>  <r_i_glide_esite>  (184) 
-0.0398382

>  <r_i_glide_emodel>  (184) 
-34.8238

>  <r_i_glide_energy>  (184) 
-30.5636

>  <r_i_glide_einternal>  (184) 
0.99916

>  <r_i_glide_intrahb_reward>  (184) 
-0

>  <i_i_glide_confnum>  (184) 
4

>  <i_i_glide_posenum>  (184) 
3

>  <r_i_glide_eff_state_penalty>  (184) 
0

>  <ligand_id>  (184) 
47

>  <original_smiles>  (184) 
Cc1nn(-c2nccs2)cc1CC(N)C(=O)N1CCOCC1

>  <smiles>  (184) 
[H]c1nc(-n2nc(C([H])([H])[H])c(C([H])([H])C([H])(C(=O)N3C([H])([H])C([H])([H])OC([H])([H])C3([H])[H])N([H])[H])c2[H])sc1[H]

$$$$
49:0:0
     RDKit          3D

 32 34  0  0  1  0  0  0  0  0999 V2000
   -4.6726   -6.6619   -4.7531 O   0  0  0  0  0  0  0  0  0  0  0  0
   -5.8158   -6.3908   -5.1703 C   0  0  0  0  0  0  0  0  0  0  0  0
   -6.3926   -5.0173   -4.7774 C   0  0  0  0  0  0  0  0  0  0  0  0
   -7.3701   -4.4420   -5.8217 C   0  0  0  0  0  0  0  0  0  0  0  0
   -8.3867   -5.4888   -6.2295 C   0  0  0  0  0  0  0  0  0  0  0  0
   -7.7165   -6.7030   -6.8836 C   0  0  0  0  0  0  0  0  0  0  0  0
   -6.6058   -7.3315   -6.0069 C   0  0  0  0  0  0  0  0  0  0  0  0
   -6.2627   -8.6481   -6.0258 C   0  0  0  0  0  0  0  0  0  0  0  0
   -6.8917   -9.7166   -6.8169 C   0  0  0  0  0  0  0  0  0  0  0  0
   -8.2250   -9.8787   -6.8883 C   0  0  0  0  0  0  0  0  0  0  0  0
   -8.8367  -10.8911   -7.7311 C   0  0  0  0  0  0  0  0  0  0  0  0
  -10.2395  -10.9941   -7.9032 C   0  0  0  0  0  0  0  0  0  0  0  0
  -10.7194  -12.0344   -8.7232 C   0  0  0  0  0  0  0  0  0  0  0  0
   -9.7829  -12.8911   -9.3373 C   0  0  0  0  0  0  0  0  0  0  0  0
   -8.4464  -12.7586   -9.2159 N   0  0  0  0  0  0  0  0  0  0  0  0
   -7.9833  -11.7608   -8.4229 C   0  0  0  0  0  0  0  0  0  0  0  0
   -6.6135  -11.6335   -8.3285 O   0  0  0  0  0  0  0  0  0  0  0  0
   -5.9917  -10.6656   -7.5623 C   0  0  0  0  0  0  0  0  0  0  0  0
   -4.7648  -10.6166   -7.4954 O   0  0  0  0  0  0  0  0  0  0  0  0
   -6.9002   -5.1171   -3.8122 H   0  0  0  0  0  0  0  0  0  0  0  0
   -5.5827   -4.3014   -4.6312 H   0  0  0  0  0  0  0  0  0  0  0  0
   -7.8850   -3.5621   -5.4133 H   0  0  0  0  0  0  0  0  0  0  0  0
   -6.8263   -4.1175   -6.7130 H   0  0  0  0  0  0  0  0  0  0  0  0
   -8.9350   -5.8064   -5.3406 H   0  0  0  0  0  0  0  0  0  0  0  0
   -9.1167   -5.0745   -6.9168 H   0  0  0  0  0  0  0  0  0  0  0  0
   -8.5529   -7.3704   -7.0957 H   0  0  0  0  0  0  0  0  0  0  0  0
   -7.2482   -6.3997   -7.8357 H   0  0  0  0  0  0  0  0  0  0  0  0
   -5.4234   -8.9542   -5.4121 H   0  0  0  0  0  0  0  0  0  0  0  0
   -8.8995   -9.2664   -6.3089 H   0  0  0  0  0  0  0  0  0  0  0  0
  -10.9195  -10.3119   -7.4207 H   0  0  0  0  0  0  0  0  0  0  0  0
  -11.7817  -12.1818   -8.8621 H   0  0  0  0  0  0  0  0  0  0  0  0
  -10.1137  -13.7138   -9.9582 H   0  0  0  0  0  0  0  0  0  0  0  0
  1  2  2  0
  2  7  1  0
  2  3  1  0
  3  4  1  0
  3 20  1  0
  3 21  1  0
  4  5  1  0
  4 22  1  0
  4 23  1  0
  5  6  1  0
  5 24  1  0
  5 25  1  0
  6  7  1  0
  6 26  1  0
  6 27  1  0
  7  8  2  3
  8  9  1  0
  8 28  1  0
  9 18  1  0
  9 10  2  0
 10 11  1  0
 10 29  1  0
 11 16  2  0
 11 12  1  0
 12 13  2  0
 12 30  1  0
 13 14  1  0
 13 31  1  0
 14 15  2  0
 14 32  1  0
 15 16  1  0
 16 17  1  0
 17 18  1  0
 18 19  2  0
M  END
>  <i_m_ct_stereo_status>  (185) 
1

>  <s_m_source_file>  (185) 
/var/tmp/pbs.5076255.sched01/tmp9vbryffn/46pprzbbw9.sdf

>  <i_m_source_file_index>  (185) 
36

>  <i_lp_mmshare_version>  (185) 
48012

>  <i_f3d_flags>  (185) 
0

>  <s_epik_input>  (185) 
Tz1DMVtDSDJdW0NIMl1bQ0gyXVtDSDJdQ1wxPVtDSF0vYyhbY0hdMiljKD1PKW9jKGMyMyluW2NIXVtjSF1bY0hdMw==

>  <s_epik_cmdline>  (185) 
J2VwaWtfcHl0aG9uJywgJy1waHQnLCAnMi4wJywgJy1waCcsICc3LjAnLCAnLXRuJywgJzgnLCAnLW1hJywgJzIwMCcsICctaW1hZScsICc8aW5maWxlLm1hZT4nLCAnLW9tYWUnLCAnPG91dGZpbGUubWFlPic=

>  <r_lp_tautomer_probability>  (185) 
1

>  <r_epik_Ionization_Penalty>  (185) 
0.000115235

>  <r_epik_Ionization_Penalty_Charging>  (185) 
0

>  <r_epik_Ionization_Penalty_Neutral>  (185) 
0.000115235

>  <r_epik_State_Penalty>  (185) 
-0

>  <r_epik_Charging_Adjusted_Penalty>  (185) 
0

>  <i_epik_Tot_Q>  (185) 
0

>  <i_epik_Tot_abs_Q>  (185) 
0

>  <s_lp_Force_Field>  (185) 
OPLS3e

>  <r_lp_Energy>  (185) 
37.9211

>  <b_lp_Chiralities_Consistent>  (185) 
1

>  <s_lp_Variant>  (185) 
49:0-1

>  <s_i_glide_gridfile>  (185) 
pfpi4k_grid

>  <i_i_glide_lignum>  (185) 
36

>  <i_i_glide_rotatable_bonds>  (185) 
1

>  <r_i_docking_score>  (185) 
-7.19762

>  <r_i_glide_ligand_efficiency>  (185) 
-0.378822

>  <r_i_glide_ligand_efficiency_sa>  (185) 
-1.01085

>  <r_i_glide_ligand_efficiency_ln>  (185) 
-1.82475

>  <r_i_glide_gscore>  (185) 
-7.19762

>  <r_i_glide_lipo>  (185) 
-2.12323

>  <r_i_glide_hbond>  (185) 
-0.32

>  <r_i_glide_metal>  (185) 
-0

>  <r_i_glide_rewards>  (185) 
-3.04451

>  <r_i_glide_evdw>  (185) 
-24.145

>  <r_i_glide_ecoul>  (185) 
-3.35085

>  <r_i_glide_erotb>  (185) 
0

>  <r_i_glide_esite>  (185) 
0

>  <r_i_glide_emodel>  (185) 
-40.3573

>  <r_i_glide_energy>  (185) 
-27.4959

>  <r_i_glide_einternal>  (185) 
0.162819

>  <r_i_glide_intrahb_reward>  (185) 
-0

>  <i_i_glide_confnum>  (185) 
3

>  <i_i_glide_posenum>  (185) 
17

>  <r_i_glide_eff_state_penalty>  (185) 
0

>  <ligand_id>  (185) 
49

>  <original_smiles>  (185) 
O=C1CCCCC1=Cc1cc2cccnc2oc1=O

>  <smiles>  (185) 
[H]C(=C1C(=O)C([H])([H])C([H])([H])C([H])([H])C1([H])[H])c1c([H])c2c([H])c([H])c([H])nc2oc1=O

$$$$
49:0:1
     RDKit          3D

 32 34  0  0  1  0  0  0  0  0999 V2000
   -7.4634   -4.3035   -4.4918 O   0  0  0  0  0  0  0  0  0  0  0  0
   -8.0721   -4.8014   -5.4435 C   0  0  0  0  0  0  0  0  0  0  0  0
   -9.2588   -4.0034   -6.0226 C   0  0  0  0  0  0  0  0  0  0  0  0
   -9.4794   -4.2644   -7.5169 C   0  0  0  0  0  0  0  0  0  0  0  0
   -9.5191   -5.7556   -7.8149 C   0  0  0  0  0  0  0  0  0  0  0  0
   -8.1887   -6.4105   -7.4523 C   0  0  0  0  0  0  0  0  0  0  0  0
   -7.7204   -6.1357   -6.0128 C   0  0  0  0  0  0  0  0  0  0  0  0
   -6.9559   -6.9823   -5.2872 C   0  0  0  0  0  0  0  0  0  0  0  0
   -6.4780   -8.3007   -5.7107 C   0  0  0  0  0  0  0  0  0  0  0  0
   -7.2933   -9.2494   -6.2119 C   0  0  0  0  0  0  0  0  0  0  0  0
   -6.7884  -10.5352   -6.6782 C   0  0  0  0  0  0  0  0  0  0  0  0
   -7.6123  -11.5254   -7.2563 C   0  0  0  0  0  0  0  0  0  0  0  0
   -7.0091  -12.7409   -7.6401 C   0  0  0  0  0  0  0  0  0  0  0  0
   -5.6214  -12.8903   -7.4440 C   0  0  0  0  0  0  0  0  0  0  0  0
   -4.8298  -11.9280   -6.9267 N   0  0  0  0  0  0  0  0  0  0  0  0
   -5.4148  -10.7702   -6.5399 C   0  0  0  0  0  0  0  0  0  0  0  0
   -4.5760   -9.8186   -5.9974 O   0  0  0  0  0  0  0  0  0  0  0  0
   -5.0101   -8.5726   -5.5821 C   0  0  0  0  0  0  0  0  0  0  0  0
   -4.2192   -7.7408   -5.1282 O   0  0  0  0  0  0  0  0  0  0  0  0
  -10.1600   -4.2638   -5.4659 H   0  0  0  0  0  0  0  0  0  0  0  0
   -9.0990   -2.9391   -5.8636 H   0  0  0  0  0  0  0  0  0  0  0  0
  -10.4268   -3.8209   -7.8286 H   0  0  0  0  0  0  0  0  0  0  0  0
   -8.6831   -3.7941   -8.1029 H   0  0  0  0  0  0  0  0  0  0  0  0
  -10.3337   -6.2188   -7.2511 H   0  0  0  0  0  0  0  0  0  0  0  0
   -9.7311   -5.9374   -8.8630 H   0  0  0  0  0  0  0  0  0  0  0  0
   -8.3418   -7.4675   -7.6506 H   0  0  0  0  0  0  0  0  0  0  0  0
   -7.3949   -6.0710   -8.1273 H   0  0  0  0  0  0  0  0  0  0  0  0
   -6.6383   -6.6671   -4.3002 H   0  0  0  0  0  0  0  0  0  0  0  0
   -8.3545   -9.0994   -6.2985 H   0  0  0  0  0  0  0  0  0  0  0  0
   -8.6701  -11.3663   -7.3966 H   0  0  0  0  0  0  0  0  0  0  0  0
   -7.5976  -13.5387   -8.0730 H   0  0  0  0  0  0  0  0  0  0  0  0
   -5.1281  -13.8131   -7.7207 H   0  0  0  0  0  0  0  0  0  0  0  0
  1  2  2  0
  2  7  1  0
  2  3  1  0
  3  4  1  0
  3 20  1  0
  3 21  1  0
  4  5  1  0
  4 22  1  0
  4 23  1  0
  5  6  1  0
  5 24  1  0
  5 25  1  0
  6  7  1  0
  6 26  1  0
  6 27  1  0
  7  8  2  3
  8  9  1  0
  8 28  1  0
  9 18  1  0
  9 10  2  0
 10 11  1  0
 10 29  1  0
 11 16  2  0
 11 12  1  0
 12 13  2  0
 12 30  1  0
 13 14  1  0
 13 31  1  0
 14 15  2  0
 14 32  1  0
 15 16  1  0
 16 17  1  0
 17 18  1  0
 18 19  2  0
M  END
>  <i_m_ct_stereo_status>  (186) 
1

>  <s_m_source_file>  (186) 
/var/tmp/pbs.5076255.sched01/tmp9vbryffn/46pprzbbw9.sdf

>  <i_m_source_file_index>  (186) 
36

>  <i_lp_mmshare_version>  (186) 
48012

>  <i_f3d_flags>  (186) 
0

>  <s_epik_input>  (186) 
Tz1DMVtDSDJdW0NIMl1bQ0gyXVtDSDJdQ1wxPVtDSF0vYyhbY0hdMiljKD1PKW9jKGMyMyluW2NIXVtjSF1bY0hdMw==

>  <s_epik_cmdline>  (186) 
J2VwaWtfcHl0aG9uJywgJy1waHQnLCAnMi4wJywgJy1waCcsICc3LjAnLCAnLXRuJywgJzgnLCAnLW1hJywgJzIwMCcsICctaW1hZScsICc8aW5maWxlLm1hZT4nLCAnLW9tYWUnLCAnPG91dGZpbGUubWFlPic=

>  <r_lp_tautomer_probability>  (186) 
1

>  <r_epik_Ionization_Penalty>  (186) 
0.000115235

>  <r_epik_Ionization_Penalty_Charging>  (186) 
0

>  <r_epik_Ionization_Penalty_Neutral>  (186) 
0.000115235

>  <r_epik_State_Penalty>  (186) 
-0

>  <r_epik_Charging_Adjusted_Penalty>  (186) 
0

>  <i_epik_Tot_Q>  (186) 
0

>  <i_epik_Tot_abs_Q>  (186) 
0

>  <s_lp_Force_Field>  (186) 
OPLS3e

>  <r_lp_Energy>  (186) 
37.9211

>  <b_lp_Chiralities_Consistent>  (186) 
1

>  <s_lp_Variant>  (186) 
49:0-1

>  <s_i_glide_gridfile>  (186) 
pfpi4k_grid

>  <i_i_glide_lignum>  (186) 
36

>  <i_i_glide_rotatable_bonds>  (186) 
1

>  <r_i_docking_score>  (186) 
-6.53992

>  <r_i_glide_ligand_efficiency>  (186) 
-0.344206

>  <r_i_glide_ligand_efficiency_sa>  (186) 
-0.918481

>  <r_i_glide_ligand_efficiency_ln>  (186) 
-1.65801

>  <r_i_glide_gscore>  (186) 
-6.53992

>  <r_i_glide_lipo>  (186) 
-2.33186

>  <r_i_glide_hbond>  (186) 
-0.00438613

>  <r_i_glide_metal>  (186) 
-0

>  <r_i_glide_rewards>  (186) 
-2.76029

>  <r_i_glide_evdw>  (186) 
-32.281

>  <r_i_glide_ecoul>  (186) 
1.13777

>  <r_i_glide_erotb>  (186) 
0

>  <r_i_glide_esite>  (186) 
0

>  <r_i_glide_emodel>  (186) 
-43.0791

>  <r_i_glide_energy>  (186) 
-31.1432

>  <r_i_glide_einternal>  (186) 
0.0517436

>  <r_i_glide_intrahb_reward>  (186) 
-0

>  <i_i_glide_confnum>  (186) 
3

>  <i_i_glide_posenum>  (186) 
18

>  <r_i_glide_eff_state_penalty>  (186) 
0

>  <ligand_id>  (186) 
49

>  <original_smiles>  (186) 
O=C1CCCCC1=Cc1cc2cccnc2oc1=O

>  <smiles>  (186) 
[H]C(=C1C(=O)C([H])([H])C([H])([H])C([H])([H])C1([H])[H])c1c([H])c2c([H])c([H])c([H])nc2oc1=O

$$$$
49:0:2
     RDKit          3D

 32 34  0  0  1  0  0  0  0  0999 V2000
   -7.3570   -4.7600   -4.3008 O   0  0  0  0  0  0  0  0  0  0  0  0
   -7.8794   -5.0958   -5.3696 C   0  0  0  0  0  0  0  0  0  0  0  0
   -8.9131   -4.1339   -5.9924 C   0  0  0  0  0  0  0  0  0  0  0  0
   -8.9663   -4.1953   -7.5222 C   0  0  0  0  0  0  0  0  0  0  0  0
   -9.1057   -5.6360   -7.9983 C   0  0  0  0  0  0  0  0  0  0  0  0
   -7.8695   -6.4133   -7.5937 C   0  0  0  0  0  0  0  0  0  0  0  0
   -7.5771   -6.3946   -6.0785 C   0  0  0  0  0  0  0  0  0  0  0  0
   -6.9928   -7.4151   -5.4043 C   0  0  0  0  0  0  0  0  0  0  0  0
   -6.6179   -8.7355   -5.9657 C   0  0  0  0  0  0  0  0  0  0  0  0
   -5.4133   -9.2665   -5.7094 C   0  0  0  0  0  0  0  0  0  0  0  0
   -5.0166  -10.5541   -6.2840 C   0  0  0  0  0  0  0  0  0  0  0  0
   -3.7854  -11.1836   -6.0627 C   0  0  0  0  0  0  0  0  0  0  0  0
   -3.5407  -12.4131   -6.7155 C   0  0  0  0  0  0  0  0  0  0  0  0
   -4.5408  -12.9769   -7.5183 C   0  0  0  0  0  0  0  0  0  0  0  0
   -5.7150  -12.3778   -7.7366 N   0  0  0  0  0  0  0  0  0  0  0  0
   -5.9327  -11.2004   -7.1273 C   0  0  0  0  0  0  0  0  0  0  0  0
   -7.1588  -10.6868   -7.3633 O   0  0  0  0  0  0  0  0  0  0  0  0
   -7.6234   -9.5634   -6.7809 C   0  0  0  0  0  0  0  0  0  0  0  0
   -8.7953   -9.2995   -6.9435 O   0  0  0  0  0  0  0  0  0  0  0  0
   -9.8934   -4.3652   -5.5823 H   0  0  0  0  0  0  0  0  0  0  0  0
   -8.6807   -3.1167   -5.6971 H   0  0  0  0  0  0  0  0  0  0  0  0
   -9.8104   -3.6216   -7.9054 H   0  0  0  0  0  0  0  0  0  0  0  0
   -8.0550   -3.7731   -7.9539 H   0  0  0  0  0  0  0  0  0  0  0  0
   -9.9965   -6.1132   -7.5911 H   0  0  0  0  0  0  0  0  0  0  0  0
   -9.1720   -5.6996   -9.0831 H   0  0  0  0  0  0  0  0  0  0  0  0
   -8.0143   -7.3744   -8.0403 H   0  0  0  0  0  0  0  0  0  0  0  0
   -6.9816   -6.0580   -8.1094 H   0  0  0  0  0  0  0  0  0  0  0  0
   -6.7588   -7.2681   -4.3570 H   0  0  0  0  0  0  0  0  0  0  0  0
   -4.6892   -8.7563   -5.0904 H   0  0  0  0  0  0  0  0  0  0  0  0
   -3.0167  -10.7304   -5.4468 H   0  0  0  0  0  0  0  0  0  0  0  0
   -2.6112  -12.9353   -6.5774 H   0  0  0  0  0  0  0  0  0  0  0  0
   -4.4137  -13.9186   -8.0234 H   0  0  0  0  0  0  0  0  0  0  0  0
  1  2  2  0
  2  7  1  0
  2  3  1  0
  3  4  1  0
  3 20  1  0
  3 21  1  0
  4  5  1  0
  4 22  1  0
  4 23  1  0
  5  6  1  0
  5 24  1  0
  5 25  1  0
  6  7  1  0
  6 26  1  0
  6 27  1  0
  7  8  2  3
  8  9  1  0
  8 28  1  0
  9 18  1  0
  9 10  2  0
 10 11  1  0
 10 29  1  0
 11 16  2  0
 11 12  1  0
 12 13  2  0
 12 30  1  0
 13 14  1  0
 13 31  1  0
 14 15  2  0
 14 32  1  0
 15 16  1  0
 16 17  1  0
 17 18  1  0
 18 19  2  0
M  END
>  <i_m_ct_stereo_status>  (187) 
1

>  <s_m_source_file>  (187) 
/var/tmp/pbs.5076255.sched01/tmp9vbryffn/46pprzbbw9.sdf

>  <i_m_source_file_index>  (187) 
36

>  <i_lp_mmshare_version>  (187) 
48012

>  <i_f3d_flags>  (187) 
0

>  <s_epik_input>  (187) 
Tz1DMVtDSDJdW0NIMl1bQ0gyXVtDSDJdQ1wxPVtDSF0vYyhbY0hdMiljKD1PKW9jKGMyMyluW2NIXVtjSF1bY0hdMw==

>  <s_epik_cmdline>  (187) 
J2VwaWtfcHl0aG9uJywgJy1waHQnLCAnMi4wJywgJy1waCcsICc3LjAnLCAnLXRuJywgJzgnLCAnLW1hJywgJzIwMCcsICctaW1hZScsICc8aW5maWxlLm1hZT4nLCAnLW9tYWUnLCAnPG91dGZpbGUubWFlPic=

>  <r_lp_tautomer_probability>  (187) 
1

>  <r_epik_Ionization_Penalty>  (187) 
0.000115235

>  <r_epik_Ionization_Penalty_Charging>  (187) 
0

>  <r_epik_Ionization_Penalty_Neutral>  (187) 
0.000115235

>  <r_epik_State_Penalty>  (187) 
-0

>  <r_epik_Charging_Adjusted_Penalty>  (187) 
0

>  <i_epik_Tot_Q>  (187) 
0

>  <i_epik_Tot_abs_Q>  (187) 
0

>  <s_lp_Force_Field>  (187) 
OPLS3e

>  <r_lp_Energy>  (187) 
37.9211

>  <b_lp_Chiralities_Consistent>  (187) 
1

>  <s_lp_Variant>  (187) 
49:0-1

>  <s_i_glide_gridfile>  (187) 
pfpi4k_grid

>  <i_i_glide_lignum>  (187) 
36

>  <i_i_glide_rotatable_bonds>  (187) 
1

>  <r_i_docking_score>  (187) 
-5.96257

>  <r_i_glide_ligand_efficiency>  (187) 
-0.31382

>  <r_i_glide_ligand_efficiency_sa>  (187) 
-0.837397

>  <r_i_glide_ligand_efficiency_ln>  (187) 
-1.51164

>  <r_i_glide_gscore>  (187) 
-5.96257

>  <r_i_glide_lipo>  (187) 
-2.14244

>  <r_i_glide_hbond>  (187) 
0

>  <r_i_glide_metal>  (187) 
-0

>  <r_i_glide_rewards>  (187) 
-2.68155

>  <r_i_glide_evdw>  (187) 
-24.2962

>  <r_i_glide_ecoul>  (187) 
0.508182

>  <r_i_glide_erotb>  (187) 
0

>  <r_i_glide_esite>  (187) 
0

>  <r_i_glide_emodel>  (187) 
-30.9514

>  <r_i_glide_energy>  (187) 
-23.7881

>  <r_i_glide_einternal>  (187) 
5.08871

>  <r_i_glide_intrahb_reward>  (187) 
-0

>  <i_i_glide_confnum>  (187) 
2

>  <i_i_glide_posenum>  (187) 
14

>  <r_i_glide_eff_state_penalty>  (187) 
0

>  <ligand_id>  (187) 
49

>  <original_smiles>  (187) 
O=C1CCCCC1=Cc1cc2cccnc2oc1=O

>  <smiles>  (187) 
[H]C(=C1C(=O)C([H])([H])C([H])([H])C([H])([H])C1([H])[H])c1c([H])c2c([H])c([H])c([H])nc2oc1=O

$$$$
50:0:0
     RDKit          3D

 45 48  0  0  1  0  0  0  0  0999 V2000
    4.4990   -9.0132    0.8278 C   0  0  0  0  0  0  0  0  0  0  0  0
    3.7781   -8.3088    1.8705 N   0  0  0  0  0  0  0  0  0  0  0  0
    2.5353   -8.8375    2.4292 C   0  0  0  0  0  0  0  0  0  0  0  0
    1.6315   -7.6543    2.8323 C   0  0  0  0  0  0  0  0  0  0  0  0
    2.3974   -6.4892    2.2946 C   0  0  0  0  0  0  0  0  0  0  0  0
    2.0231   -5.1246    2.2900 C   0  0  0  0  0  0  0  0  0  0  0  0
    2.8873   -4.1902    1.6691 C   0  0  0  0  0  0  0  0  0  0  0  0
    4.0949   -4.6353    1.0743 C   0  0  0  0  0  0  0  0  0  0  0  0
    5.2242   -3.4746    0.2896 S   0  0  0  0  0  0  0  0  0  0  0  0
    5.4222   -2.3546    1.2246 O   0  0  0  0  0  0  0  0  0  0  0  0
    6.3901   -4.2016   -0.2411 O   0  0  0  0  0  0  0  0  0  0  0  0
    4.3407   -2.8933   -1.0713 N   0  0  0  0  0  0  0  0  0  0  0  0
    3.7606   -1.5503   -1.1084 C   0  0  0  0  0  0  0  0  0  0  0  0
    4.3328   -0.7802   -2.3121 C   0  0  0  0  0  0  0  0  0  0  0  0
    4.0360   -1.5596   -3.6119 C   0  0  0  0  0  0  0  0  0  0  0  0
    4.6784   -2.9558   -3.5401 C   0  0  0  0  0  0  0  0  0  0  0  0
    4.1692   -3.6960   -2.2925 C   0  0  0  0  0  0  0  0  0  0  0  0
    4.6120   -0.8694   -4.6563 O   0  0  0  0  0  0  0  0  0  0  0  0
    3.6101   -0.0514   -5.2399 C   0  0  0  0  0  0  0  0  0  0  0  0
    2.3565   -0.4133   -4.4902 C   0  0  0  0  0  0  0  0  0  0  0  0
    2.6755   -1.6478   -3.8722 O   0  0  0  0  0  0  0  0  0  0  0  0
    4.4687   -5.9977    1.1109 C   0  0  0  0  0  0  0  0  0  0  0  0
    3.5867   -6.9097    1.7391 C   0  0  0  0  0  0  0  0  0  0  0  0
    5.3604   -8.4612    0.4668 H   0  0  0  0  0  0  0  0  0  0  0  0
    3.8409   -9.2244   -0.0125 H   0  0  0  0  0  0  0  0  0  0  0  0
    4.8785   -9.9644    1.2005 H   0  0  0  0  0  0  0  0  0  0  0  0
    2.0351   -9.4690    1.6880 H   0  0  0  0  0  0  0  0  0  0  0  0
    2.7524   -9.4779    3.2891 H   0  0  0  0  0  0  0  0  0  0  0  0
    0.6386   -7.7331    2.3886 H   0  0  0  0  0  0  0  0  0  0  0  0
    1.5292   -7.5816    3.9129 H   0  0  0  0  0  0  0  0  0  0  0  0
    1.0955   -4.8090    2.7532 H   0  0  0  0  0  0  0  0  0  0  0  0
    2.6325   -3.1471    1.6629 H   0  0  0  0  0  0  0  0  0  0  0  0
    2.6814   -1.6525   -1.1895 H   0  0  0  0  0  0  0  0  0  0  0  0
    3.9794   -0.9869   -0.1984 H   0  0  0  0  0  0  0  0  0  0  0  0
    3.9431    0.2194   -2.3631 H   0  0  0  0  0  0  0  0  0  0  0  0
    5.4109   -0.6684   -2.2101 H   0  0  0  0  0  0  0  0  0  0  0  0
    4.4567   -3.5111   -4.4484 H   0  0  0  0  0  0  0  0  0  0  0  0
    5.7610   -2.8457   -3.4804 H   0  0  0  0  0  0  0  0  0  0  0  0
    4.6793   -4.6598   -2.1931 H   0  0  0  0  0  0  0  0  0  0  0  0
    3.1054   -3.8611   -2.4361 H   0  0  0  0  0  0  0  0  0  0  0  0
    3.8374    1.0102   -5.1463 H   0  0  0  0  0  0  0  0  0  0  0  0
    3.4763   -0.2784   -6.2939 H   0  0  0  0  0  0  0  0  0  0  0  0
    2.2027    0.3193   -3.7069 H   0  0  0  0  0  0  0  0  0  0  0  0
    1.4834   -0.4094   -5.1416 H   0  0  0  0  0  0  0  0  0  0  0  0
    5.4033   -6.3231    0.6954 H   0  0  0  0  0  0  0  0  0  0  0  0
  1  2  1  0
  1 24  1  0
  1 25  1  0
  1 26  1  0
  2 23  1  0
  2  3  1  0
  3  4  1  0
  3 27  1  0
  3 28  1  0
  4  5  1  0
  4 29  1  0
  4 30  1  0
  5 23  2  0
  5  6  1  0
  6  7  2  0
  6 31  1  0
  7  8  1  0
  7 32  1  0
  8  9  1  0
  8 22  2  0
  9 10  2  0
  9 11  2  0
  9 12  1  0
 12 17  1  0
 12 13  1  0
 13 14  1  0
 13 33  1  0
 13 34  1  0
 14 15  1  0
 14 35  1  0
 14 36  1  0
 15 21  1  0
 15 16  1  0
 15 18  1  0
 16 17  1  0
 16 37  1  0
 16 38  1  0
 17 39  1  0
 17 40  1  0
 18 19  1  0
 19 20  1  0
 19 41  1  0
 19 42  1  0
 20 21  1  0
 20 43  1  0
 20 44  1  0
 22 23  1  0
 22 45  1  0
M  END
>  <i_m_ct_stereo_status>  (188) 
1

>  <s_m_source_file>  (188) 
/var/tmp/pbs.5076255.sched01/tmp9vbryffn/46pprzbbw9.sdf

>  <i_m_source_file_index>  (188) 
38

>  <i_lp_mmshare_version>  (188) 
48012

>  <i_f3d_flags>  (188) 
0

>  <s_epik_input>  (188) 
W0NIMl0xW0NIMl1OKFtDSDNdKWMoYzEyKVtjSF1jKFtjSF1bY0hdMilTKD1PKSg9TylOKFtDSDJdW0NIMl0zKVtDSDJdW0NIMl1DMzRPW0NIMl1bQ0gyXU80

>  <s_epik_cmdline>  (188) 
J2VwaWtfcHl0aG9uJywgJy1waHQnLCAnMi4wJywgJy1waCcsICc3LjAnLCAnLXRuJywgJzgnLCAnLW1hJywgJzIwMCcsICctaW1hZScsICc8aW5maWxlLm1hZT4nLCAnLW9tYWUnLCAnPG91dGZpbGUubWFlPic=

>  <r_epik_Ionization_Penalty>  (188) 
0.00038458

>  <r_epik_Ionization_Penalty_Charging>  (188) 
0

>  <r_epik_Ionization_Penalty_Neutral>  (188) 
0.00038458

>  <r_epik_State_Penalty>  (188) 
0.000235082

>  <r_epik_Charging_Adjusted_Penalty>  (188) 
0.000235082

>  <i_epik_Tot_Q>  (188) 
0

>  <i_epik_Tot_abs_Q>  (188) 
0

>  <s_lp_Force_Field>  (188) 
OPLS3e

>  <r_lp_Energy>  (188) 
20.6593

>  <b_lp_Chiralities_Consistent>  (188) 
1

>  <s_lp_Variant>  (188) 
50:0-1

>  <s_i_glide_gridfile>  (188) 
pfpi4k_grid

>  <i_i_glide_lignum>  (188) 
38

>  <i_i_glide_rotatable_bonds>  (188) 
2

>  <r_i_docking_score>  (188) 
-3.55715

>  <r_i_glide_ligand_efficiency>  (188) 
-0.154659

>  <r_i_glide_ligand_efficiency_sa>  (188) 
-0.439829

>  <r_i_glide_ligand_efficiency_ln>  (188) 
-0.860151

>  <r_i_glide_gscore>  (188) 
-3.55715

>  <r_i_glide_lipo>  (188) 
-0.492122

>  <r_i_glide_hbond>  (188) 
-0.197638

>  <r_i_glide_metal>  (188) 
-0

>  <r_i_glide_rewards>  (188) 
-1.47152

>  <r_i_glide_evdw>  (188) 
-22.3492

>  <r_i_glide_ecoul>  (188) 
-3.93093

>  <r_i_glide_erotb>  (188) 
0.33025

>  <r_i_glide_esite>  (188) 
-0.0190178

>  <r_i_glide_emodel>  (188) 
-30.2693

>  <r_i_glide_energy>  (188) 
-26.2801

>  <r_i_glide_einternal>  (188) 
2.88852

>  <r_i_glide_intrahb_reward>  (188) 
-0

>  <i_i_glide_confnum>  (188) 
3

>  <i_i_glide_posenum>  (188) 
1

>  <r_i_glide_eff_state_penalty>  (188) 
0

>  <ligand_id>  (188) 
50

>  <original_smiles>  (188) 
CN1CCc2ccc(S(=O)(=O)N3CCC4(CC3)OCCO4)cc21

>  <smiles>  (188) 
[H]c1c([H])c(S(=O)(=O)N2C([H])([H])C([H])([H])C3(OC([H])([H])C([H])([H])O3)C([H])([H])C2([H])[H])c([H])c2c1C([H])([H])C([H])([H])N2C([H])([H])[H]

$$$$
50:0:1
     RDKit          3D

 45 48  0  0  1  0  0  0  0  0999 V2000
    5.4730   -2.3447   -0.8481 C   0  0  0  0  0  0  0  0  0  0  0  0
    6.8112   -2.6893   -0.3863 N   0  0  0  0  0  0  0  0  0  0  0  0
    7.9066   -2.8917   -1.3434 C   0  0  0  0  0  0  0  0  0  0  0  0
    8.8519   -3.9666   -0.7807 C   0  0  0  0  0  0  0  0  0  0  0  0
    8.0927   -4.4474    0.4124 C   0  0  0  0  0  0  0  0  0  0  0  0
    8.4215   -5.5201    1.2676 C   0  0  0  0  0  0  0  0  0  0  0  0
    7.5201   -5.8399    2.3094 C   0  0  0  0  0  0  0  0  0  0  0  0
    6.3222   -5.0999    2.4621 C   0  0  0  0  0  0  0  0  0  0  0  0
    5.1847   -5.4755    3.7985 S   0  0  0  0  0  0  0  0  0  0  0  0
    5.5930   -6.7502    4.4047 O   0  0  0  0  0  0  0  0  0  0  0  0
    5.0610   -4.2711    4.6304 O   0  0  0  0  0  0  0  0  0  0  0  0
    3.6598   -5.7278    2.9974 N   0  0  0  0  0  0  0  0  0  0  0  0
    3.2354   -7.0726    2.5734 C   0  0  0  0  0  0  0  0  0  0  0  0
    1.8964   -7.4349    3.2342 C   0  0  0  0  0  0  0  0  0  0  0  0
    0.8335   -6.3499    2.9057 C   0  0  0  0  0  0  0  0  0  0  0  0
    1.3293   -4.9723    3.3923 C   0  0  0  0  0  0  0  0  0  0  0  0
    2.6971   -4.6292    2.7721 C   0  0  0  0  0  0  0  0  0  0  0  0
   -0.3572   -6.6577    3.5544 O   0  0  0  0  0  0  0  0  0  0  0  0
   -1.1414   -7.4048    2.6365 C   0  0  0  0  0  0  0  0  0  0  0  0
   -0.3252   -7.3865    1.3432 C   0  0  0  0  0  0  0  0  0  0  0  0
    0.5599   -6.3032    1.5423 O   0  0  0  0  0  0  0  0  0  0  0  0
    6.0183   -4.0261    1.6004 C   0  0  0  0  0  0  0  0  0  0  0  0
    6.9306   -3.7063    0.5706 C   0  0  0  0  0  0  0  0  0  0  0  0
    4.7461   -2.3202   -0.0405 H   0  0  0  0  0  0  0  0  0  0  0  0
    5.1175   -3.0582   -1.5902 H   0  0  0  0  0  0  0  0  0  0  0  0
    5.4628   -1.3523   -1.2952 H   0  0  0  0  0  0  0  0  0  0  0  0
    7.5036   -3.2082   -2.3089 H   0  0  0  0  0  0  0  0  0  0  0  0
    8.4688   -1.9727   -1.5085 H   0  0  0  0  0  0  0  0  0  0  0  0
    9.0225   -4.7600   -1.5051 H   0  0  0  0  0  0  0  0  0  0  0  0
    9.8025   -3.5321   -0.4843 H   0  0  0  0  0  0  0  0  0  0  0  0
    9.3355   -6.0846    1.1453 H   0  0  0  0  0  0  0  0  0  0  0  0
    7.7691   -6.6292    2.9963 H   0  0  0  0  0  0  0  0  0  0  0  0
    3.1647   -7.0909    1.4856 H   0  0  0  0  0  0  0  0  0  0  0  0
    3.9835   -7.8179    2.8501 H   0  0  0  0  0  0  0  0  0  0  0  0
    1.5844   -8.4356    2.9376 H   0  0  0  0  0  0  0  0  0  0  0  0
    2.0152   -7.4832    4.3168 H   0  0  0  0  0  0  0  0  0  0  0  0
    0.6041   -4.1987    3.1545 H   0  0  0  0  0  0  0  0  0  0  0  0
    1.4145   -5.0020    4.4793 H   0  0  0  0  0  0  0  0  0  0  0  0
    3.0679   -3.6982    3.2049 H   0  0  0  0  0  0  0  0  0  0  0  0
    2.5906   -4.4455    1.7021 H   0  0  0  0  0  0  0  0  0  0  0  0
   -1.3236   -8.4192    2.9940 H   0  0  0  0  0  0  0  0  0  0  0  0
   -2.1083   -6.9232    2.5016 H   0  0  0  0  0  0  0  0  0  0  0  0
    0.2522   -8.3002    1.2818 H   0  0  0  0  0  0  0  0  0  0  0  0
   -0.9189   -7.3188    0.4332 H   0  0  0  0  0  0  0  0  0  0  0  0
    5.1215   -3.4431    1.7516 H   0  0  0  0  0  0  0  0  0  0  0  0
  1  2  1  0
  1 24  1  0
  1 25  1  0
  1 26  1  0
  2 23  1  0
  2  3  1  0
  3  4  1  0
  3 27  1  0
  3 28  1  0
  4  5  1  0
  4 29  1  0
  4 30  1  0
  5 23  2  0
  5  6  1  0
  6  7  2  0
  6 31  1  0
  7  8  1  0
  7 32  1  0
  8  9  1  0
  8 22  2  0
  9 10  2  0
  9 11  2  0
  9 12  1  0
 12 17  1  0
 12 13  1  0
 13 14  1  0
 13 33  1  0
 13 34  1  0
 14 15  1  0
 14 35  1  0
 14 36  1  0
 15 21  1  0
 15 16  1  0
 15 18  1  0
 16 17  1  0
 16 37  1  0
 16 38  1  0
 17 39  1  0
 17 40  1  0
 18 19  1  0
 19 20  1  0
 19 41  1  0
 19 42  1  0
 20 21  1  0
 20 43  1  0
 20 44  1  0
 22 23  1  0
 22 45  1  0
M  END
>  <i_m_ct_stereo_status>  (189) 
1

>  <s_m_source_file>  (189) 
/var/tmp/pbs.5076255.sched01/tmp9vbryffn/46pprzbbw9.sdf

>  <i_m_source_file_index>  (189) 
38

>  <i_lp_mmshare_version>  (189) 
48012

>  <i_f3d_flags>  (189) 
0

>  <s_epik_input>  (189) 
W0NIMl0xW0NIMl1OKFtDSDNdKWMoYzEyKVtjSF1jKFtjSF1bY0hdMilTKD1PKSg9TylOKFtDSDJdW0NIMl0zKVtDSDJdW0NIMl1DMzRPW0NIMl1bQ0gyXU80

>  <s_epik_cmdline>  (189) 
J2VwaWtfcHl0aG9uJywgJy1waHQnLCAnMi4wJywgJy1waCcsICc3LjAnLCAnLXRuJywgJzgnLCAnLW1hJywgJzIwMCcsICctaW1hZScsICc8aW5maWxlLm1hZT4nLCAnLW9tYWUnLCAnPG91dGZpbGUubWFlPic=

>  <r_epik_Ionization_Penalty>  (189) 
0.00038458

>  <r_epik_Ionization_Penalty_Charging>  (189) 
0

>  <r_epik_Ionization_Penalty_Neutral>  (189) 
0.00038458

>  <r_epik_State_Penalty>  (189) 
0.000235082

>  <r_epik_Charging_Adjusted_Penalty>  (189) 
0.000235082

>  <i_epik_Tot_Q>  (189) 
0

>  <i_epik_Tot_abs_Q>  (189) 
0

>  <s_lp_Force_Field>  (189) 
OPLS3e

>  <r_lp_Energy>  (189) 
20.6593

>  <b_lp_Chiralities_Consistent>  (189) 
1

>  <s_lp_Variant>  (189) 
50:0-1

>  <s_i_glide_gridfile>  (189) 
pfpi4k_grid

>  <i_i_glide_lignum>  (189) 
38

>  <i_i_glide_rotatable_bonds>  (189) 
2

>  <r_i_docking_score>  (189) 
-3.09181

>  <r_i_glide_ligand_efficiency>  (189) 
-0.134427

>  <r_i_glide_ligand_efficiency_sa>  (189) 
-0.382291

>  <r_i_glide_ligand_efficiency_ln>  (189) 
-0.747628

>  <r_i_glide_gscore>  (189) 
-3.09181

>  <r_i_glide_lipo>  (189) 
-0.400974

>  <r_i_glide_hbond>  (189) 
-0.247362

>  <r_i_glide_metal>  (189) 
-0

>  <r_i_glide_rewards>  (189) 
-1.10204

>  <r_i_glide_evdw>  (189) 
-20.8393

>  <r_i_glide_ecoul>  (189) 
-3.85145

>  <r_i_glide_erotb>  (189) 
0.33025

>  <r_i_glide_esite>  (189) 
-0.0520034

>  <r_i_glide_emodel>  (189) 
-28.4485

>  <r_i_glide_energy>  (189) 
-24.6907

>  <r_i_glide_einternal>  (189) 
2.0407

>  <r_i_glide_intrahb_reward>  (189) 
-0

>  <i_i_glide_confnum>  (189) 
3

>  <i_i_glide_posenum>  (189) 
18

>  <r_i_glide_eff_state_penalty>  (189) 
0

>  <ligand_id>  (189) 
50

>  <original_smiles>  (189) 
CN1CCc2ccc(S(=O)(=O)N3CCC4(CC3)OCCO4)cc21

>  <smiles>  (189) 
[H]c1c([H])c(S(=O)(=O)N2C([H])([H])C([H])([H])C3(OC([H])([H])C([H])([H])O3)C([H])([H])C2([H])[H])c([H])c2c1C([H])([H])C([H])([H])N2C([H])([H])[H]

$$$$
50:0:2
     RDKit          3D

 45 48  0  0  1  0  0  0  0  0999 V2000
    4.9227   -3.6712   -2.5671 C   0  0  0  0  0  0  0  0  0  0  0  0
    4.1265   -2.9848   -1.5715 N   0  0  0  0  0  0  0  0  0  0  0  0
    3.9280   -1.5341   -1.5814 C   0  0  0  0  0  0  0  0  0  0  0  0
    3.8140   -1.0304   -0.1298 C   0  0  0  0  0  0  0  0  0  0  0  0
    4.1024   -2.2734    0.6456 C   0  0  0  0  0  0  0  0  0  0  0  0
    4.2140   -2.4087    2.0461 C   0  0  0  0  0  0  0  0  0  0  0  0
    4.5254   -3.6807    2.5730 C   0  0  0  0  0  0  0  0  0  0  0  0
    4.7241   -4.7800    1.6964 C   0  0  0  0  0  0  0  0  0  0  0  0
    5.2115   -6.3774    2.3356 S   0  0  0  0  0  0  0  0  0  0  0  0
    5.9569   -7.0867    1.2779 O   0  0  0  0  0  0  0  0  0  0  0  0
    5.8415   -6.1759    3.6517 O   0  0  0  0  0  0  0  0  0  0  0  0
    3.7115   -7.2028    2.5777 N   0  0  0  0  0  0  0  0  0  0  0  0
    2.9913   -7.0922    3.8532 C   0  0  0  0  0  0  0  0  0  0  0  0
    1.5956   -6.4616    3.6816 C   0  0  0  0  0  0  0  0  0  0  0  0
    0.7995   -7.2657    2.6311 C   0  0  0  0  0  0  0  0  0  0  0  0
    1.5550   -7.2605    1.2877 C   0  0  0  0  0  0  0  0  0  0  0  0
    2.9831   -7.8344    1.4573 C   0  0  0  0  0  0  0  0  0  0  0  0
   -0.4452   -6.6540    2.4533 O   0  0  0  0  0  0  0  0  0  0  0  0
   -1.3531   -7.3605    3.2919 C   0  0  0  0  0  0  0  0  0  0  0  0
   -0.5417   -8.4995    3.9139 C   0  0  0  0  0  0  0  0  0  0  0  0
    0.5808   -8.5653    3.0574 O   0  0  0  0  0  0  0  0  0  0  0  0
    4.5980   -4.6356    0.2965 C   0  0  0  0  0  0  0  0  0  0  0  0
    4.2770   -3.3480   -0.1971 C   0  0  0  0  0  0  0  0  0  0  0  0
    5.0223   -4.7322   -2.3747 H   0  0  0  0  0  0  0  0  0  0  0  0
    5.9182   -3.2388   -2.6273 H   0  0  0  0  0  0  0  0  0  0  0  0
    4.4500   -3.5871   -3.5428 H   0  0  0  0  0  0  0  0  0  0  0  0
    4.7732   -1.0545   -2.0808 H   0  0  0  0  0  0  0  0  0  0  0  0
    3.0326   -1.2757   -2.1541 H   0  0  0  0  0  0  0  0  0  0  0  0
    4.5214   -0.2319    0.0893 H   0  0  0  0  0  0  0  0  0  0  0  0
    2.8136   -0.6727    0.1023 H   0  0  0  0  0  0  0  0  0  0  0  0
    4.0773   -1.5580    2.6978 H   0  0  0  0  0  0  0  0  0  0  0  0
    4.6385   -3.8110    3.6325 H   0  0  0  0  0  0  0  0  0  0  0  0
    2.9187   -8.0980    4.2728 H   0  0  0  0  0  0  0  0  0  0  0  0
    3.5603   -6.4915    4.5670 H   0  0  0  0  0  0  0  0  0  0  0  0
    1.0828   -6.4285    4.6340 H   0  0  0  0  0  0  0  0  0  0  0  0
    1.6823   -5.4327    3.3419 H   0  0  0  0  0  0  0  0  0  0  0  0
    0.9888   -7.8309    0.5564 H   0  0  0  0  0  0  0  0  0  0  0  0
    1.6160   -6.2382    0.9204 H   0  0  0  0  0  0  0  0  0  0  0  0
    3.5603   -7.7050    0.5360 H   0  0  0  0  0  0  0  0  0  0  0  0
    2.9234   -8.9106    1.6306 H   0  0  0  0  0  0  0  0  0  0  0  0
   -1.7646   -6.6897    4.0457 H   0  0  0  0  0  0  0  0  0  0  0  0
   -2.1802   -7.7409    2.6947 H   0  0  0  0  0  0  0  0  0  0  0  0
   -0.2108   -8.2434    4.9210 H   0  0  0  0  0  0  0  0  0  0  0  0
   -1.0919   -9.4348    3.9924 H   0  0  0  0  0  0  0  0  0  0  0  0
    4.7604   -5.4648   -0.3630 H   0  0  0  0  0  0  0  0  0  0  0  0
  1  2  1  0
  1 24  1  0
  1 25  1  0
  1 26  1  0
  2 23  1  0
  2  3  1  0
  3  4  1  0
  3 27  1  0
  3 28  1  0
  4  5  1  0
  4 29  1  0
  4 30  1  0
  5 23  2  0
  5  6  1  0
  6  7  2  0
  6 31  1  0
  7  8  1  0
  7 32  1  0
  8  9  1  0
  8 22  2  0
  9 10  2  0
  9 11  2  0
  9 12  1  0
 12 17  1  0
 12 13  1  0
 13 14  1  0
 13 33  1  0
 13 34  1  0
 14 15  1  0
 14 35  1  0
 14 36  1  0
 15 21  1  0
 15 16  1  0
 15 18  1  0
 16 17  1  0
 16 37  1  0
 16 38  1  0
 17 39  1  0
 17 40  1  0
 18 19  1  0
 19 20  1  0
 19 41  1  0
 19 42  1  0
 20 21  1  0
 20 43  1  0
 20 44  1  0
 22 23  1  0
 22 45  1  0
M  END
>  <i_m_ct_stereo_status>  (190) 
1

>  <s_m_source_file>  (190) 
/var/tmp/pbs.5076255.sched01/tmp9vbryffn/46pprzbbw9.sdf

>  <i_m_source_file_index>  (190) 
38

>  <i_lp_mmshare_version>  (190) 
48012

>  <i_f3d_flags>  (190) 
0

>  <s_epik_input>  (190) 
W0NIMl0xW0NIMl1OKFtDSDNdKWMoYzEyKVtjSF1jKFtjSF1bY0hdMilTKD1PKSg9TylOKFtDSDJdW0NIMl0zKVtDSDJdW0NIMl1DMzRPW0NIMl1bQ0gyXU80

>  <s_epik_cmdline>  (190) 
J2VwaWtfcHl0aG9uJywgJy1waHQnLCAnMi4wJywgJy1waCcsICc3LjAnLCAnLXRuJywgJzgnLCAnLW1hJywgJzIwMCcsICctaW1hZScsICc8aW5maWxlLm1hZT4nLCAnLW9tYWUnLCAnPG91dGZpbGUubWFlPic=

>  <r_epik_Ionization_Penalty>  (190) 
0.00038458

>  <r_epik_Ionization_Penalty_Charging>  (190) 
0

>  <r_epik_Ionization_Penalty_Neutral>  (190) 
0.00038458

>  <r_epik_State_Penalty>  (190) 
0.000235082

>  <r_epik_Charging_Adjusted_Penalty>  (190) 
0.000235082

>  <i_epik_Tot_Q>  (190) 
0

>  <i_epik_Tot_abs_Q>  (190) 
0

>  <s_lp_Force_Field>  (190) 
OPLS3e

>  <r_lp_Energy>  (190) 
20.6593

>  <b_lp_Chiralities_Consistent>  (190) 
1

>  <s_lp_Variant>  (190) 
50:0-1

>  <s_i_glide_gridfile>  (190) 
pfpi4k_grid

>  <i_i_glide_lignum>  (190) 
38

>  <i_i_glide_rotatable_bonds>  (190) 
2

>  <r_i_docking_score>  (190) 
-2.65155

>  <r_i_glide_ligand_efficiency>  (190) 
-0.115285

>  <r_i_glide_ligand_efficiency_sa>  (190) 
-0.327854

>  <r_i_glide_ligand_efficiency_ln>  (190) 
-0.641168

>  <r_i_glide_gscore>  (190) 
-2.65155

>  <r_i_glide_lipo>  (190) 
-0.167258

>  <r_i_glide_hbond>  (190) 
-0.16

>  <r_i_glide_metal>  (190) 
-0

>  <r_i_glide_rewards>  (190) 
-1.10873

>  <r_i_glide_evdw>  (190) 
-22.5413

>  <r_i_glide_ecoul>  (190) 
-2.39266

>  <r_i_glide_erotb>  (190) 
0.33025

>  <r_i_glide_esite>  (190) 
-0.0598386

>  <r_i_glide_emodel>  (190) 
-28.8801

>  <r_i_glide_energy>  (190) 
-24.934

>  <r_i_glide_einternal>  (190) 
0.211013

>  <r_i_glide_intrahb_reward>  (190) 
-0

>  <i_i_glide_confnum>  (190) 
2

>  <i_i_glide_posenum>  (190) 
26

>  <r_i_glide_eff_state_penalty>  (190) 
0

>  <ligand_id>  (190) 
50

>  <original_smiles>  (190) 
CN1CCc2ccc(S(=O)(=O)N3CCC4(CC3)OCCO4)cc21

>  <smiles>  (190) 
[H]c1c([H])c(S(=O)(=O)N2C([H])([H])C([H])([H])C3(OC([H])([H])C([H])([H])O3)C([H])([H])C2([H])[H])c([H])c2c1C([H])([H])C([H])([H])N2C([H])([H])[H]

$$$$
51:0:0
     RDKit          3D

 65 70  0  0  1  0  0  0  0  0999 V2000
    0.5354    0.2245    7.1282 C   0  0  0  0  0  0  0  0  0  0  0  0
    0.5041    1.7226    6.7765 C   0  0  2  0  0  0  0  0  0  0  0  0
   -0.9289    2.2022    6.4967 C   0  0  0  0  0  0  0  0  0  0  0  0
   -1.3775    1.8096    5.0828 C   0  0  0  0  0  0  0  0  0  0  0  0
   -0.4823    2.4268    3.9879 C   0  0  1  0  0  0  0  0  0  0  0  0
   -0.6708    3.9391    3.8509 C   0  0  0  0  0  0  0  0  0  0  0  0
   -1.7554    4.5237    3.8866 O   0  0  0  0  0  0  0  0  0  0  0  0
    0.6534    4.6477    3.6905 C   0  0  0  0  0  0  0  0  0  0  0  0
    1.6332    3.4915    3.4867 C   0  0  0  0  0  0  0  0  0  0  0  0
    1.0530    2.2102    4.1743 C   0  0  1  0  0  0  0  0  0  0  0  0
    1.4993    2.2437    5.6899 C   0  0  2  0  0  0  0  0  0  0  0  0
    2.9808    1.8365    5.9048 C   0  0  0  0  0  0  0  0  0  0  0  0
    3.4329    0.6116    5.0976 C   0  0  0  0  0  0  0  0  0  0  0  0
    3.1152    0.7715    3.5974 C   0  0  1  0  0  0  0  0  0  0  0  0
    3.7007   -0.3693    2.7241 C   0  0  2  0  0  0  0  0  0  0  0  0
    3.7359    0.0013    1.2247 C   0  0  0  0  0  0  0  0  0  0  0  0
    4.2968   -1.1305    0.3996 C   0  0  0  0  0  0  0  0  0  0  0  0
    4.3354   -2.4099    0.8107 C   0  0  0  0  0  0  0  0  0  0  0  0
    5.1362   -3.3478    0.0369 C   0  0  0  0  0  0  0  0  0  0  0  0
    5.7072   -4.3995    0.6498 C   0  0  0  0  0  0  0  0  0  0  0  0
    5.5928   -4.6792    2.1483 C   0  0  0  0  0  0  0  0  0  0  0  0
    4.7838   -3.5974    2.8963 C   0  0  0  0  0  0  0  0  0  0  0  0
    5.0247   -3.3498    4.0766 O   0  0  0  0  0  0  0  0  0  0  0  0
    3.6498   -2.8973    2.1053 C   0  0  2  0  0  0  0  0  0  0  0  0
    2.6140   -3.9941    1.7576 C   0  0  0  0  0  0  0  0  0  0  0  0
    2.9672   -1.7196    2.9195 C   0  0  2  0  0  0  0  0  0  0  0  0
    1.4471   -1.4961    2.6805 C   0  0  0  0  0  0  0  0  0  0  0  0
    0.8634   -0.3836    3.5693 C   0  0  0  0  0  0  0  0  0  0  0  0
    1.5917    0.9655    3.3823 C   0  0  1  0  0  0  0  0  0  0  0  0
   -0.0189   -0.3824    6.4171 H   0  0  0  0  0  0  0  0  0  0  0  0
    0.0707    0.0607    8.1016 H   0  0  0  0  0  0  0  0  0  0  0  0
    1.5513   -0.1576    7.2033 H   0  0  0  0  0  0  0  0  0  0  0  0
    0.8063    2.2122    7.7052 H   0  0  0  0  0  0  0  0  0  0  0  0
   -1.6177    1.7908    7.2353 H   0  0  0  0  0  0  0  0  0  0  0  0
   -0.9904    3.2848    6.6163 H   0  0  0  0  0  0  0  0  0  0  0  0
   -1.3847    0.7263    4.9896 H   0  0  0  0  0  0  0  0  0  0  0  0
   -2.4121    2.1172    4.9334 H   0  0  0  0  0  0  0  0  0  0  0  0
   -0.7819    2.0173    3.0238 H   0  0  0  0  0  0  0  0  0  0  0  0
    0.6361    5.3357    2.8454 H   0  0  0  0  0  0  0  0  0  0  0  0
    0.8762    5.2161    4.5943 H   0  0  0  0  0  0  0  0  0  0  0  0
    1.7282    3.3441    2.4095 H   0  0  0  0  0  0  0  0  0  0  0  0
    2.6262    3.7615    3.8434 H   0  0  0  0  0  0  0  0  0  0  0  0
    1.5064    3.3019    5.9482 H   0  0  0  0  0  0  0  0  0  0  0  0
    3.6217    2.6744    5.6267 H   0  0  0  0  0  0  0  0  0  0  0  0
    3.1729    1.6705    6.9651 H   0  0  0  0  0  0  0  0  0  0  0  0
    4.5051    0.4722    5.2365 H   0  0  0  0  0  0  0  0  0  0  0  0
    2.9688   -0.2849    5.4998 H   0  0  0  0  0  0  0  0  0  0  0  0
    3.6194    1.6849    3.2809 H   0  0  0  0  0  0  0  0  0  0  0  0
    4.7381   -0.5068    3.0368 H   0  0  0  0  0  0  0  0  0  0  0  0
    2.7544    0.2598    0.8303 H   0  0  0  0  0  0  0  0  0  0  0  0
    4.3782    0.8652    1.0620 H   0  0  0  0  0  0  0  0  0  0  0  0
    4.7693   -0.8365   -0.5287 H   0  0  0  0  0  0  0  0  0  0  0  0
    5.2665   -3.2045   -1.0263 H   0  0  0  0  0  0  0  0  0  0  0  0
    6.3020   -5.1018    0.0819 H   0  0  0  0  0  0  0  0  0  0  0  0
    5.1243   -5.6522    2.2973 H   0  0  0  0  0  0  0  0  0  0  0  0
    6.5956   -4.7379    2.5728 H   0  0  0  0  0  0  0  0  0  0  0  0
    3.0538   -4.8630    1.2658 H   0  0  0  0  0  0  0  0  0  0  0  0
    1.8572   -3.6156    1.0726 H   0  0  0  0  0  0  0  0  0  0  0  0
    2.1144   -4.3608    2.6530 H   0  0  0  0  0  0  0  0  0  0  0  0
    3.0335   -1.9720    3.9753 H   0  0  0  0  0  0  0  0  0  0  0  0
    1.2523   -1.2594    1.6352 H   0  0  0  0  0  0  0  0  0  0  0  0
    0.8879   -2.4023    2.9014 H   0  0  0  0  0  0  0  0  0  0  0  0
   -0.1957   -0.2769    3.3389 H   0  0  0  0  0  0  0  0  0  0  0  0
    0.9392   -0.7189    4.5957 H   0  0  0  0  0  0  0  0  0  0  0  0
    1.4309    1.2011    2.3293 H   0  0  0  0  0  0  0  0  0  0  0  0
  1  2  1  0
  1 30  1  0
  1 31  1  0
  1 32  1  0
  2 11  1  0
  2  3  1  0
  2 33  1  1
  3  4  1  0
  3 34  1  0
  3 35  1  0
  4  5  1  0
  4 36  1  0
  4 37  1  0
  5 10  1  0
  5  6  1  0
  5 38  1  6
  6  7  2  0
  6  8  1  0
  8  9  1  0
  8 39  1  0
  8 40  1  0
 10  9  1  6
  9 41  1  0
  9 42  1  0
 10 29  1  0
 10 11  1  0
 11 12  1  0
 11 43  1  1
 12 13  1  0
 12 44  1  0
 12 45  1  0
 13 14  1  0
 13 46  1  0
 13 47  1  0
 14 29  1  0
 14 15  1  0
 14 48  1  6
 15 26  1  0
 15 16  1  0
 15 49  1  1
 16 17  1  0
 16 50  1  0
 16 51  1  0
 17 18  2  0
 17 52  1  0
 18 24  1  0
 18 19  1  0
 19 20  2  0
 19 53  1  0
 20 21  1  0
 20 54  1  0
 21 22  1  0
 21 55  1  0
 21 56  1  0
 22 23  2  0
 22 24  1  0
 24 25  1  6
 24 26  1  0
 25 57  1  0
 25 58  1  0
 25 59  1  0
 26 27  1  0
 26 60  1  1
 27 28  1  0
 27 61  1  0
 27 62  1  0
 28 29  1  0
 28 63  1  0
 28 64  1  0
 29 65  1  6
M  END
>  <i_m_ct_stereo_status>  (191) 
1

>  <s_m_source_file>  (191) 
/var/tmp/pbs.5076255.sched01/tmp9vbryffn/46pprzbbw9.sdf

>  <i_m_source_file_index>  (191) 
39

>  <i_lp_mmshare_version>  (191) 
48012

>  <i_f3d_flags>  (191) 
0

>  <s_epik_input>  (191) 
W0NIMl0xW0NIMl1DKD1PKVtDQEBIXShbQ0BAXTEyMylbQ0gyXVtDSDJdW0NAQEhdKFtDSDNdKVtDQEhdMltDSDJdW0NIMl1bQ0BIXTRbQ0BIXTVbQ0BASF0oW0NIMl1bQ0gyXVtDQEBIXTM0KVtDQEBdNihbQ0gzXSlDKD1bQ0hdW0NIMl01KVtDSF09W0NIXVtDSDJdQzY9Tw==

>  <s_epik_cmdline>  (191) 
J2VwaWtfcHl0aG9uJywgJy1waHQnLCAnMi4wJywgJy1waCcsICc3LjAnLCAnLXRuJywgJzgnLCAnLW1hJywgJzIwMCcsICctaW1hZScsICc8aW5maWxlLm1hZT4nLCAnLW9tYWUnLCAnPG91dGZpbGUubWFlPic=

>  <r_lp_tautomer_probability>  (191) 
1

>  <r_epik_Ionization_Penalty>  (191) 
1.21823e-12

>  <r_epik_Ionization_Penalty_Charging>  (191) 
0

>  <r_epik_Ionization_Penalty_Neutral>  (191) 
1.21823e-12

>  <r_epik_State_Penalty>  (191) 
-0

>  <r_epik_Charging_Adjusted_Penalty>  (191) 
0

>  <i_epik_Tot_Q>  (191) 
0

>  <i_epik_Tot_abs_Q>  (191) 
0

>  <s_lp_Force_Field>  (191) 
OPLS3e

>  <r_lp_Energy>  (191) 
56.1195

>  <b_lp_Chiralities_Consistent>  (191) 
1

>  <s_lp_Variant>  (191) 
51:0-1

>  <s_i_glide_gridfile>  (191) 
pfpi4k_grid

>  <i_i_glide_lignum>  (191) 
39

>  <i_i_glide_rotatable_bonds>  (191) 
0

>  <r_i_docking_score>  (191) 
-3.08061

>  <r_i_glide_ligand_efficiency>  (191) 
-0.106228

>  <r_i_glide_ligand_efficiency_sa>  (191) 
-0.326366

>  <r_i_glide_ligand_efficiency_ln>  (191) 
-0.705383

>  <r_i_glide_gscore>  (191) 
-3.08061

>  <r_i_glide_lipo>  (191) 
-0.194602

>  <r_i_glide_hbond>  (191) 
-0.152109

>  <r_i_glide_metal>  (191) 
-0

>  <r_i_glide_rewards>  (191) 
-0.770916

>  <r_i_glide_evdw>  (191) 
-25.6416

>  <r_i_glide_ecoul>  (191) 
-3.95716

>  <r_i_glide_erotb>  (191) 
0

>  <r_i_glide_esite>  (191) 
-0.0873355

>  <r_i_glide_emodel>  (191) 
-35.4375

>  <r_i_glide_energy>  (191) 
-29.5987

>  <r_i_glide_einternal>  (191) 
0

>  <r_i_glide_intrahb_reward>  (191) 
-0

>  <i_i_glide_confnum>  (191) 
1

>  <i_i_glide_posenum>  (191) 
1

>  <r_i_glide_eff_state_penalty>  (191) 
0

>  <ligand_id>  (191) 
51

>  <original_smiles>  (191) 
CC1CCC2C(=O)CCC23C1CCC1C2CC=C4C=CCC(=O)C4(C)C2CCC13

>  <smiles>  (191) 
[H]C1=C([H])C([H])([H])C(=O)C2(C([H])([H])[H])C1=C([H])C([H])([H])C1([H])C2([H])C([H])([H])C([H])([H])C2([H])C1([H])C([H])([H])C([H])([H])C1([H])C([H])(C([H])([H])[H])C([H])([H])C([H])([H])C3([H])C(=O)C([H])([H])C([H])([H])C312

$$$$
51:0:1
     RDKit          3D

 65 70  0  0  1  0  0  0  0  0999 V2000
   -0.4047    0.9204    7.6006 C   0  0  0  0  0  0  0  0  0  0  0  0
   -0.2091    2.3462    7.0565 C   0  0  2  0  0  0  0  0  0  0  0  0
   -1.5169    2.9035    6.4689 C   0  0  0  0  0  0  0  0  0  0  0  0
   -1.7716    2.3462    5.0633 C   0  0  0  0  0  0  0  0  0  0  0  0
   -0.6444    2.7083    4.0722 C   0  0  1  0  0  0  0  0  0  0  0  0
   -0.6343    4.1890    3.7066 C   0  0  0  0  0  0  0  0  0  0  0  0
   -1.6433    4.8542    3.4670 O   0  0  0  0  0  0  0  0  0  0  0  0
    0.7665    4.7536    3.6863 C   0  0  0  0  0  0  0  0  0  0  0  0
    1.6272    3.4951    3.8123 C   0  0  0  0  0  0  0  0  0  0  0  0
    0.8046    2.3878    4.5527 C   0  0  1  0  0  0  0  0  0  0  0  0
    1.0018    2.6072    6.1029 C   0  0  2  0  0  0  0  0  0  0  0  0
    2.3713    2.1023    6.6278 C   0  0  0  0  0  0  0  0  0  0  0  0
    2.8048    0.7346    6.0769 C   0  0  0  0  0  0  0  0  0  0  0  0
    2.7548    0.7024    4.5360 C   0  0  1  0  0  0  0  0  0  0  0  0
    3.3357   -0.6034    3.9296 C   0  0  2  0  0  0  0  0  0  0  0  0
    3.6604   -0.4601    2.4233 C   0  0  0  0  0  0  0  0  0  0  0  0
    4.2092   -1.7528    1.8677 C   0  0  0  0  0  0  0  0  0  0  0  0
    4.0317   -2.9552    2.4460 C   0  0  0  0  0  0  0  0  0  0  0  0
    4.8370   -4.0639    1.9567 C   0  0  0  0  0  0  0  0  0  0  0  0
    5.1802   -5.0609    2.7939 C   0  0  0  0  0  0  0  0  0  0  0  0
    4.7949   -5.1043    4.2716 C   0  0  0  0  0  0  0  0  0  0  0  0
    4.0007   -3.8566    4.7159 C   0  0  0  0  0  0  0  0  0  0  0  0
    4.0718   -3.4621    5.8784 O   0  0  0  0  0  0  0  0  0  0  0  0
    3.0954   -3.1826    3.6519 C   0  0  2  0  0  0  0  0  0  0  0  0
    2.0068   -4.2200    3.2779 C   0  0  0  0  0  0  0  0  0  0  0  0
    2.4326   -1.8387    4.1703 C   0  0  2  0  0  0  0  0  0  0  0  0
    1.0077   -1.5193    3.6406 C   0  0  0  0  0  0  0  0  0  0  0  0
    0.4187   -0.2398    4.2643 C   0  0  0  0  0  0  0  0  0  0  0  0
    1.3184    0.9964    4.0345 C   0  0  1  0  0  0  0  0  0  0  0  0
   -0.9035    0.2691    6.8878 H   0  0  0  0  0  0  0  0  0  0  0  0
   -1.0352    0.9476    8.4908 H   0  0  0  0  0  0  0  0  0  0  0  0
    0.5346    0.4620    7.9008 H   0  0  0  0  0  0  0  0  0  0  0  0
   -0.0091    2.9379    7.9523 H   0  0  0  0  0  0  0  0  0  0  0  0
   -2.3575    2.6689    7.1226 H   0  0  0  0  0  0  0  0  0  0  0  0
   -1.4724    3.9938    6.4338 H   0  0  0  0  0  0  0  0  0  0  0  0
   -1.8848    1.2674    5.1123 H   0  0  0  0  0  0  0  0  0  0  0  0
   -2.7296    2.7155    4.6949 H   0  0  0  0  0  0  0  0  0  0  0  0
   -0.8322    2.1935    3.1300 H   0  0  0  0  0  0  0  0  0  0  0  0
    0.9670    5.3051    2.7686 H   0  0  0  0  0  0  0  0  0  0  0  0
    0.9051    5.4258    4.5339 H   0  0  0  0  0  0  0  0  0  0  0  0
    1.8727    3.1848    2.7944 H   0  0  0  0  0  0  0  0  0  0  0  0
    2.5759    3.7248    4.2974 H   0  0  0  0  0  0  0  0  0  0  0  0
    1.0897    3.6871    6.2180 H   0  0  0  0  0  0  0  0  0  0  0  0
    3.1402    2.8277    6.3599 H   0  0  0  0  0  0  0  0  0  0  0  0
    2.3720    2.0805    7.7180 H   0  0  0  0  0  0  0  0  0  0  0  0
    3.8174    0.5224    6.4199 H   0  0  0  0  0  0  0  0  0  0  0  0
    2.1840   -0.0486    6.5043 H   0  0  0  0  0  0  0  0  0  0  0  0
    3.4074    1.5084    4.1982 H   0  0  0  0  0  0  0  0  0  0  0  0
    4.2865   -0.7867    4.4322 H   0  0  0  0  0  0  0  0  0  0  0  0
    2.8036   -0.1654    1.8173 H   0  0  0  0  0  0  0  0  0  0  0  0
    4.4234    0.3067    2.2873 H   0  0  0  0  0  0  0  0  0  0  0  0
    4.8587   -1.6504    1.0089 H   0  0  0  0  0  0  0  0  0  0  0  0
    5.1579   -4.0913    0.9253 H   0  0  0  0  0  0  0  0  0  0  0  0
    5.7777   -5.8866    2.4350 H   0  0  0  0  0  0  0  0  0  0  0  0
    4.2025   -6.0002    4.4629 H   0  0  0  0  0  0  0  0  0  0  0  0
    5.7026   -5.1890    4.8722 H   0  0  0  0  0  0  0  0  0  0  0  0
    2.4177   -5.1851    2.9865 H   0  0  0  0  0  0  0  0  0  0  0  0
    1.4121   -3.8829    2.4310 H   0  0  0  0  0  0  0  0  0  0  0  0
    1.3344   -4.4099    4.1132 H   0  0  0  0  0  0  0  0  0  0  0  0
    2.3001   -1.9349    5.2456 H   0  0  0  0  0  0  0  0  0  0  0  0
    1.0138   -1.4255    2.5549 H   0  0  0  0  0  0  0  0  0  0  0  0
    0.3198   -2.3293    3.8770 H   0  0  0  0  0  0  0  0  0  0  0  0
   -0.5706   -0.0729    3.8418 H   0  0  0  0  0  0  0  0  0  0  0  0
    0.2906   -0.4258    5.3231 H   0  0  0  0  0  0  0  0  0  0  0  0
    1.3569    1.0871    2.9490 H   0  0  0  0  0  0  0  0  0  0  0  0
  1  2  1  0
  1 30  1  0
  1 31  1  0
  1 32  1  0
  2 11  1  0
  2  3  1  0
  2 33  1  1
  3  4  1  0
  3 34  1  0
  3 35  1  0
  4  5  1  0
  4 36  1  0
  4 37  1  0
  5 10  1  0
  5  6  1  0
  5 38  1  6
  6  7  2  0
  6  8  1  0
  8  9  1  0
  8 39  1  0
  8 40  1  0
 10  9  1  6
  9 41  1  0
  9 42  1  0
 10 29  1  0
 10 11  1  0
 11 12  1  0
 11 43  1  6
 12 13  1  0
 12 44  1  0
 12 45  1  0
 13 14  1  0
 13 46  1  0
 13 47  1  0
 14 29  1  0
 14 15  1  0
 14 48  1  6
 15 26  1  0
 15 16  1  0
 15 49  1  1
 16 17  1  0
 16 50  1  0
 16 51  1  0
 17 18  2  0
 17 52  1  0
 18 24  1  0
 18 19  1  0
 19 20  2  0
 19 53  1  0
 20 21  1  0
 20 54  1  0
 21 22  1  0
 21 55  1  0
 21 56  1  0
 22 23  2  0
 22 24  1  0
 24 25  1  6
 24 26  1  0
 25 57  1  0
 25 58  1  0
 25 59  1  0
 26 27  1  0
 26 60  1  1
 27 28  1  0
 27 61  1  0
 27 62  1  0
 28 29  1  0
 28 63  1  0
 28 64  1  0
 29 65  1  6
M  END
>  <i_m_ct_stereo_status>  (192) 
1

>  <s_m_source_file>  (192) 
/var/tmp/pbs.5076255.sched01/tmp9vbryffn/46pprzbbw9.sdf

>  <i_m_source_file_index>  (192) 
39

>  <i_lp_mmshare_version>  (192) 
48012

>  <i_f3d_flags>  (192) 
0

>  <s_epik_input>  (192) 
W0NIMl0xW0NIMl1DKD1PKVtDQEBIXShbQ0BAXTEyMylbQ0gyXVtDSDJdW0NAQEhdKFtDSDNdKVtDQEhdMltDSDJdW0NIMl1bQ0BIXTRbQ0BIXTVbQ0BASF0oW0NIMl1bQ0gyXVtDQEBIXTM0KVtDQEBdNihbQ0gzXSlDKD1bQ0hdW0NIMl01KVtDSF09W0NIXVtDSDJdQzY9Tw==

>  <s_epik_cmdline>  (192) 
J2VwaWtfcHl0aG9uJywgJy1waHQnLCAnMi4wJywgJy1waCcsICc3LjAnLCAnLXRuJywgJzgnLCAnLW1hJywgJzIwMCcsICctaW1hZScsICc8aW5maWxlLm1hZT4nLCAnLW9tYWUnLCAnPG91dGZpbGUubWFlPic=

>  <r_lp_tautomer_probability>  (192) 
1

>  <r_epik_Ionization_Penalty>  (192) 
1.21823e-12

>  <r_epik_Ionization_Penalty_Charging>  (192) 
0

>  <r_epik_Ionization_Penalty_Neutral>  (192) 
1.21823e-12

>  <r_epik_State_Penalty>  (192) 
-0

>  <r_epik_Charging_Adjusted_Penalty>  (192) 
0

>  <i_epik_Tot_Q>  (192) 
0

>  <i_epik_Tot_abs_Q>  (192) 
0

>  <s_lp_Force_Field>  (192) 
OPLS3e

>  <r_lp_Energy>  (192) 
56.1195

>  <b_lp_Chiralities_Consistent>  (192) 
1

>  <s_lp_Variant>  (192) 
51:0-1

>  <s_i_glide_gridfile>  (192) 
pfpi4k_grid

>  <i_i_glide_lignum>  (192) 
39

>  <i_i_glide_rotatable_bonds>  (192) 
0

>  <r_i_docking_score>  (192) 
-2.83649

>  <r_i_glide_ligand_efficiency>  (192) 
-0.0978101

>  <r_i_glide_ligand_efficiency_sa>  (192) 
-0.300504

>  <r_i_glide_ligand_efficiency_ln>  (192) 
-0.649485

>  <r_i_glide_gscore>  (192) 
-2.83649

>  <r_i_glide_lipo>  (192) 
-0.101892

>  <r_i_glide_hbond>  (192) 
-0.16

>  <r_i_glide_metal>  (192) 
-0

>  <r_i_glide_rewards>  (192) 
-0.732453

>  <r_i_glide_evdw>  (192) 
-20.9585

>  <r_i_glide_ecoul>  (192) 
-4.62817

>  <r_i_glide_erotb>  (192) 
0

>  <r_i_glide_esite>  (192) 
-0.1

>  <r_i_glide_emodel>  (192) 
-30.959

>  <r_i_glide_energy>  (192) 
-25.5867

>  <r_i_glide_einternal>  (192) 
0

>  <r_i_glide_intrahb_reward>  (192) 
-0

>  <i_i_glide_confnum>  (192) 
2

>  <i_i_glide_posenum>  (192) 
3

>  <r_i_glide_eff_state_penalty>  (192) 
0

>  <ligand_id>  (192) 
51

>  <original_smiles>  (192) 
CC1CCC2C(=O)CCC23C1CCC1C2CC=C4C=CCC(=O)C4(C)C2CCC13

>  <smiles>  (192) 
[H]C1=C([H])C([H])([H])C(=O)C2(C([H])([H])[H])C1=C([H])C([H])([H])C1([H])C2([H])C([H])([H])C([H])([H])C2([H])C1([H])C([H])([H])C([H])([H])C1([H])C([H])(C([H])([H])[H])C([H])([H])C([H])([H])C3([H])C(=O)C([H])([H])C([H])([H])C312

$$$$
52:0:0
     RDKit          3D

 21 23  0  0  1  0  0  0  0  0999 V2000
    2.1475   -5.7380    1.8401 O   0  0  0  0  0  0  0  0  0  0  0  0
    3.0462   -4.8947    1.8306 C   0  0  0  0  0  0  0  0  0  0  0  0
    4.0032   -4.6983    2.9512 C   0  0  0  0  0  0  0  0  0  0  0  0
    4.9671   -3.7412    2.9139 C   0  0  0  0  0  0  0  0  0  0  0  0
    5.1555   -2.8224    1.7627 C   0  0  0  0  0  0  0  0  0  0  0  0
    6.0441   -1.9732    1.7688 O   0  0  0  0  0  0  0  0  0  0  0  0
    4.2250   -3.0157    0.6513 C   0  0  0  0  0  0  0  0  0  0  0  0
    3.2515   -3.9828    0.7100 C   0  0  0  0  0  0  0  0  0  0  0  0
    2.2176   -4.0584   -0.6910 S   0  0  0  0  0  0  0  0  0  0  0  0
    3.1111   -2.7664   -1.4595 C   0  0  0  0  0  0  0  0  0  0  0  0
    2.8737   -2.2032   -2.7316 C   0  0  0  0  0  0  0  0  0  0  0  0
    3.6707   -1.1369   -3.1735 C   0  0  0  0  0  0  0  0  0  0  0  0
    3.4158   -0.3827   -4.7041 Cl  0  0  0  0  0  0  0  0  0  0  0  0
    4.6877   -0.6573   -2.3408 C   0  0  0  0  0  0  0  0  0  0  0  0
    4.9348   -1.2261   -1.0852 C   0  0  0  0  0  0  0  0  0  0  0  0
    4.1568   -2.2938   -0.6007 C   0  0  0  0  0  0  0  0  0  0  0  0
    3.9075   -5.3429    3.8162 H   0  0  0  0  0  0  0  0  0  0  0  0
    5.6459   -3.6149    3.7465 H   0  0  0  0  0  0  0  0  0  0  0  0
    2.0591   -2.5708   -3.3394 H   0  0  0  0  0  0  0  0  0  0  0  0
    5.2922    0.1713   -2.6603 H   0  0  0  0  0  0  0  0  0  0  0  0
    5.7215   -0.8293   -0.4651 H   0  0  0  0  0  0  0  0  0  0  0  0
  1  2  2  0
  2  8  1  0
  2  3  1  0
  3  4  2  0
  3 17  1  0
  4  5  1  0
  4 18  1  0
  5  6  2  0
  5  7  1  0
  7 16  1  0
  7  8  2  0
  8  9  1  0
  9 10  1  0
 10 16  2  0
 10 11  1  0
 11 12  2  0
 11 19  1  0
 12 13  1  0
 12 14  1  0
 14 15  2  0
 14 20  1  0
 15 16  1  0
 15 21  1  0
M  END
>  <i_m_ct_stereo_status>  (193) 
1

>  <s_m_source_file>  (193) 
/var/tmp/pbs.5076255.sched01/tmp9vbryffn/46pprzbbw9.sdf

>  <i_m_source_file_index>  (193) 
40

>  <i_lp_mmshare_version>  (193) 
48012

>  <i_f3d_flags>  (193) 
0

>  <s_epik_input>  (193) 
Tz1DMVtDSF09W0NIXUMoPU8pYyhjMTIpc2MzYzJbY0hdW2NIXWMoQ2wpW2NIXTM=

>  <s_epik_cmdline>  (193) 
J2VwaWtfcHl0aG9uJywgJy1waHQnLCAnMi4wJywgJy1waCcsICc3LjAnLCAnLXRuJywgJzgnLCAnLW1hJywgJzIwMCcsICctaW1hZScsICc8aW5maWxlLm1hZT4nLCAnLW9tYWUnLCAnPG91dGZpbGUubWFlPic=

>  <r_lp_tautomer_probability>  (193) 
1

>  <r_epik_Ionization_Penalty>  (193) 
0

>  <r_epik_Ionization_Penalty_Charging>  (193) 
0

>  <r_epik_Ionization_Penalty_Neutral>  (193) 
0

>  <r_epik_State_Penalty>  (193) 
-0

>  <r_epik_Charging_Adjusted_Penalty>  (193) 
0

>  <i_epik_Tot_Q>  (193) 
0

>  <i_epik_Tot_abs_Q>  (193) 
0

>  <s_lp_Force_Field>  (193) 
OPLS3e

>  <r_lp_Energy>  (193) 
19.5831

>  <b_lp_Chiralities_Consistent>  (193) 
1

>  <s_lp_Variant>  (193) 
52:0-1

>  <s_i_glide_gridfile>  (193) 
pfpi4k_grid

>  <i_i_glide_lignum>  (193) 
40

>  <i_i_glide_rotatable_bonds>  (193) 
0

>  <r_i_docking_score>  (193) 
-3.3407

>  <r_i_glide_ligand_efficiency>  (193) 
-0.208793

>  <r_i_glide_ligand_efficiency_sa>  (193) 
-0.526127

>  <r_i_glide_ligand_efficiency_ln>  (193) 
-0.885518

>  <r_i_glide_gscore>  (193) 
-3.3407

>  <r_i_glide_lipo>  (193) 
-0.429118

>  <r_i_glide_hbond>  (193) 
0

>  <r_i_glide_metal>  (193) 
-0

>  <r_i_glide_rewards>  (193) 
-1.77704

>  <r_i_glide_evdw>  (193) 
-19.6344

>  <r_i_glide_ecoul>  (193) 
-1.00815

>  <r_i_glide_erotb>  (193) 
0

>  <r_i_glide_esite>  (193) 
-0.00158913

>  <r_i_glide_emodel>  (193) 
-25.2669

>  <r_i_glide_energy>  (193) 
-20.6426

>  <r_i_glide_einternal>  (193) 
0

>  <r_i_glide_intrahb_reward>  (193) 
-0

>  <i_i_glide_confnum>  (193) 
1

>  <i_i_glide_posenum>  (193) 
2

>  <r_i_glide_eff_state_penalty>  (193) 
0

>  <ligand_id>  (193) 
52

>  <original_smiles>  (193) 
O=C1C=CC(=O)c2c1sc1cc(Cl)ccc21

>  <smiles>  (193) 
[H]C1=C([H])C(=O)c2c(sc3c([H])c(Cl)c([H])c([H])c23)C1=O

$$$$
52:0:1
     RDKit          3D

 21 23  0  0  1  0  0  0  0  0999 V2000
    4.4908   -6.2483    3.3777 O   0  0  0  0  0  0  0  0  0  0  0  0
    4.6248   -5.0263    3.3141 C   0  0  0  0  0  0  0  0  0  0  0  0
    4.8558   -4.1761    4.5077 C   0  0  0  0  0  0  0  0  0  0  0  0
    4.9961   -2.8294    4.4163 C   0  0  0  0  0  0  0  0  0  0  0  0
    4.9362   -2.0929    3.1288 C   0  0  0  0  0  0  0  0  0  0  0  0
    5.0820   -0.8737    3.0954 O   0  0  0  0  0  0  0  0  0  0  0  0
    4.7091   -2.9179    1.9438 C   0  0  0  0  0  0  0  0  0  0  0  0
    4.5674   -4.2812    2.0593 C   0  0  0  0  0  0  0  0  0  0  0  0
    4.3047   -5.1241    0.5552 S   0  0  0  0  0  0  0  0  0  0  0  0
    4.3803   -3.6064   -0.3291 C   0  0  0  0  0  0  0  0  0  0  0  0
    4.2474   -3.4148   -1.7164 C   0  0  0  0  0  0  0  0  0  0  0  0
    4.3289   -2.1223   -2.2536 C   0  0  0  0  0  0  0  0  0  0  0  0
    4.1422   -1.8628   -3.9387 Cl  0  0  0  0  0  0  0  0  0  0  0  0
    4.5561   -1.0260   -1.4138 C   0  0  0  0  0  0  0  0  0  0  0  0
    4.6912   -1.2192   -0.0280 C   0  0  0  0  0  0  0  0  0  0  0  0
    4.6040   -2.5047    0.5603 C   0  0  0  0  0  0  0  0  0  0  0  0
    4.9105   -4.6664    5.4721 H   0  0  0  0  0  0  0  0  0  0  0  0
    5.1644   -2.2353    5.3026 H   0  0  0  0  0  0  0  0  0  0  0  0
    4.0744   -4.2552   -2.3675 H   0  0  0  0  0  0  0  0  0  0  0  0
    4.6137   -0.0259   -1.8221 H   0  0  0  0  0  0  0  0  0  0  0  0
    4.8485   -0.3592    0.6047 H   0  0  0  0  0  0  0  0  0  0  0  0
  1  2  2  0
  2  8  1  0
  2  3  1  0
  3  4  2  0
  3 17  1  0
  4  5  1  0
  4 18  1  0
  5  6  2  0
  5  7  1  0
  7 16  1  0
  7  8  2  0
  8  9  1  0
  9 10  1  0
 10 16  2  0
 10 11  1  0
 11 12  2  0
 11 19  1  0
 12 13  1  0
 12 14  1  0
 14 15  2  0
 14 20  1  0
 15 16  1  0
 15 21  1  0
M  END
>  <i_m_ct_stereo_status>  (194) 
1

>  <s_m_source_file>  (194) 
/var/tmp/pbs.5076255.sched01/tmp9vbryffn/46pprzbbw9.sdf

>  <i_m_source_file_index>  (194) 
40

>  <i_lp_mmshare_version>  (194) 
48012

>  <i_f3d_flags>  (194) 
0

>  <s_epik_input>  (194) 
Tz1DMVtDSF09W0NIXUMoPU8pYyhjMTIpc2MzYzJbY0hdW2NIXWMoQ2wpW2NIXTM=

>  <s_epik_cmdline>  (194) 
J2VwaWtfcHl0aG9uJywgJy1waHQnLCAnMi4wJywgJy1waCcsICc3LjAnLCAnLXRuJywgJzgnLCAnLW1hJywgJzIwMCcsICctaW1hZScsICc8aW5maWxlLm1hZT4nLCAnLW9tYWUnLCAnPG91dGZpbGUubWFlPic=

>  <r_lp_tautomer_probability>  (194) 
1

>  <r_epik_Ionization_Penalty>  (194) 
0

>  <r_epik_Ionization_Penalty_Charging>  (194) 
0

>  <r_epik_Ionization_Penalty_Neutral>  (194) 
0

>  <r_epik_State_Penalty>  (194) 
-0

>  <r_epik_Charging_Adjusted_Penalty>  (194) 
0

>  <i_epik_Tot_Q>  (194) 
0

>  <i_epik_Tot_abs_Q>  (194) 
0

>  <s_lp_Force_Field>  (194) 
OPLS3e

>  <r_lp_Energy>  (194) 
19.5831

>  <b_lp_Chiralities_Consistent>  (194) 
1

>  <s_lp_Variant>  (194) 
52:0-1

>  <s_i_glide_gridfile>  (194) 
pfpi4k_grid

>  <i_i_glide_lignum>  (194) 
40

>  <i_i_glide_rotatable_bonds>  (194) 
0

>  <r_i_docking_score>  (194) 
-3.29276

>  <r_i_glide_ligand_efficiency>  (194) 
-0.205797

>  <r_i_glide_ligand_efficiency_sa>  (194) 
-0.518577

>  <r_i_glide_ligand_efficiency_ln>  (194) 
-0.872811

>  <r_i_glide_gscore>  (194) 
-3.29276

>  <r_i_glide_lipo>  (194) 
-0.211738

>  <r_i_glide_hbond>  (194) 
0

>  <r_i_glide_metal>  (194) 
-0

>  <r_i_glide_rewards>  (194) 
-1.79782

>  <r_i_glide_evdw>  (194) 
-19.095

>  <r_i_glide_ecoul>  (194) 
-2.18967

>  <r_i_glide_erotb>  (194) 
0

>  <r_i_glide_esite>  (194) 
0

>  <r_i_glide_emodel>  (194) 
-25.8669

>  <r_i_glide_energy>  (194) 
-21.2846

>  <r_i_glide_einternal>  (194) 
0

>  <r_i_glide_intrahb_reward>  (194) 
-0

>  <i_i_glide_confnum>  (194) 
1

>  <i_i_glide_posenum>  (194) 
3

>  <r_i_glide_eff_state_penalty>  (194) 
0

>  <ligand_id>  (194) 
52

>  <original_smiles>  (194) 
O=C1C=CC(=O)c2c1sc1cc(Cl)ccc21

>  <smiles>  (194) 
[H]C1=C([H])C(=O)c2c(sc3c([H])c(Cl)c([H])c([H])c23)C1=O

$$$$
52:0:2
     RDKit          3D

 21 23  0  0  1  0  0  0  0  0999 V2000
    2.5455   -5.5855    2.8983 O   0  0  0  0  0  0  0  0  0  0  0  0
    3.2385   -4.5724    2.8234 C   0  0  0  0  0  0  0  0  0  0  0  0
    3.9479   -3.9879    3.9862 C   0  0  0  0  0  0  0  0  0  0  0  0
    4.6925   -2.8568    3.8852 C   0  0  0  0  0  0  0  0  0  0  0  0
    4.8656   -2.1119    2.6125 C   0  0  0  0  0  0  0  0  0  0  0  0
    5.5529   -1.0929    2.5687 O   0  0  0  0  0  0  0  0  0  0  0  0
    4.1779   -2.6796    1.4566 C   0  0  0  0  0  0  0  0  0  0  0  0
    3.4281   -3.8262    1.5826 C   0  0  0  0  0  0  0  0  0  0  0  0
    2.6793   -4.3823    0.1110 S   0  0  0  0  0  0  0  0  0  0  0  0
    3.3653   -3.0278   -0.7742 C   0  0  0  0  0  0  0  0  0  0  0  0
    3.2070   -2.7305   -2.1386 C   0  0  0  0  0  0  0  0  0  0  0  0
    3.8343   -1.5934   -2.6750 C   0  0  0  0  0  0  0  0  0  0  0  0
    3.6601   -1.1863   -4.3305 Cl  0  0  0  0  0  0  0  0  0  0  0  0
    4.6154   -0.7664   -1.8606 C   0  0  0  0  0  0  0  0  0  0  0  0
    4.7727   -1.0692   -0.4992 C   0  0  0  0  0  0  0  0  0  0  0  0
    4.1542   -2.1955    0.0917 C   0  0  0  0  0  0  0  0  0  0  0  0
    3.8562   -4.4928    4.9405 H   0  0  0  0  0  0  0  0  0  0  0  0
    5.1965   -2.4562    4.7519 H   0  0  0  0  0  0  0  0  0  0  0  0
    2.5983   -3.3684   -2.7632 H   0  0  0  0  0  0  0  0  0  0  0  0
    5.0849    0.1094   -2.2824 H   0  0  0  0  0  0  0  0  0  0  0  0
    5.3691   -0.4124    0.1147 H   0  0  0  0  0  0  0  0  0  0  0  0
  1  2  2  0
  2  8  1  0
  2  3  1  0
  3  4  2  0
  3 17  1  0
  4  5  1  0
  4 18  1  0
  5  6  2  0
  5  7  1  0
  7 16  1  0
  7  8  2  0
  8  9  1  0
  9 10  1  0
 10 16  2  0
 10 11  1  0
 11 12  2  0
 11 19  1  0
 12 13  1  0
 12 14  1  0
 14 15  2  0
 14 20  1  0
 15 16  1  0
 15 21  1  0
M  END
>  <i_m_ct_stereo_status>  (195) 
1

>  <s_m_source_file>  (195) 
/var/tmp/pbs.5076255.sched01/tmp9vbryffn/46pprzbbw9.sdf

>  <i_m_source_file_index>  (195) 
40

>  <i_lp_mmshare_version>  (195) 
48012

>  <i_f3d_flags>  (195) 
0

>  <s_epik_input>  (195) 
Tz1DMVtDSF09W0NIXUMoPU8pYyhjMTIpc2MzYzJbY0hdW2NIXWMoQ2wpW2NIXTM=

>  <s_epik_cmdline>  (195) 
J2VwaWtfcHl0aG9uJywgJy1waHQnLCAnMi4wJywgJy1waCcsICc3LjAnLCAnLXRuJywgJzgnLCAnLW1hJywgJzIwMCcsICctaW1hZScsICc8aW5maWxlLm1hZT4nLCAnLW9tYWUnLCAnPG91dGZpbGUubWFlPic=

>  <r_lp_tautomer_probability>  (195) 
1

>  <r_epik_Ionization_Penalty>  (195) 
0

>  <r_epik_Ionization_Penalty_Charging>  (195) 
0

>  <r_epik_Ionization_Penalty_Neutral>  (195) 
0

>  <r_epik_State_Penalty>  (195) 
-0

>  <r_epik_Charging_Adjusted_Penalty>  (195) 
0

>  <i_epik_Tot_Q>  (195) 
0

>  <i_epik_Tot_abs_Q>  (195) 
0

>  <s_lp_Force_Field>  (195) 
OPLS3e

>  <r_lp_Energy>  (195) 
19.5831

>  <b_lp_Chiralities_Consistent>  (195) 
1

>  <s_lp_Variant>  (195) 
52:0-1

>  <s_i_glide_gridfile>  (195) 
pfpi4k_grid

>  <i_i_glide_lignum>  (195) 
40

>  <i_i_glide_rotatable_bonds>  (195) 
0

>  <r_i_docking_score>  (195) 
-3.14949

>  <r_i_glide_ligand_efficiency>  (195) 
-0.196843

>  <r_i_glide_ligand_efficiency_sa>  (195) 
-0.496013

>  <r_i_glide_ligand_efficiency_ln>  (195) 
-0.834834

>  <r_i_glide_gscore>  (195) 
-3.14949

>  <r_i_glide_lipo>  (195) 
-0.0373692

>  <r_i_glide_hbond>  (195) 
0

>  <r_i_glide_metal>  (195) 
-0

>  <r_i_glide_rewards>  (195) 
-1.78889

>  <r_i_glide_evdw>  (195) 
-21.2049

>  <r_i_glide_ecoul>  (195) 
-1.75324

>  <r_i_glide_erotb>  (195) 
0

>  <r_i_glide_esite>  (195) 
0

>  <r_i_glide_emodel>  (195) 
-27.3349

>  <r_i_glide_energy>  (195) 
-22.9581

>  <r_i_glide_einternal>  (195) 
0

>  <r_i_glide_intrahb_reward>  (195) 
-0

>  <i_i_glide_confnum>  (195) 
2

>  <i_i_glide_posenum>  (195) 
9

>  <r_i_glide_eff_state_penalty>  (195) 
0

>  <ligand_id>  (195) 
52

>  <original_smiles>  (195) 
O=C1C=CC(=O)c2c1sc1cc(Cl)ccc21

>  <smiles>  (195) 
[H]C1=C([H])C(=O)c2c(sc3c([H])c(Cl)c([H])c([H])c23)C1=O

$$$$
53:0:0
     RDKit          3D

 88 95  0  0  1  0  0  0  0  0999 V2000
    1.6061   -8.5033    3.1913 C   0  0  0  0  0  0  0  0  0  0  0  0
    0.4872   -8.1323    4.1932 C   0  0  0  0  0  0  0  0  0  0  0  0
   -0.8339   -8.7252    3.6683 C   0  0  0  0  0  0  0  0  0  0  0  0
    0.7859   -8.7310    5.5882 C   0  0  0  0  0  0  0  0  0  0  0  0
    1.9612   -8.0350    6.3022 C   0  0  0  0  0  0  0  0  0  0  0  0
    1.7497   -6.5037    6.4623 C   0  0  1  0  0  0  0  0  0  0  0  0
    0.5986   -6.3115    7.4890 C   0  0  0  0  0  0  0  0  0  0  0  0
    3.0343   -5.8789    7.0391 C   0  0  0  0  0  0  0  0  0  0  0  0
    3.0067   -4.3339    7.0512 C   0  0  0  0  0  0  0  0  0  0  0  0
    2.8069   -3.6826    5.6561 C   0  0  2  0  0  0  0  0  0  0  0  0
    4.1106   -4.0106    4.8477 C   0  0  0  0  0  0  0  0  0  0  0  0
    2.6787   -2.1183    5.8225 C   0  0  0  0  0  0  0  0  0  0  0  0
    3.7367   -1.3016    5.9224 C   0  0  0  0  0  0  0  0  0  0  0  0
    3.6656    0.1382    6.0636 C   0  0  0  0  0  0  0  0  0  0  0  0
    2.5320    0.8611    6.1987 C   0  0  0  0  0  0  0  0  0  0  0  0
    2.7564    2.1788    6.4844 C   0  0  0  0  0  0  0  0  0  0  0  0
    2.0538    3.1849    6.8413 C   0  0  0  0  0  0  0  0  0  0  0  0
    0.6703    3.3152    6.8253 N   0  0  0  0  0  0  0  0  0  0  0  0
   -0.1782    2.6862    5.8542 C   0  0  1  0  0  0  0  0  0  0  0  0
   -0.9063    1.5254    6.5496 C   0  0  0  0  0  0  0  0  0  0  0  0
    0.1264    0.5377    7.1613 C   0  0  0  0  0  0  0  0  0  0  0  0
    1.2257    0.0468    6.1974 C   0  0  1  0  0  0  0  0  0  0  0  0
    0.8615   -0.5197    4.8474 C   0  0  0  0  0  0  0  0  0  0  0  0
    1.3114   -1.4904    5.9044 C   0  0  1  0  0  0  0  0  0  0  0  0
    0.2739   -2.4782    6.3706 C   0  0  0  0  0  0  0  0  0  0  0  0
    0.1948   -3.7376    5.4998 C   0  0  0  0  0  0  0  0  0  0  0  0
    1.5338   -4.3084    4.9392 C   0  0  1  0  0  0  0  0  0  0  0  0
    1.5970   -3.9164    3.4326 C   0  0  0  0  0  0  0  0  0  0  0  0
    1.5104   -5.8874    5.0370 C   0  0  2  0  0  0  0  0  0  0  0  0
    0.3260   -6.5945    4.3158 C   0  0  0  0  0  0  0  0  0  0  0  0
   -1.0082    3.7298    5.0723 C   0  0  0  0  0  0  0  0  0  0  0  0
   -0.2005    4.2887    3.8742 C   0  0  1  0  0  0  0  0  0  0  0  0
   -0.9623    5.3220    3.2753 O   0  0  0  0  0  0  0  0  0  0  0  0
    1.2400    4.8118    4.1552 C   0  0  0  0  0  0  0  0  0  0  0  0
    2.3706    3.7278    4.2730 C   0  0  0  0  0  0  0  0  0  0  0  0
    2.9613    3.4667    5.6862 C   0  0  2  0  0  0  0  0  0  0  0  0
    4.1799    4.3015    6.0112 C   0  0  0  0  0  0  0  0  0  0  0  0
    1.6795   -9.5857    3.0611 H   0  0  0  0  0  0  0  0  0  0  0  0
    2.5849   -8.1649    3.5163 H   0  0  0  0  0  0  0  0  0  0  0  0
    1.4230   -8.0636    2.2108 H   0  0  0  0  0  0  0  0  0  0  0  0
   -1.6622   -8.5154    4.3436 H   0  0  0  0  0  0  0  0  0  0  0  0
   -0.7693   -9.8100    3.5832 H   0  0  0  0  0  0  0  0  0  0  0  0
   -1.0941   -8.3337    2.6851 H   0  0  0  0  0  0  0  0  0  0  0  0
   -0.1046   -8.6670    6.2130 H   0  0  0  0  0  0  0  0  0  0  0  0
    0.9916   -9.7975    5.5020 H   0  0  0  0  0  0  0  0  0  0  0  0
    2.1185   -8.5032    7.2731 H   0  0  0  0  0  0  0  0  0  0  0  0
    2.8741   -8.2262    5.7414 H   0  0  0  0  0  0  0  0  0  0  0  0
    0.5226   -5.2936    7.8584 H   0  0  0  0  0  0  0  0  0  0  0  0
    0.7470   -6.9428    8.3650 H   0  0  0  0  0  0  0  0  0  0  0  0
   -0.3697   -6.5739    7.0727 H   0  0  0  0  0  0  0  0  0  0  0  0
    3.1941   -6.2476    8.0526 H   0  0  0  0  0  0  0  0  0  0  0  0
    3.8987   -6.2287    6.4704 H   0  0  0  0  0  0  0  0  0  0  0  0
    2.2477   -3.9908    7.7466 H   0  0  0  0  0  0  0  0  0  0  0  0
    3.9461   -3.9880    7.4815 H   0  0  0  0  0  0  0  0  0  0  0  0
    4.1622   -5.0460    4.5123 H   0  0  0  0  0  0  0  0  0  0  0  0
    5.0165   -3.8637    5.4368 H   0  0  0  0  0  0  0  0  0  0  0  0
    4.2144   -3.3960    3.9529 H   0  0  0  0  0  0  0  0  0  0  0  0
    4.7169   -1.7314    5.9594 H   0  0  0  0  0  0  0  0  0  0  0  0
    4.5966    0.6633    6.1446 H   0  0  0  0  0  0  0  0  0  0  0  0
    0.4386    2.2111    5.0827 H   0  0  0  0  0  0  0  0  0  0  0  0
   -1.5720    1.8876    7.3414 H   0  0  0  0  0  0  0  0  0  0  0  0
   -1.5406    1.0157    5.8294 H   0  0  0  0  0  0  0  0  0  0  0  0
    0.6142    0.9789    8.0341 H   0  0  0  0  0  0  0  0  0  0  0  0
   -0.4056   -0.3037    7.5732 H   0  0  0  0  0  0  0  0  0  0  0  0
   -0.1894   -0.5351    4.5898 H   0  0  0  0  0  0  0  0  0  0  0  0
    1.5496   -0.3275    4.0220 H   0  0  0  0  0  0  0  0  0  0  0  0
    0.4934   -2.7507    7.3993 H   0  0  0  0  0  0  0  0  0  0  0  0
   -0.7102   -2.0189    6.3487 H   0  0  0  0  0  0  0  0  0  0  0  0
   -0.3733   -4.4925    6.0458 H   0  0  0  0  0  0  0  0  0  0  0  0
   -0.4611   -3.5125    4.6716 H   0  0  0  0  0  0  0  0  0  0  0  0
    0.6699   -4.1290    2.8990 H   0  0  0  0  0  0  0  0  0  0  0  0
    2.3765   -4.4530    2.8897 H   0  0  0  0  0  0  0  0  0  0  0  0
    1.7840   -2.8524    3.2921 H   0  0  0  0  0  0  0  0  0  0  0  0
    2.3689   -6.1947    4.4580 H   0  0  0  0  0  0  0  0  0  0  0  0
    0.1881   -6.1951    3.3106 H   0  0  0  0  0  0  0  0  0  0  0  0
   -0.6009   -6.3940    4.8477 H   0  0  0  0  0  0  0  0  0  0  0  0
   -1.9063    3.2637    4.6715 H   0  0  0  0  0  0  0  0  0  0  0  0
   -1.3675    4.5360    5.7136 H   0  0  0  0  0  0  0  0  0  0  0  0
   -0.1390    3.5092    3.1138 H   0  0  0  0  0  0  0  0  0  0  0  0
   -0.6140    5.4368    2.4004 H   0  0  0  0  0  0  0  0  0  0  0  0
    1.5043    5.4465    3.3088 H   0  0  0  0  0  0  0  0  0  0  0  0
    1.2577    5.4879    5.0083 H   0  0  0  0  0  0  0  0  0  0  0  0
    2.0733    2.8000    3.7857 H   0  0  0  0  0  0  0  0  0  0  0  0
    3.1968    4.0789    3.6452 H   0  0  0  0  0  0  0  0  0  0  0  0
    4.5210    4.0652    7.0165 H   0  0  0  0  0  0  0  0  0  0  0  0
    3.9111    5.3635    5.9834 H   0  0  0  0  0  0  0  0  0  0  0  0
    5.0012    4.1190    5.3084 H   0  0  0  0  0  0  0  0  0  0  0  0
    0.2005    3.5605    7.6713 H   0  0  0  0  0  0  0  0  0  0  0  0
  1  2  1  0
  1 38  1  0
  1 39  1  0
  1 40  1  0
  2 30  1  0
  2  3  1  0
  2  4  1  0
  3 41  1  0
  3 42  1  0
  3 43  1  0
  4  5  1  0
  4 44  1  0
  4 45  1  0
  5  6  1  0
  5 46  1  0
  5 47  1  0
  6 29  1  0
  6  7  1  1
  6  8  1  0
  7 48  1  0
  7 49  1  0
  7 50  1  0
  8  9  1  0
  8 51  1  0
  8 52  1  0
  9 10  1  0
  9 53  1  0
  9 54  1  0
 10 27  1  0
 10 11  1  6
 10 12  1  0
 11 55  1  0
 11 56  1  0
 11 57  1  0
 12 24  1  0
 12 13  2  0
 13 14  1  0
 13 58  1  0
 14 15  2  0
 14 59  1  0
 15 22  1  0
 15 16  1  0
 16 36  1  0
 16 17  2  0
 17 36  1  0
 17 18  1  0
 18 19  1  0
 18 88  1  0
 19 20  1  0
 19 31  1  0
 19 60  1  6
 20 21  1  0
 20 61  1  0
 20 62  1  0
 22 21  1  1
 21 63  1  0
 21 64  1  0
 22 24  1  0
 22 23  1  0
 24 23  1  6
 23 65  1  0
 23 66  1  0
 24 25  1  0
 25 26  1  0
 25 67  1  0
 25 68  1  0
 26 27  1  0
 26 69  1  0
 26 70  1  0
 27 28  1  6
 27 29  1  0
 28 71  1  0
 28 72  1  0
 28 73  1  0
 29 30  1  0
 29 74  1  6
 30 75  1  0
 30 76  1  0
 31 32  1  0
 31 77  1  0
 31 78  1  0
 32 33  1  0
 32 34  1  0
 32 79  1  6
 33 80  1  0
 34 35  1  0
 34 81  1  0
 34 82  1  0
 35 36  1  0
 35 83  1  0
 35 84  1  0
 36 37  1  1
 37 85  1  0
 37 86  1  0
 37 87  1  0
M  END
>  <i_m_ct_stereo_status>  (196) 
1

>  <s_m_source_file>  (196) 
/var/tmp/pbs.5076255.sched01/tmp9vbryffn/46pprzbbw9.sdf

>  <i_m_source_file_index>  (196) 
41

>  <i_lp_mmshare_version>  (196) 
48012

>  <i_f3d_flags>  (196) 
0

>  <s_epik_input>  (196) 
W0NIM11DKFtDSDNdKShbQ0gyXTEpW0NIMl1bQ0gyXVtDQEBdKFtDSDNdKShbQ0gyXVtDSDJdMilbQ0BASF0xW0NAQF0oW0NIM10pKFtDSDJdW0NIMl0zKVtDQEBdMihbQ0gzXSlDKFtDQEBdMyhbQ0BdNDU2KVtDSDJdNik9W0NIXVtDSF09QzRbQ0hdNy9DPThDNyhbQ0gzXSlbQ0gyXVtDSDJdW0NASF0oW09IXSlbQ0gyXVtDQEBIXShcTjgpW0NIMl1bQ0gyXTU=

>  <s_epik_cmdline>  (196) 
J2VwaWtfcHl0aG9uJywgJy1waHQnLCAnMi4wJywgJy1waCcsICc3LjAnLCAnLXRuJywgJzgnLCAnLW1hJywgJzIwMCcsICctaW1hZScsICc8aW5maWxlLm1hZT4nLCAnLW9tYWUnLCAnPG91dGZpbGUubWFlPic=

>  <r_lp_tautomer_probability>  (196) 
1

>  <r_epik_Ionization_Penalty>  (196) 
3.58598e-05

>  <r_epik_Ionization_Penalty_Charging>  (196) 
0

>  <r_epik_Ionization_Penalty_Neutral>  (196) 
3.58598e-05

>  <r_epik_State_Penalty>  (196) 
-0

>  <r_epik_Charging_Adjusted_Penalty>  (196) 
0

>  <i_epik_Tot_Q>  (196) 
0

>  <i_epik_Tot_abs_Q>  (196) 
0

>  <s_lp_Force_Field>  (196) 
OPLS3e

>  <r_lp_Energy>  (196) 
135.285

>  <b_lp_Chiralities_Consistent>  (196) 
1

>  <s_lp_Variant>  (196) 
53:0-1

>  <s_i_glide_gridfile>  (196) 
pfpi4k_grid

>  <i_i_glide_lignum>  (196) 
41

>  <i_i_glide_rotatable_bonds>  (196) 
1

>  <r_i_docking_score>  (196) 
-2.33517

>  <r_i_glide_ligand_efficiency>  (196) 
-0.0631128

>  <r_i_glide_ligand_efficiency_sa>  (196) 
-0.210306

>  <r_i_glide_ligand_efficiency_ln>  (196) 
-0.506444

>  <r_i_glide_gscore>  (196) 
-2.33517

>  <r_i_glide_lipo>  (196) 
-0.00213241

>  <r_i_glide_hbond>  (196) 
-0.275378

>  <r_i_glide_metal>  (196) 
-0

>  <r_i_glide_rewards>  (196) 
0

>  <r_i_glide_evdw>  (196) 
-25.1774

>  <r_i_glide_ecoul>  (196) 
-5.32529

>  <r_i_glide_erotb>  (196) 
0

>  <r_i_glide_esite>  (196) 
0

>  <r_i_glide_emodel>  (196) 
-34.3643

>  <r_i_glide_energy>  (196) 
-30.5027

>  <r_i_glide_einternal>  (196) 
0.473624

>  <r_i_glide_intrahb_reward>  (196) 
-0

>  <i_i_glide_confnum>  (196) 
1

>  <i_i_glide_posenum>  (196) 
4

>  <r_i_glide_eff_state_penalty>  (196) 
0

>  <ligand_id>  (196) 
53

>  <original_smiles>  (196) 
CC1(C)CCC2(C)CCC3(C)C4=CC=C5C6C7=NC(CCC58CC48CCC3(C)C2C1)CC(O)CCC76C

>  <smiles>  (196) 
[H]OC1([H])C([H])([H])C([H])([H])C2(C([H])([H])[H])C3=C2N([H])C([H])(C([H])([H])C([H])([H])C24C3=C([H])C([H])=C3C2(C([H])([H])C([H])([H])C2(C([H])([H])[H])C5([H])C([H])([H])C(C([H])([H])[H])(C([H])([H])[H])C([H])([H])C([H])([H])C5(C([H])([H])[H])C([H])([H])C([H])([H])C32C([H])([H])[H])C4([H])[H])C1([H])[H]

$$$$
53:0:1
     RDKit          3D

 88 95  0  0  1  0  0  0  0  0999 V2000
    2.4468   -9.5252    2.5447 C   0  0  0  0  0  0  0  0  0  0  0  0
    1.2917   -9.2853    3.5447 C   0  0  0  0  0  0  0  0  0  0  0  0
    0.0434   -9.9918    3.0038 C   0  0  0  0  0  0  0  0  0  0  0  0
    1.6325   -9.8811    4.9321 C   0  0  0  0  0  0  0  0  0  0  0  0
    2.7273   -9.0881    5.6720 C   0  0  0  0  0  0  0  0  0  0  0  0
    2.3639   -7.5880    5.8578 C   0  0  1  0  0  0  0  0  0  0  0  0
    1.1891   -7.5310    6.8752 C   0  0  0  0  0  0  0  0  0  0  0  0
    3.5737   -6.8523    6.4622 C   0  0  0  0  0  0  0  0  0  0  0  0
    3.3983   -5.3185    6.5044 C   0  0  0  0  0  0  0  0  0  0  0  0
    3.1479   -4.6635    5.1158 C   0  0  2  0  0  0  0  0  0  0  0  0
    4.4855   -4.8453    4.3164 C   0  0  0  0  0  0  0  0  0  0  0  0
    2.8683   -3.1218    5.3124 C   0  0  0  0  0  0  0  0  0  0  0  0
    3.8437   -2.2100    5.4411 C   0  0  0  0  0  0  0  0  0  0  0  0
    3.6314   -0.7845    5.6125 C   0  0  0  0  0  0  0  0  0  0  0  0
    2.4321   -0.1827    5.7474 C   0  0  0  0  0  0  0  0  0  0  0  0
    2.5201    1.1471    6.0575 C   0  0  0  0  0  0  0  0  0  0  0  0
    1.7173    2.0737    6.4266 C   0  0  0  0  0  0  0  0  0  0  0  0
    0.3299    2.0748    6.3969 N   0  0  0  0  0  0  0  0  0  0  0  0
   -0.4446    1.3846    5.4032 C   0  0  1  0  0  0  0  0  0  0  0  0
   -1.0575    0.1465    6.0656 C   0  0  0  0  0  0  0  0  0  0  0  0
    0.0578   -0.7543    6.6733 C   0  0  0  0  0  0  0  0  0  0  0  0
    1.2087   -1.1141    5.7142 C   0  0  1  0  0  0  0  0  0  0  0  0
    0.9115   -1.6882    4.3509 C   0  0  0  0  0  0  0  0  0  0  0  0
    1.4461   -2.6337    5.3903 C   0  0  1  0  0  0  0  0  0  0  0  0
    0.5056   -3.7260    5.8285 C   0  0  0  0  0  0  0  0  0  0  0  0
    0.5549   -4.9726    4.9331 C   0  0  0  0  0  0  0  0  0  0  0  0
    1.9491   -5.3947    4.3730 C   0  0  1  0  0  0  0  0  0  0  0  0
    1.9861   -4.9695    2.8756 C   0  0  0  0  0  0  0  0  0  0  0  0
    2.0812   -6.9675    4.4409 C   0  0  2  0  0  0  0  0  0  0  0  0
    0.9769   -7.7747    3.6930 C   0  0  0  0  0  0  0  0  0  0  0  0
   -1.3667    2.3591    4.6381 C   0  0  0  0  0  0  0  0  0  0  0  0
   -0.6014    3.0206    3.4616 C   0  0  1  0  0  0  0  0  0  0  0  0
   -1.4330    4.0101    2.8937 O   0  0  0  0  0  0  0  0  0  0  0  0
    0.7818    3.6657    3.7726 C   0  0  0  0  0  0  0  0  0  0  0  0
    2.0080    2.6966    3.8760 C   0  0  0  0  0  0  0  0  0  0  0  0
    2.6097    2.4681    5.2872 C   0  0  2  0  0  0  0  0  0  0  0  0
    3.7390    3.4084    5.6478 C   0  0  0  0  0  0  0  0  0  0  0  0
    2.6245  -10.5922    2.3923 H   0  0  0  0  0  0  0  0  0  0  0  0
    3.3874   -9.0999    2.8856 H   0  0  0  0  0  0  0  0  0  0  0  0
    2.2281   -9.0859    1.5706 H   0  0  0  0  0  0  0  0  0  0  0  0
   -0.8088   -9.8626    3.6730 H   0  0  0  0  0  0  0  0  0  0  0  0
    0.2194  -11.0650    2.8923 H   0  0  0  0  0  0  0  0  0  0  0  0
   -0.2548   -9.6002    2.0370 H   0  0  0  0  0  0  0  0  0  0  0  0
    0.7336   -9.9164    5.5474 H   0  0  0  0  0  0  0  0  0  0  0  0
    1.9416  -10.9195    4.8271 H   0  0  0  0  0  0  0  0  0  0  0  0
    2.9174   -9.5589    6.6326 H   0  0  0  0  0  0  0  0  0  0  0  0
    3.6584   -9.1787    5.1157 H   0  0  0  0  0  0  0  0  0  0  0  0
    1.0106   -6.5323    7.2633 H   0  0  0  0  0  0  0  0  0  0  0  0
    1.3900   -8.1605    7.7416 H   0  0  0  0  0  0  0  0  0  0  0  0
    0.2514   -7.8838    6.4472 H   0  0  0  0  0  0  0  0  0  0  0  0
    3.7635   -7.2242    7.4694 H   0  0  0  0  0  0  0  0  0  0  0  0
    4.4768   -7.1057    5.8967 H   0  0  0  0  0  0  0  0  0  0  0  0
    2.6038   -5.0652    7.1956 H   0  0  0  0  0  0  0  0  0  0  0  0
    4.2952   -4.8913    6.9503 H   0  0  0  0  0  0  0  0  0  0  0  0
    4.6415   -5.8637    3.9618 H   0  0  0  0  0  0  0  0  0  0  0  0
    5.3690   -4.6240    4.9215 H   0  0  0  0  0  0  0  0  0  0  0  0
    4.5384   -4.2048    3.4385 H   0  0  0  0  0  0  0  0  0  0  0  0
    4.8601   -2.5412    5.4814 H   0  0  0  0  0  0  0  0  0  0  0  0
    4.5073   -0.1759    5.7110 H   0  0  0  0  0  0  0  0  0  0  0  0
    0.2235    0.9896    4.6335 H   0  0  0  0  0  0  0  0  0  0  0  0
   -1.7644    0.4394    6.8505 H   0  0  0  0  0  0  0  0  0  0  0  0
   -1.6364   -0.4128    5.3289 H   0  0  0  0  0  0  0  0  0  0  0  0
    0.4907   -0.2885    7.5600 H   0  0  0  0  0  0  0  0  0  0  0  0
   -0.3960   -1.6521    7.0603 H   0  0  0  0  0  0  0  0  0  0  0  0
   -0.1317   -1.7997    4.0816 H   0  0  0  0  0  0  0  0  0  0  0  0
    1.5826   -1.4087    3.5343 H   0  0  0  0  0  0  0  0  0  0  0  0
    0.7379   -3.9948    6.8541 H   0  0  0  0  0  0  0  0  0  0  0  0
   -0.5211   -3.3650    5.8051 H   0  0  0  0  0  0  0  0  0  0  0  0
    0.0623   -5.7860    5.4614 H   0  0  0  0  0  0  0  0  0  0  0  0
   -0.1244   -4.8091    4.0955 H   0  0  0  0  0  0  0  0  0  0  0  0
    1.0904   -5.2627    2.3262 H   0  0  0  0  0  0  0  0  0  0  0  0
    2.8222   -5.4137    2.3330 H   0  0  0  0  0  0  0  0  0  0  0  0
    2.0714   -3.8882    2.7571 H   0  0  0  0  0  0  0  0  0  0  0  0
    2.9729   -7.1812    3.8652 H   0  0  0  0  0  0  0  0  0  0  0  0
    0.8033   -7.3720    2.6953 H   0  0  0  0  0  0  0  0  0  0  0  0
    0.0307   -7.6749    4.2202 H   0  0  0  0  0  0  0  0  0  0  0  0
   -2.2092    1.8146    4.2138 H   0  0  0  0  0  0  0  0  0  0  0  0
   -1.8170    3.1162    5.2843 H   0  0  0  0  0  0  0  0  0  0  0  0
   -0.4643    2.2731    2.6798 H   0  0  0  0  0  0  0  0  0  0  0  0
   -1.0057    4.2771    2.0801 H   0  0  0  0  0  0  0  0  0  0  0  0
    0.9948    4.3415    2.9408 H   0  0  0  0  0  0  0  0  0  0  0  0
    0.7240    4.3262    4.6369 H   0  0  0  0  0  0  0  0  0  0  0  0
    1.8067    1.7565    3.3666 H   0  0  0  0  0  0  0  0  0  0  0  0
    2.8012    3.1434    3.2670 H   0  0  0  0  0  0  0  0  0  0  0  0
    4.0928    3.1849    6.6520 H   0  0  0  0  0  0  0  0  0  0  0  0
    3.3697    4.4386    5.6345 H   0  0  0  0  0  0  0  0  0  0  0  0
    4.5800    3.3179    4.9503 H   0  0  0  0  0  0  0  0  0  0  0  0
   -0.1669    2.2628    7.2465 H   0  0  0  0  0  0  0  0  0  0  0  0
  1  2  1  0
  1 38  1  0
  1 39  1  0
  1 40  1  0
  2 30  1  0
  2  3  1  0
  2  4  1  0
  3 41  1  0
  3 42  1  0
  3 43  1  0
  4  5  1  0
  4 44  1  0
  4 45  1  0
  5  6  1  0
  5 46  1  0
  5 47  1  0
  6 29  1  0
  6  7  1  1
  6  8  1  0
  7 48  1  0
  7 49  1  0
  7 50  1  0
  8  9  1  0
  8 51  1  0
  8 52  1  0
  9 10  1  0
  9 53  1  0
  9 54  1  0
 10 27  1  0
 10 11  1  6
 10 12  1  0
 11 55  1  0
 11 56  1  0
 11 57  1  0
 12 24  1  0
 12 13  2  0
 13 14  1  0
 13 58  1  0
 14 15  2  0
 14 59  1  0
 15 22  1  0
 15 16  1  0
 16 36  1  0
 16 17  2  0
 17 36  1  0
 17 18  1  0
 18 19  1  0
 18 88  1  0
 19 20  1  0
 19 31  1  0
 19 60  1  6
 20 21  1  0
 20 61  1  0
 20 62  1  0
 22 21  1  1
 21 63  1  0
 21 64  1  0
 22 24  1  0
 22 23  1  0
 24 23  1  6
 23 65  1  0
 23 66  1  0
 24 25  1  0
 25 26  1  0
 25 67  1  0
 25 68  1  0
 26 27  1  0
 26 69  1  0
 26 70  1  0
 27 28  1  6
 27 29  1  0
 28 71  1  0
 28 72  1  0
 28 73  1  0
 29 30  1  0
 29 74  1  6
 30 75  1  0
 30 76  1  0
 31 32  1  0
 31 77  1  0
 31 78  1  0
 32 33  1  0
 32 34  1  0
 32 79  1  6
 33 80  1  0
 34 35  1  0
 34 81  1  0
 34 82  1  0
 35 36  1  0
 35 83  1  0
 35 84  1  0
 36 37  1  1
 37 85  1  0
 37 86  1  0
 37 87  1  0
M  END
>  <i_m_ct_stereo_status>  (197) 
1

>  <s_m_source_file>  (197) 
/var/tmp/pbs.5076255.sched01/tmp9vbryffn/46pprzbbw9.sdf

>  <i_m_source_file_index>  (197) 
41

>  <i_lp_mmshare_version>  (197) 
48012

>  <i_f3d_flags>  (197) 
0

>  <s_epik_input>  (197) 
W0NIM11DKFtDSDNdKShbQ0gyXTEpW0NIMl1bQ0gyXVtDQEBdKFtDSDNdKShbQ0gyXVtDSDJdMilbQ0BASF0xW0NAQF0oW0NIM10pKFtDSDJdW0NIMl0zKVtDQEBdMihbQ0gzXSlDKFtDQEBdMyhbQ0BdNDU2KVtDSDJdNik9W0NIXVtDSF09QzRbQ0hdNy9DPThDNyhbQ0gzXSlbQ0gyXVtDSDJdW0NASF0oW09IXSlbQ0gyXVtDQEBIXShcTjgpW0NIMl1bQ0gyXTU=

>  <s_epik_cmdline>  (197) 
J2VwaWtfcHl0aG9uJywgJy1waHQnLCAnMi4wJywgJy1waCcsICc3LjAnLCAnLXRuJywgJzgnLCAnLW1hJywgJzIwMCcsICctaW1hZScsICc8aW5maWxlLm1hZT4nLCAnLW9tYWUnLCAnPG91dGZpbGUubWFlPic=

>  <r_lp_tautomer_probability>  (197) 
1

>  <r_epik_Ionization_Penalty>  (197) 
3.58598e-05

>  <r_epik_Ionization_Penalty_Charging>  (197) 
0

>  <r_epik_Ionization_Penalty_Neutral>  (197) 
3.58598e-05

>  <r_epik_State_Penalty>  (197) 
-0

>  <r_epik_Charging_Adjusted_Penalty>  (197) 
0

>  <i_epik_Tot_Q>  (197) 
0

>  <i_epik_Tot_abs_Q>  (197) 
0

>  <s_lp_Force_Field>  (197) 
OPLS3e

>  <r_lp_Energy>  (197) 
135.285

>  <b_lp_Chiralities_Consistent>  (197) 
1

>  <s_lp_Variant>  (197) 
53:0-1

>  <s_i_glide_gridfile>  (197) 
pfpi4k_grid

>  <i_i_glide_lignum>  (197) 
41

>  <i_i_glide_rotatable_bonds>  (197) 
1

>  <r_i_docking_score>  (197) 
-2.19766

>  <r_i_glide_ligand_efficiency>  (197) 
-0.0593963

>  <r_i_glide_ligand_efficiency_sa>  (197) 
-0.197922

>  <r_i_glide_ligand_efficiency_ln>  (197) 
-0.476622

>  <r_i_glide_gscore>  (197) 
-2.19766

>  <r_i_glide_lipo>  (197) 
-0.00702447

>  <r_i_glide_hbond>  (197) 
-0.16

>  <r_i_glide_metal>  (197) 
-0

>  <r_i_glide_rewards>  (197) 
0

>  <r_i_glide_evdw>  (197) 
-26.7993

>  <r_i_glide_ecoul>  (197) 
-4.6045

>  <r_i_glide_erotb>  (197) 
0

>  <r_i_glide_esite>  (197) 
-8.1613e-08

>  <r_i_glide_emodel>  (197) 
-35.0304

>  <r_i_glide_energy>  (197) 
-31.4038

>  <r_i_glide_einternal>  (197) 
0.330329

>  <r_i_glide_intrahb_reward>  (197) 
-0

>  <i_i_glide_confnum>  (197) 
2

>  <i_i_glide_posenum>  (197) 
29

>  <r_i_glide_eff_state_penalty>  (197) 
0

>  <ligand_id>  (197) 
53

>  <original_smiles>  (197) 
CC1(C)CCC2(C)CCC3(C)C4=CC=C5C6C7=NC(CCC58CC48CCC3(C)C2C1)CC(O)CCC76C

>  <smiles>  (197) 
[H]OC1([H])C([H])([H])C([H])([H])C2(C([H])([H])[H])C3=C2N([H])C([H])(C([H])([H])C([H])([H])C24C3=C([H])C([H])=C3C2(C([H])([H])C([H])([H])C2(C([H])([H])[H])C5([H])C([H])([H])C(C([H])([H])[H])(C([H])([H])[H])C([H])([H])C([H])([H])C5(C([H])([H])[H])C([H])([H])C([H])([H])C32C([H])([H])[H])C4([H])[H])C1([H])[H]

$$$$
53:1:0
     RDKit          3D

 88 95  0  0  1  0  0  0  0  0999 V2000
    3.4642  -10.7986    5.3825 C   0  0  0  0  0  0  0  0  0  0  0  0
    3.3071  -10.2403    3.9472 C   0  0  0  0  0  0  0  0  0  0  0  0
    4.5079  -10.7329    3.1180 C   0  0  0  0  0  0  0  0  0  0  0  0
    2.0039  -10.7617    3.3022 C   0  0  0  0  0  0  0  0  0  0  0  0
    0.7343  -10.1410    3.9149 C   0  0  0  0  0  0  0  0  0  0  0  0
    0.7292   -8.5902    3.8472 C   0  0  1  0  0  0  0  0  0  0  0  0
    0.5788   -8.2041    2.3483 C   0  0  0  0  0  0  0  0  0  0  0  0
   -0.4956   -8.0616    4.6147 C   0  0  0  0  0  0  0  0  0  0  0  0
   -0.4821   -6.5274    4.7857 C   0  0  0  0  0  0  0  0  0  0  0  0
    0.7628   -5.9635    5.5257 C   0  0  2  0  0  0  0  0  0  0  0  0
    0.6397   -6.4818    6.9980 C   0  0  0  0  0  0  0  0  0  0  0  0
    0.6877   -4.3899    5.5184 C   0  0  0  0  0  0  0  0  0  0  0  0
   -0.1169   -3.7031    6.3515 C   0  0  0  0  0  0  0  0  0  0  0  0
   -0.2313   -2.2517    6.3715 C   0  0  0  0  0  0  0  0  0  0  0  0
    0.4712   -1.4334    5.5723 C   0  0  0  0  0  0  0  0  0  0  0  0
    0.4755   -0.1212    5.8700 C   0  0  0  0  0  0  0  0  0  0  0  0
    1.0479    0.9923    5.6314 C   0  0  0  0  0  0  0  0  0  0  0  0
    1.4521    1.5725    4.4659 N   0  0  0  0  0  0  0  0  0  0  0  0
    1.0719    1.2601    3.1213 C   0  0  1  0  0  0  0  0  0  0  0  0
    1.7567   -0.0674    2.7166 C   0  0  0  0  0  0  0  0  0  0  0  0
    1.0547   -1.3957    3.1005 C   0  0  0  0  0  0  0  0  0  0  0  0
    1.3003   -2.0533    4.4705 C   0  0  1  0  0  0  0  0  0  0  0  0
    2.6033   -2.6788    4.8570 C   0  0  0  0  0  0  0  0  0  0  0  0
    1.4697   -3.6096    4.4870 C   0  0  1  0  0  0  0  0  0  0  0  0
    1.6893   -4.4448    3.2490 C   0  0  0  0  0  0  0  0  0  0  0  0
    2.4267   -5.7597    3.5153 C   0  0  0  0  0  0  0  0  0  0  0  0
    2.0908   -6.5054    4.8440 C   0  0  1  0  0  0  0  0  0  0  0  0
    3.2700   -6.2336    5.8258 C   0  0  0  0  0  0  0  0  0  0  0  0
    2.0214   -8.0592    4.5650 C   0  0  2  0  0  0  0  0  0  0  0  0
    3.3023   -8.6897    3.9470 C   0  0  0  0  0  0  0  0  0  0  0  0
   -0.4531    1.3709    2.8801 C   0  0  0  0  0  0  0  0  0  0  0  0
   -1.1936    2.6490    3.3631 C   0  0  1  0  0  0  0  0  0  0  0  0
   -2.5171    2.5840    2.8797 O   0  0  0  0  0  0  0  0  0  0  0  0
   -1.2859    2.9124    4.8982 C   0  0  0  0  0  0  0  0  0  0  0  0
   -1.5049    1.6836    5.8359 C   0  0  0  0  0  0  0  0  0  0  0  0
   -0.2402    1.0756    6.4856 C   0  0  1  0  0  0  0  0  0  0  0  0
    0.0494    1.5375    7.8857 C   0  0  0  0  0  0  0  0  0  0  0  0
    3.5350  -11.8899    5.3806 H   0  0  0  0  0  0  0  0  0  0  0  0
    2.6208  -10.5504    6.0224 H   0  0  0  0  0  0  0  0  0  0  0  0
    4.3614  -10.4046    5.8632 H   0  0  0  0  0  0  0  0  0  0  0  0
    4.4463  -10.3818    2.0884 H   0  0  0  0  0  0  0  0  0  0  0  0
    4.5447  -11.8220    3.0751 H   0  0  0  0  0  0  0  0  0  0  0  0
    5.4534  -10.3815    3.5295 H   0  0  0  0  0  0  0  0  0  0  0  0
    2.0257  -10.5561    2.2328 H   0  0  0  0  0  0  0  0  0  0  0  0
    1.9557  -11.8464    3.3859 H   0  0  0  0  0  0  0  0  0  0  0  0
   -0.1443  -10.5503    3.4166 H   0  0  0  0  0  0  0  0  0  0  0  0
    0.6494  -10.4681    4.9496 H   0  0  0  0  0  0  0  0  0  0  0  0
    0.3252   -7.1591    2.1959 H   0  0  0  0  0  0  0  0  0  0  0  0
   -0.2187   -8.7797    1.8778 H   0  0  0  0  0  0  0  0  0  0  0  0
    1.4827   -8.4036    1.7763 H   0  0  0  0  0  0  0  0  0  0  0  0
   -1.4081   -8.3690    4.1012 H   0  0  0  0  0  0  0  0  0  0  0  0
   -0.5496   -8.5451    5.5920 H   0  0  0  0  0  0  0  0  0  0  0  0
   -0.5828   -6.0594    3.8123 H   0  0  0  0  0  0  0  0  0  0  0  0
   -1.3895   -6.2449    5.3206 H   0  0  0  0  0  0  0  0  0  0  0  0
    0.8759   -7.5394    7.0980 H   0  0  0  0  0  0  0  0  0  0  0  0
   -0.3707   -6.3807    7.3957 H   0  0  0  0  0  0  0  0  0  0  0  0
    1.3019   -5.9513    7.6824 H   0  0  0  0  0  0  0  0  0  0  0  0
   -0.6810   -4.2387    7.0893 H   0  0  0  0  0  0  0  0  0  0  0  0
   -0.7165   -1.8123    7.2200 H   0  0  0  0  0  0  0  0  0  0  0  0
    1.5442    2.0453    2.5178 H   0  0  0  0  0  0  0  0  0  0  0  0
    1.8326   -0.0504    1.6252 H   0  0  0  0  0  0  0  0  0  0  0  0
    2.7928   -0.0822    3.0752 H   0  0  0  0  0  0  0  0  0  0  0  0
   -0.0157   -1.3045    2.9677 H   0  0  0  0  0  0  0  0  0  0  0  0
    1.3565   -2.0776    2.3254 H   0  0  0  0  0  0  0  0  0  0  0  0
    3.4016   -2.5765    4.1289 H   0  0  0  0  0  0  0  0  0  0  0  0
    2.9024   -2.6355    5.9027 H   0  0  0  0  0  0  0  0  0  0  0  0
    0.7199   -4.6492    2.8052 H   0  0  0  0  0  0  0  0  0  0  0  0
    2.2834   -3.8992    2.5210 H   0  0  0  0  0  0  0  0  0  0  0  0
    2.3090   -6.4022    2.6428 H   0  0  0  0  0  0  0  0  0  0  0  0
    3.4870   -5.5464    3.4941 H   0  0  0  0  0  0  0  0  0  0  0  0
    4.2484   -6.3842    5.3705 H   0  0  0  0  0  0  0  0  0  0  0  0
    3.2451   -6.8899    6.6969 H   0  0  0  0  0  0  0  0  0  0  0  0
    3.2662   -5.2095    6.1979 H   0  0  0  0  0  0  0  0  0  0  0  0
    1.9850   -8.4979    5.5523 H   0  0  0  0  0  0  0  0  0  0  0  0
    4.1965   -8.3493    4.4705 H   0  0  0  0  0  0  0  0  0  0  0  0
    3.4165   -8.3553    2.9188 H   0  0  0  0  0  0  0  0  0  0  0  0
   -0.6019    1.2831    1.8020 H   0  0  0  0  0  0  0  0  0  0  0  0
   -0.9419    0.5222    3.3423 H   0  0  0  0  0  0  0  0  0  0  0  0
   -0.7499    3.5326    2.8900 H   0  0  0  0  0  0  0  0  0  0  0  0
   -2.8371    1.6910    2.9059 H   0  0  0  0  0  0  0  0  0  0  0  0
   -0.4176    3.4785    5.2327 H   0  0  0  0  0  0  0  0  0  0  0  0
   -2.1216    3.6026    5.0418 H   0  0  0  0  0  0  0  0  0  0  0  0
   -2.1562    2.0196    6.6500 H   0  0  0  0  0  0  0  0  0  0  0  0
   -2.0781    0.9156    5.3215 H   0  0  0  0  0  0  0  0  0  0  0  0
    1.0147    1.1410    8.1940 H   0  0  0  0  0  0  0  0  0  0  0  0
   -0.7206    1.1978    8.5797 H   0  0  0  0  0  0  0  0  0  0  0  0
    0.1151    2.6289    7.9162 H   0  0  0  0  0  0  0  0  0  0  0  0
    2.4168    1.8537    4.4585 H   0  0  0  0  0  0  0  0  0  0  0  0
  1  2  1  0
  1 38  1  0
  1 39  1  0
  1 40  1  0
  2 30  1  0
  2  3  1  0
  2  4  1  0
  3 41  1  0
  3 42  1  0
  3 43  1  0
  4  5  1  0
  4 44  1  0
  4 45  1  0
  5  6  1  0
  5 46  1  0
  5 47  1  0
  6 29  1  0
  6  7  1  6
  6  8  1  0
  7 48  1  0
  7 49  1  0
  7 50  1  0
  8  9  1  0
  8 51  1  0
  8 52  1  0
  9 10  1  0
  9 53  1  0
  9 54  1  0
 10 27  1  0
 10 11  1  1
 10 12  1  0
 11 55  1  0
 11 56  1  0
 11 57  1  0
 12 24  1  0
 12 13  2  0
 13 14  1  0
 13 58  1  0
 14 15  2  0
 14 59  1  0
 15 22  1  0
 15 16  1  0
 16 36  1  0
 16 17  2  0
 17 36  1  0
 17 18  1  0
 18 19  1  0
 18 88  1  0
 19 20  1  0
 19 31  1  0
 19 60  1  6
 20 21  1  0
 20 61  1  0
 20 62  1  0
 22 21  1  6
 21 63  1  0
 21 64  1  0
 22 24  1  0
 22 23  1  0
 24 23  1  1
 23 65  1  0
 23 66  1  0
 24 25  1  0
 25 26  1  0
 25 67  1  0
 25 68  1  0
 26 27  1  0
 26 69  1  0
 26 70  1  0
 27 28  1  1
 27 29  1  0
 28 71  1  0
 28 72  1  0
 28 73  1  0
 29 30  1  0
 29 74  1  1
 30 75  1  0
 30 76  1  0
 31 32  1  0
 31 77  1  0
 31 78  1  0
 32 33  1  0
 32 34  1  0
 32 79  1  6
 33 80  1  0
 34 35  1  0
 34 81  1  0
 34 82  1  0
 35 36  1  0
 35 83  1  0
 35 84  1  0
 36 37  1  1
 37 85  1  0
 37 86  1  0
 37 87  1  0
M  END
>  <i_m_ct_stereo_status>  (198) 
1

>  <s_m_source_file>  (198) 
/var/tmp/pbs.5076255.sched01/tmp9vbryffn/46pprzbbw9.sdf

>  <i_m_source_file_index>  (198) 
42

>  <i_lp_mmshare_version>  (198) 
48012

>  <i_f3d_flags>  (198) 
0

>  <s_epik_input>  (198) 
W0NIM11DKFtDSDNdKShbQ0gyXTEpW0NIMl1bQ0gyXVtDQEBdKFtDSDNdKShbQ0gyXVtDSDJdMilbQ0BASF0xW0NAQF0oW0NIM10pKFtDSDJdW0NIMl0zKVtDQEBdMihbQ0gzXSlDKFtDQEBdMyhbQ0BdNDU2KVtDSDJdNik9W0NIXVtDSF09QzRbQ0hdNy9DPThDNyhbQ0gzXSlbQ0gyXVtDSDJdW0NASF0oW09IXSlbQ0gyXVtDQEBIXShcTjgpW0NIMl1bQ0gyXTU=

>  <s_epik_cmdline>  (198) 
J2VwaWtfcHl0aG9uJywgJy1waHQnLCAnMi4wJywgJy1waCcsICc3LjAnLCAnLXRuJywgJzgnLCAnLW1hJywgJzIwMCcsICctaW1hZScsICc8aW5maWxlLm1hZT4nLCAnLW9tYWUnLCAnPG91dGZpbGUubWFlPic=

>  <r_lp_tautomer_probability>  (198) 
1

>  <r_epik_Ionization_Penalty>  (198) 
3.58598e-05

>  <r_epik_Ionization_Penalty_Charging>  (198) 
0

>  <r_epik_Ionization_Penalty_Neutral>  (198) 
3.58598e-05

>  <r_epik_State_Penalty>  (198) 
-0

>  <r_epik_Charging_Adjusted_Penalty>  (198) 
0

>  <i_epik_Tot_Q>  (198) 
0

>  <i_epik_Tot_abs_Q>  (198) 
0

>  <s_lp_Force_Field>  (198) 
OPLS3e

>  <r_lp_Energy>  (198) 
122.457

>  <b_lp_Chiralities_Consistent>  (198) 
1

>  <s_lp_Variant>  (198) 
53:0-2

>  <s_i_glide_gridfile>  (198) 
pfpi4k_grid

>  <i_i_glide_lignum>  (198) 
42

>  <i_i_glide_rotatable_bonds>  (198) 
1

>  <r_i_docking_score>  (198) 
-2.69707

>  <r_i_glide_ligand_efficiency>  (198) 
-0.0728938

>  <r_i_glide_ligand_efficiency_sa>  (198) 
-0.242898

>  <r_i_glide_ligand_efficiency_ln>  (198) 
-0.584931

>  <r_i_glide_gscore>  (198) 
-2.69707

>  <r_i_glide_lipo>  (198) 
-0.0983935

>  <r_i_glide_hbond>  (198) 
-0.32

>  <r_i_glide_metal>  (198) 
-0

>  <r_i_glide_rewards>  (198) 
0

>  <r_i_glide_evdw>  (198) 
-34.5667

>  <r_i_glide_ecoul>  (198) 
-3.63968

>  <r_i_glide_erotb>  (198) 
0

>  <r_i_glide_esite>  (198) 
-0.00438646

>  <r_i_glide_emodel>  (198) 
-42.434

>  <r_i_glide_energy>  (198) 
-38.2064

>  <r_i_glide_einternal>  (198) 
0.441558

>  <r_i_glide_intrahb_reward>  (198) 
-0

>  <i_i_glide_confnum>  (198) 
1

>  <i_i_glide_posenum>  (198) 
31

>  <r_i_glide_eff_state_penalty>  (198) 
0

>  <ligand_id>  (198) 
53

>  <original_smiles>  (198) 
CC1(C)CCC2(C)CCC3(C)C4=CC=C5C6C7=NC(CCC58CC48CCC3(C)C2C1)CC(O)CCC76C

>  <smiles>  (198) 
[H]OC1([H])C([H])([H])C([H])([H])C2(C([H])([H])[H])C3=C2N([H])C([H])(C([H])([H])C([H])([H])C24C3=C([H])C([H])=C3C2(C([H])([H])C([H])([H])C2(C([H])([H])[H])C5([H])C([H])([H])C(C([H])([H])[H])(C([H])([H])[H])C([H])([H])C([H])([H])C5(C([H])([H])[H])C([H])([H])C([H])([H])C32C([H])([H])[H])C4([H])[H])C1([H])[H]

$$$$
53:1:1
     RDKit          3D

 88 95  0  0  1  0  0  0  0  0999 V2000
    3.2533   -9.8945    5.0752 C   0  0  0  0  0  0  0  0  0  0  0  0
    2.1678   -9.3675    4.1050 C   0  0  0  0  0  0  0  0  0  0  0  0
    2.2851  -10.1736    2.7970 C   0  0  0  0  0  0  0  0  0  0  0  0
    0.7613   -9.5829    4.7017 C   0  0  0  0  0  0  0  0  0  0  0  0
    0.4555   -8.6498    5.8855 C   0  0  0  0  0  0  0  0  0  0  0  0
    0.6141   -7.1486    5.5279 C   0  0  1  0  0  0  0  0  0  0  0  0
   -0.5343   -6.8030    4.5414 C   0  0  0  0  0  0  0  0  0  0  0  0
    0.4426   -6.3012    6.8036 C   0  0  0  0  0  0  0  0  0  0  0  0
    0.7833   -4.8090    6.5943 C   0  0  0  0  0  0  0  0  0  0  0  0
    2.2348   -4.5370    6.0986 C   0  0  2  0  0  0  0  0  0  0  0  0
    3.1603   -4.9605    7.2900 C   0  0  0  0  0  0  0  0  0  0  0  0
    2.3943   -2.9969    5.8297 C   0  0  0  0  0  0  0  0  0  0  0  0
    2.5706   -2.1066    6.8226 C   0  0  0  0  0  0  0  0  0  0  0  0
    2.7058   -0.6598    6.6204 C   0  0  0  0  0  0  0  0  0  0  0  0
    2.6959   -0.0808    5.4208 C   0  0  0  0  0  0  0  0  0  0  0  0
    3.0997    1.1999    5.3555 C   0  0  0  0  0  0  0  0  0  0  0  0
    3.4533    2.1338    4.5483 C   0  0  0  0  0  0  0  0  0  0  0  0
    2.9416    2.5362    3.3762 N   0  0  0  0  0  0  0  0  0  0  0  0
    1.6542    2.2858    2.7854 C   0  0  1  0  0  0  0  0  0  0  0  0
    1.6270    0.8187    2.3046 C   0  0  0  0  0  0  0  0  0  0  0  0
    1.2504   -0.2802    3.3379 C   0  0  0  0  0  0  0  0  0  0  0  0
    2.3463   -0.9187    4.2175 C   0  0  1  0  0  0  0  0  0  0  0  0
    3.4077   -1.8287    3.6816 C   0  0  0  0  0  0  0  0  0  0  0  0
    2.2586   -2.4672    4.4218 C   0  0  1  0  0  0  0  0  0  0  0  0
    1.3774   -3.3816    3.6039 C   0  0  0  0  0  0  0  0  0  0  0  0
    1.8772   -4.8269    3.5280 C   0  0  0  0  0  0  0  0  0  0  0  0
    2.5358   -5.4162    4.8126 C   0  0  1  0  0  0  0  0  0  0  0  0
    4.0784   -5.4035    4.5859 C   0  0  0  0  0  0  0  0  0  0  0  0
    2.0691   -6.9165    4.9857 C   0  0  2  0  0  0  0  0  0  0  0  0
    2.3835   -7.8643    3.7936 C   0  0  0  0  0  0  0  0  0  0  0  0
    0.4905    2.7569    3.6829 C   0  0  0  0  0  0  0  0  0  0  0  0
    0.5247    4.1961    4.2616 C   0  0  1  0  0  0  0  0  0  0  0  0
   -0.7336    4.3985    4.8821 O   0  0  0  0  0  0  0  0  0  0  0  0
    1.6251    4.5334    5.3150 C   0  0  0  0  0  0  0  0  0  0  0  0
    2.0068    3.4350    6.3553 C   0  0  0  0  0  0  0  0  0  0  0  0
    3.2401    2.5623    6.0273 C   0  0  1  0  0  0  0  0  0  0  0  0
    4.5255    2.9943    6.6699 C   0  0  0  0  0  0  0  0  0  0  0  0
    3.1482  -10.9685    5.2474 H   0  0  0  0  0  0  0  0  0  0  0  0
    3.2000   -9.4208    6.0537 H   0  0  0  0  0  0  0  0  0  0  0  0
    4.2562   -9.7117    4.6868 H   0  0  0  0  0  0  0  0  0  0  0  0
    1.5376   -9.8577    2.0694 H   0  0  0  0  0  0  0  0  0  0  0  0
    2.1371  -11.2409    2.9655 H   0  0  0  0  0  0  0  0  0  0  0  0
    3.2625  -10.0485    2.3320 H   0  0  0  0  0  0  0  0  0  0  0  0
    0.0102   -9.4375    3.9257 H   0  0  0  0  0  0  0  0  0  0  0  0
    0.6426  -10.6188    5.0185 H   0  0  0  0  0  0  0  0  0  0  0  0
   -0.5523   -8.8616    6.2451 H   0  0  0  0  0  0  0  0  0  0  0  0
    1.1172   -8.9070    6.7107 H   0  0  0  0  0  0  0  0  0  0  0  0
   -0.6587   -5.7325    4.4145 H   0  0  0  0  0  0  0  0  0  0  0  0
   -1.4938   -7.1844    4.8946 H   0  0  0  0  0  0  0  0  0  0  0  0
   -0.3791   -7.2317    3.5536 H   0  0  0  0  0  0  0  0  0  0  0  0
   -0.5796   -6.3841    7.1671 H   0  0  0  0  0  0  0  0  0  0  0  0
    1.0657   -6.7164    7.5995 H   0  0  0  0  0  0  0  0  0  0  0  0
    0.0565   -4.3629    5.9218 H   0  0  0  0  0  0  0  0  0  0  0  0
    0.6210   -4.2988    7.5438 H   0  0  0  0  0  0  0  0  0  0  0  0
    3.2486   -6.0386    7.4052 H   0  0  0  0  0  0  0  0  0  0  0  0
    2.7942   -4.6062    8.2536 H   0  0  0  0  0  0  0  0  0  0  0  0
    4.1757   -4.5796    7.1789 H   0  0  0  0  0  0  0  0  0  0  0  0
    2.6634   -2.4583    7.8316 H   0  0  0  0  0  0  0  0  0  0  0  0
    3.0480   -0.0910    7.4727 H   0  0  0  0  0  0  0  0  0  0  0  0
    1.6426    2.9053    1.8846 H   0  0  0  0  0  0  0  0  0  0  0  0
    0.8878    0.7778    1.4983 H   0  0  0  0  0  0  0  0  0  0  0  0
    2.5752    0.5657    1.8190 H   0  0  0  0  0  0  0  0  0  0  0  0
    0.4279    0.0350    3.9757 H   0  0  0  0  0  0  0  0  0  0  0  0
    0.8057   -1.0462    2.7260 H   0  0  0  0  0  0  0  0  0  0  0  0
    3.4141   -1.9531    2.6010 H   0  0  0  0  0  0  0  0  0  0  0  0
    4.3823   -1.8222    4.1664 H   0  0  0  0  0  0  0  0  0  0  0  0
    0.3714   -3.3548    4.0156 H   0  0  0  0  0  0  0  0  0  0  0  0
    1.3248   -3.0233    2.5790 H   0  0  0  0  0  0  0  0  0  0  0  0
    1.0756   -5.4570    3.1486 H   0  0  0  0  0  0  0  0  0  0  0  0
    2.6003   -4.8733    2.7201 H   0  0  0  0  0  0  0  0  0  0  0  0
    4.3724   -5.8045    3.6167 H   0  0  0  0  0  0  0  0  0  0  0  0
    4.6124   -5.9996    5.3272 H   0  0  0  0  0  0  0  0  0  0  0  0
    4.4898   -4.3958    4.6320 H   0  0  0  0  0  0  0  0  0  0  0  0
    2.7143   -7.2952    5.7679 H   0  0  0  0  0  0  0  0  0  0  0  0
    3.4077   -7.7319    3.4460 H   0  0  0  0  0  0  0  0  0  0  0  0
    1.7468   -7.6100    2.9491 H   0  0  0  0  0  0  0  0  0  0  0  0
   -0.4121    2.6677    3.0741 H   0  0  0  0  0  0  0  0  0  0  0  0
    0.3851    2.0724    4.5146 H   0  0  0  0  0  0  0  0  0  0  0  0
    0.5852    4.9280    3.4518 H   0  0  0  0  0  0  0  0  0  0  0  0
   -0.5977    4.9148    5.6633 H   0  0  0  0  0  0  0  0  0  0  0  0
    2.5250    4.8806    4.8090 H   0  0  0  0  0  0  0  0  0  0  0  0
    1.2832    5.4171    5.8637 H   0  0  0  0  0  0  0  0  0  0  0  0
    2.2199    3.9430    7.2985 H   0  0  0  0  0  0  0  0  0  0  0  0
    1.1456    2.8040    6.5713 H   0  0  0  0  0  0  0  0  0  0  0  0
    5.3370    2.3812    6.2755 H   0  0  0  0  0  0  0  0  0  0  0  0
    4.4733    2.8719    7.7511 H   0  0  0  0  0  0  0  0  0  0  0  0
    4.7403    4.0348    6.4224 H   0  0  0  0  0  0  0  0  0  0  0  0
    3.6323    2.6062    2.6339 H   0  0  0  0  0  0  0  0  0  0  0  0
  1  2  1  0
  1 38  1  0
  1 39  1  0
  1 40  1  0
  2 30  1  0
  2  3  1  0
  2  4  1  0
  3 41  1  0
  3 42  1  0
  3 43  1  0
  4  5  1  0
  4 44  1  0
  4 45  1  0
  5  6  1  0
  5 46  1  0
  5 47  1  0
  6 29  1  0
  6  7  1  6
  6  8  1  0
  7 48  1  0
  7 49  1  0
  7 50  1  0
  8  9  1  0
  8 51  1  0
  8 52  1  0
  9 10  1  0
  9 53  1  0
  9 54  1  0
 10 27  1  0
 10 11  1  1
 10 12  1  0
 11 55  1  0
 11 56  1  0
 11 57  1  0
 12 24  1  0
 12 13  2  0
 13 14  1  0
 13 58  1  0
 14 15  2  0
 14 59  1  0
 15 22  1  0
 15 16  1  0
 16 36  1  0
 16 17  2  0
 17 36  1  0
 17 18  1  0
 18 19  1  0
 18 88  1  0
 19 20  1  0
 19 31  1  0
 19 60  1  6
 20 21  1  0
 20 61  1  0
 20 62  1  0
 22 21  1  6
 21 63  1  0
 21 64  1  0
 22 24  1  0
 22 23  1  0
 24 23  1  6
 23 65  1  0
 23 66  1  0
 24 25  1  0
 25 26  1  0
 25 67  1  0
 25 68  1  0
 26 27  1  0
 26 69  1  0
 26 70  1  0
 27 28  1  6
 27 29  1  0
 28 71  1  0
 28 72  1  0
 28 73  1  0
 29 30  1  0
 29 74  1  1
 30 75  1  0
 30 76  1  0
 31 32  1  0
 31 77  1  0
 31 78  1  0
 32 33  1  0
 32 34  1  0
 32 79  1  6
 33 80  1  0
 34 35  1  0
 34 81  1  0
 34 82  1  0
 35 36  1  0
 35 83  1  0
 35 84  1  0
 36 37  1  1
 37 85  1  0
 37 86  1  0
 37 87  1  0
M  END
>  <i_m_ct_stereo_status>  (199) 
1

>  <s_m_source_file>  (199) 
/var/tmp/pbs.5076255.sched01/tmp9vbryffn/46pprzbbw9.sdf

>  <i_m_source_file_index>  (199) 
42

>  <i_lp_mmshare_version>  (199) 
48012

>  <i_f3d_flags>  (199) 
0

>  <s_epik_input>  (199) 
W0NIM11DKFtDSDNdKShbQ0gyXTEpW0NIMl1bQ0gyXVtDQEBdKFtDSDNdKShbQ0gyXVtDSDJdMilbQ0BASF0xW0NAQF0oW0NIM10pKFtDSDJdW0NIMl0zKVtDQEBdMihbQ0gzXSlDKFtDQEBdMyhbQ0BdNDU2KVtDSDJdNik9W0NIXVtDSF09QzRbQ0hdNy9DPThDNyhbQ0gzXSlbQ0gyXVtDSDJdW0NASF0oW09IXSlbQ0gyXVtDQEBIXShcTjgpW0NIMl1bQ0gyXTU=

>  <s_epik_cmdline>  (199) 
J2VwaWtfcHl0aG9uJywgJy1waHQnLCAnMi4wJywgJy1waCcsICc3LjAnLCAnLXRuJywgJzgnLCAnLW1hJywgJzIwMCcsICctaW1hZScsICc8aW5maWxlLm1hZT4nLCAnLW9tYWUnLCAnPG91dGZpbGUubWFlPic=

>  <r_lp_tautomer_probability>  (199) 
1

>  <r_epik_Ionization_Penalty>  (199) 
3.58598e-05

>  <r_epik_Ionization_Penalty_Charging>  (199) 
0

>  <r_epik_Ionization_Penalty_Neutral>  (199) 
3.58598e-05

>  <r_epik_State_Penalty>  (199) 
-0

>  <r_epik_Charging_Adjusted_Penalty>  (199) 
0

>  <i_epik_Tot_Q>  (199) 
0

>  <i_epik_Tot_abs_Q>  (199) 
0

>  <s_lp_Force_Field>  (199) 
OPLS3e

>  <r_lp_Energy>  (199) 
122.457

>  <b_lp_Chiralities_Consistent>  (199) 
1

>  <s_lp_Variant>  (199) 
53:0-2

>  <s_i_glide_gridfile>  (199) 
pfpi4k_grid

>  <i_i_glide_lignum>  (199) 
42

>  <i_i_glide_rotatable_bonds>  (199) 
1

>  <r_i_docking_score>  (199) 
-2.35941

>  <r_i_glide_ligand_efficiency>  (199) 
-0.0637677

>  <r_i_glide_ligand_efficiency_sa>  (199) 
-0.212488

>  <r_i_glide_ligand_efficiency_ln>  (199) 
-0.5117

>  <r_i_glide_gscore>  (199) 
-2.35941

>  <r_i_glide_lipo>  (199) 
-0.0665111

>  <r_i_glide_hbond>  (199) 
-0.32

>  <r_i_glide_metal>  (199) 
-0

>  <r_i_glide_rewards>  (199) 
0

>  <r_i_glide_evdw>  (199) 
-27.3485

>  <r_i_glide_ecoul>  (199) 
-3.84434

>  <r_i_glide_erotb>  (199) 
0

>  <r_i_glide_esite>  (199) 
-0.0288192

>  <r_i_glide_emodel>  (199) 
-33.8816

>  <r_i_glide_energy>  (199) 
-31.1929

>  <r_i_glide_einternal>  (199) 
1.22

>  <r_i_glide_intrahb_reward>  (199) 
-0

>  <i_i_glide_confnum>  (199) 
1

>  <i_i_glide_posenum>  (199) 
6

>  <r_i_glide_eff_state_penalty>  (199) 
0

>  <ligand_id>  (199) 
53

>  <original_smiles>  (199) 
CC1(C)CCC2(C)CCC3(C)C4=CC=C5C6C7=NC(CCC58CC48CCC3(C)C2C1)CC(O)CCC76C

>  <smiles>  (199) 
[H]OC1([H])C([H])([H])C([H])([H])C2(C([H])([H])[H])C3=C2N([H])C([H])(C([H])([H])C([H])([H])C24C3=C([H])C([H])=C3C2(C([H])([H])C([H])([H])C2(C([H])([H])[H])C5([H])C([H])([H])C(C([H])([H])[H])(C([H])([H])[H])C([H])([H])C([H])([H])C5(C([H])([H])[H])C([H])([H])C([H])([H])C32C([H])([H])[H])C4([H])[H])C1([H])[H]

$$$$
53:1:2
     RDKit          3D

 88 95  0  0  1  0  0  0  0  0999 V2000
    1.4327   -9.0054    2.2816 C   0  0  0  0  0  0  0  0  0  0  0  0
    0.3057   -8.2369    3.0143 C   0  0  0  0  0  0  0  0  0  0  0  0
   -0.9723   -8.3171    2.1564 C   0  0  0  0  0  0  0  0  0  0  0  0
    0.0226   -8.8812    4.3890 C   0  0  0  0  0  0  0  0  0  0  0  0
    1.1490   -8.6487    5.4122 C   0  0  0  0  0  0  0  0  0  0  0  0
    1.4613   -7.1436    5.6302 C   0  0  1  0  0  0  0  0  0  0  0  0
    0.2334   -6.5297    6.3612 C   0  0  0  0  0  0  0  0  0  0  0  0
    2.6931   -7.0161    6.5459 C   0  0  0  0  0  0  0  0  0  0  0  0
    3.2159   -5.5673    6.6625 C   0  0  0  0  0  0  0  0  0  0  0  0
    3.6192   -4.9166    5.3079 C   0  0  2  0  0  0  0  0  0  0  0  0
    4.8791   -5.7120    4.8223 C   0  0  0  0  0  0  0  0  0  0  0  0
    4.0219   -3.4212    5.5694 C   0  0  0  0  0  0  0  0  0  0  0  0
    5.2155   -3.0716    6.0930 C   0  0  0  0  0  0  0  0  0  0  0  0
    5.6287   -1.7048    6.3762 C   0  0  0  0  0  0  0  0  0  0  0  0
    4.8647   -0.6338    6.1150 C   0  0  0  0  0  0  0  0  0  0  0  0
    5.4454    0.5793    6.1676 C   0  0  0  0  0  0  0  0  0  0  0  0
    5.2987    1.8124    5.8710 C   0  0  0  0  0  0  0  0  0  0  0  0
    4.2553    2.6817    5.9743 N   0  0  0  0  0  0  0  0  0  0  0  0
    3.0760    2.5375    6.7734 C   0  0  1  0  0  0  0  0  0  0  0  0
    2.1607    1.4606    6.1362 C   0  0  0  0  0  0  0  0  0  0  0  0
    2.4173   -0.0303    6.4984 C   0  0  0  0  0  0  0  0  0  0  0  0
    3.4321   -0.8628    5.6823 C   0  0  1  0  0  0  0  0  0  0  0  0
    3.1994   -1.2639    4.2586 C   0  0  0  0  0  0  0  0  0  0  0  0
    3.0096   -2.3231    5.3223 C   0  0  1  0  0  0  0  0  0  0  0  0
    1.5999   -2.8545    5.4753 C   0  0  0  0  0  0  0  0  0  0  0  0
    1.2857   -4.0184    4.5291 C   0  0  0  0  0  0  0  0  0  0  0  0
    2.4289   -5.0487    4.2641 C   0  0  1  0  0  0  0  0  0  0  0  0
    3.0039   -4.7337    2.8499 C   0  0  0  0  0  0  0  0  0  0  0  0
    1.8236   -6.5089    4.2394 C   0  0  2  0  0  0  0  0  0  0  0  0
    0.6841   -6.7465    3.2071 C   0  0  0  0  0  0  0  0  0  0  0  0
    3.3813    2.3811    8.2794 C   0  0  0  0  0  0  0  0  0  0  0  0
    4.3677    3.3798    8.9390 C   0  0  1  0  0  0  0  0  0  0  0  0
    4.3195    3.1113   10.3279 O   0  0  0  0  0  0  0  0  0  0  0  0
    5.8660    3.3331    8.5111 C   0  0  0  0  0  0  0  0  0  0  0  0
    6.5021    1.9372    8.2218 C   0  0  0  0  0  0  0  0  0  0  0  0
    6.5251    1.4856    6.7419 C   0  0  1  0  0  0  0  0  0  0  0  0
    7.8251    1.7260    6.0194 C   0  0  0  0  0  0  0  0  0  0  0  0
    1.1387  -10.0403    2.0826 H   0  0  0  0  0  0  0  0  0  0  0  0
    2.3564   -9.0490    2.8570 H   0  0  0  0  0  0  0  0  0  0  0  0
    1.6707   -8.5417    1.3217 H   0  0  0  0  0  0  0  0  0  0  0  0
   -1.8102   -7.8067    2.6296 H   0  0  0  0  0  0  0  0  0  0  0  0
   -1.2754   -9.3526    1.9966 H   0  0  0  0  0  0  0  0  0  0  0  0
   -0.8179   -7.8681    1.1759 H   0  0  0  0  0  0  0  0  0  0  0  0
   -0.9144   -8.4973    4.7894 H   0  0  0  0  0  0  0  0  0  0  0  0
   -0.1397   -9.9515    4.2693 H   0  0  0  0  0  0  0  0  0  0  0  0
    0.8795   -9.1290    6.3530 H   0  0  0  0  0  0  0  0  0  0  0  0
    2.0430   -9.1693    5.0747 H   0  0  0  0  0  0  0  0  0  0  0  0
    0.4342   -5.5477    6.7822 H   0  0  0  0  0  0  0  0  0  0  0  0
   -0.0755   -7.1584    7.1983 H   0  0  0  0  0  0  0  0  0  0  0  0
   -0.6307   -6.4316    5.7065 H   0  0  0  0  0  0  0  0  0  0  0  0
    2.4507   -7.3973    7.5389 H   0  0  0  0  0  0  0  0  0  0  0  0
    3.4893   -7.6682    6.1814 H   0  0  0  0  0  0  0  0  0  0  0  0
    2.4792   -4.9578    7.1795 H   0  0  0  0  0  0  0  0  0  0  0  0
    4.0759   -5.5774    7.3344 H   0  0  0  0  0  0  0  0  0  0  0  0
    4.6374   -6.7005    4.4382 H   0  0  0  0  0  0  0  0  0  0  0  0
    5.5949   -5.8929    5.6252 H   0  0  0  0  0  0  0  0  0  0  0  0
    5.4185   -5.1946    4.0284 H   0  0  0  0  0  0  0  0  0  0  0  0
    5.9477   -3.8372    6.2852 H   0  0  0  0  0  0  0  0  0  0  0  0
    6.6718   -1.5406    6.5953 H   0  0  0  0  0  0  0  0  0  0  0  0
    2.5558    3.4934    6.6485 H   0  0  0  0  0  0  0  0  0  0  0  0
    1.1408    1.7008    6.4544 H   0  0  0  0  0  0  0  0  0  0  0  0
    2.1476    1.5826    5.0467 H   0  0  0  0  0  0  0  0  0  0  0  0
    2.6404   -0.1512    7.5560 H   0  0  0  0  0  0  0  0  0  0  0  0
    1.4432   -0.4770    6.3987 H   0  0  0  0  0  0  0  0  0  0  0  0
    2.2991   -0.8753    3.7900 H   0  0  0  0  0  0  0  0  0  0  0  0
    4.0638   -1.3573    3.6018 H   0  0  0  0  0  0  0  0  0  0  0  0
    1.4532   -3.1558    6.5102 H   0  0  0  0  0  0  0  0  0  0  0  0
    0.8732   -2.0775    5.2500 H   0  0  0  0  0  0  0  0  0  0  0  0
    0.3745   -4.5016    4.8788 H   0  0  0  0  0  0  0  0  0  0  0  0
    0.9678   -3.5977    3.5828 H   0  0  0  0  0  0  0  0  0  0  0  0
    2.2324   -4.5987    2.0925 H   0  0  0  0  0  0  0  0  0  0  0  0
    3.6496   -5.5305    2.4774 H   0  0  0  0  0  0  0  0  0  0  0  0
    3.5945   -3.8184    2.8438 H   0  0  0  0  0  0  0  0  0  0  0  0
    2.6329   -7.1196    3.8629 H   0  0  0  0  0  0  0  0  0  0  0  0
    0.9541   -6.3395    2.2323 H   0  0  0  0  0  0  0  0  0  0  0  0
   -0.2074   -6.2119    3.5220 H   0  0  0  0  0  0  0  0  0  0  0  0
    2.4234    2.4557    8.7955 H   0  0  0  0  0  0  0  0  0  0  0  0
    3.7625    1.3835    8.4604 H   0  0  0  0  0  0  0  0  0  0  0  0
    4.0066    4.4037    8.8185 H   0  0  0  0  0  0  0  0  0  0  0  0
    3.4245    3.2066   10.6252 H   0  0  0  0  0  0  0  0  0  0  0  0
    6.0278    3.9898    7.6563 H   0  0  0  0  0  0  0  0  0  0  0  0
    6.4374    3.8053    9.3158 H   0  0  0  0  0  0  0  0  0  0  0  0
    7.5398    1.9769    8.5653 H   0  0  0  0  0  0  0  0  0  0  0  0
    6.0334    1.1748    8.8437 H   0  0  0  0  0  0  0  0  0  0  0  0
    7.7015    1.4709    4.9693 H   0  0  0  0  0  0  0  0  0  0  0  0
    8.6269    1.1198    6.4394 H   0  0  0  0  0  0  0  0  0  0  0  0
    8.0984    2.7824    6.0773 H   0  0  0  0  0  0  0  0  0  0  0  0
    3.9968    3.1125    5.1049 H   0  0  0  0  0  0  0  0  0  0  0  0
  1  2  1  0
  1 38  1  0
  1 39  1  0
  1 40  1  0
  2 30  1  0
  2  3  1  0
  2  4  1  0
  3 41  1  0
  3 42  1  0
  3 43  1  0
  4  5  1  0
  4 44  1  0
  4 45  1  0
  5  6  1  0
  5 46  1  0
  5 47  1  0
  6 29  1  0
  6  7  1  1
  6  8  1  0
  7 48  1  0
  7 49  1  0
  7 50  1  0
  8  9  1  0
  8 51  1  0
  8 52  1  0
  9 10  1  0
  9 53  1  0
  9 54  1  0
 10 27  1  0
 10 11  1  6
 10 12  1  0
 11 55  1  0
 11 56  1  0
 11 57  1  0
 12 24  1  0
 12 13  2  0
 13 14  1  0
 13 58  1  0
 14 15  2  0
 14 59  1  0
 15 22  1  0
 15 16  1  0
 16 36  1  0
 16 17  2  0
 17 36  1  0
 17 18  1  0
 18 19  1  0
 18 88  1  0
 19 20  1  0
 19 31  1  0
 19 60  1  1
 20 21  1  0
 20 61  1  0
 20 62  1  0
 22 21  1  1
 21 63  1  0
 21 64  1  0
 22 24  1  0
 22 23  1  0
 24 23  1  6
 23 65  1  0
 23 66  1  0
 24 25  1  0
 25 26  1  0
 25 67  1  0
 25 68  1  0
 26 27  1  0
 26 69  1  0
 26 70  1  0
 27 28  1  6
 27 29  1  0
 28 71  1  0
 28 72  1  0
 28 73  1  0
 29 30  1  0
 29 74  1  6
 30 75  1  0
 30 76  1  0
 31 32  1  0
 31 77  1  0
 31 78  1  0
 32 33  1  0
 32 34  1  0
 32 79  1  1
 33 80  1  0
 34 35  1  0
 34 81  1  0
 34 82  1  0
 35 36  1  0
 35 83  1  0
 35 84  1  0
 36 37  1  6
 37 85  1  0
 37 86  1  0
 37 87  1  0
M  END
>  <i_m_ct_stereo_status>  (200) 
1

>  <s_m_source_file>  (200) 
/var/tmp/pbs.5076255.sched01/tmp9vbryffn/46pprzbbw9.sdf

>  <i_m_source_file_index>  (200) 
42

>  <i_lp_mmshare_version>  (200) 
48012

>  <i_f3d_flags>  (200) 
0

>  <s_epik_input>  (200) 
W0NIM11DKFtDSDNdKShbQ0gyXTEpW0NIMl1bQ0gyXVtDQEBdKFtDSDNdKShbQ0gyXVtDSDJdMilbQ0BASF0xW0NAQF0oW0NIM10pKFtDSDJdW0NIMl0zKVtDQEBdMihbQ0gzXSlDKFtDQEBdMyhbQ0BdNDU2KVtDSDJdNik9W0NIXVtDSF09QzRbQ0hdNy9DPThDNyhbQ0gzXSlbQ0gyXVtDSDJdW0NASF0oW09IXSlbQ0gyXVtDQEBIXShcTjgpW0NIMl1bQ0gyXTU=

>  <s_epik_cmdline>  (200) 
J2VwaWtfcHl0aG9uJywgJy1waHQnLCAnMi4wJywgJy1waCcsICc3LjAnLCAnLXRuJywgJzgnLCAnLW1hJywgJzIwMCcsICctaW1hZScsICc8aW5maWxlLm1hZT4nLCAnLW9tYWUnLCAnPG91dGZpbGUubWFlPic=

>  <r_lp_tautomer_probability>  (200) 
1

>  <r_epik_Ionization_Penalty>  (200) 
3.58598e-05

>  <r_epik_Ionization_Penalty_Charging>  (200) 
0

>  <r_epik_Ionization_Penalty_Neutral>  (200) 
3.58598e-05

>  <r_epik_State_Penalty>  (200) 
-0

>  <r_epik_Charging_Adjusted_Penalty>  (200) 
0

>  <i_epik_Tot_Q>  (200) 
0

>  <i_epik_Tot_abs_Q>  (200) 
0

>  <s_lp_Force_Field>  (200) 
OPLS3e

>  <r_lp_Energy>  (200) 
122.457

>  <b_lp_Chiralities_Consistent>  (200) 
1

>  <s_lp_Variant>  (200) 
53:0-2

>  <s_i_glide_gridfile>  (200) 
pfpi4k_grid

>  <i_i_glide_lignum>  (200) 
42

>  <i_i_glide_rotatable_bonds>  (200) 
1

>  <r_i_docking_score>  (200) 
-1.47894

>  <r_i_glide_ligand_efficiency>  (200) 
-0.0399715

>  <r_i_glide_ligand_efficiency_sa>  (200) 
-0.133194

>  <r_i_glide_ligand_efficiency_ln>  (200) 
-0.320748

>  <r_i_glide_gscore>  (200) 
-1.47894

>  <r_i_glide_lipo>  (200) 
-0.19708

>  <r_i_glide_hbond>  (200) 
0

>  <r_i_glide_metal>  (200) 
-0

>  <r_i_glide_rewards>  (200) 
0

>  <r_i_glide_evdw>  (200) 
-24.2585

>  <r_i_glide_ecoul>  (200) 
-0.459603

>  <r_i_glide_erotb>  (200) 
0

>  <r_i_glide_esite>  (200) 
0

>  <r_i_glide_emodel>  (200) 
-25.8467

>  <r_i_glide_energy>  (200) 
-24.7181

>  <r_i_glide_einternal>  (200) 
0.328737

>  <r_i_glide_intrahb_reward>  (200) 
-0

>  <i_i_glide_confnum>  (200) 
1

>  <i_i_glide_posenum>  (200) 
28

>  <r_i_glide_eff_state_penalty>  (200) 
0

>  <ligand_id>  (200) 
53

>  <original_smiles>  (200) 
CC1(C)CCC2(C)CCC3(C)C4=CC=C5C6C7=NC(CCC58CC48CCC3(C)C2C1)CC(O)CCC76C

>  <smiles>  (200) 
[H]OC1([H])C([H])([H])C([H])([H])C2(C([H])([H])[H])C3=C2N([H])C([H])(C([H])([H])C([H])([H])C24C3=C([H])C([H])=C3C2(C([H])([H])C([H])([H])C2(C([H])([H])[H])C5([H])C([H])([H])C(C([H])([H])[H])(C([H])([H])[H])C([H])([H])C([H])([H])C5(C([H])([H])[H])C([H])([H])C([H])([H])C32C([H])([H])[H])C4([H])[H])C1([H])[H]

$$$$
54:0:0
     RDKit          3D

 28 30  0  0  1  0  0  0  0  0999 V2000
   -0.0922   -8.1409    2.0776 C   0  0  0  0  0  0  0  0  0  0  0  0
    0.9187   -7.1736    1.5626 C   0  0  0  0  0  0  0  0  0  0  0  0
    0.6149   -6.2876    0.6232 N   0  0  0  0  0  0  0  0  0  0  0  0
    1.8214   -5.5982    0.4293 O   0  0  0  0  0  0  0  0  0  0  0  0
    2.6999   -6.1238    1.3177 C   0  0  0  0  0  0  0  0  0  0  0  0
    4.0802   -5.5566    1.4144 C   0  0  2  0  0  0  0  0  0  0  0  0
    4.1209   -4.0672    1.7727 C   0  0  0  0  0  0  0  0  0  0  0  0
    5.5240   -3.6023    1.3590 C   0  0  2  0  0  0  0  0  0  0  0  0
    5.6066   -2.1645    0.8178 C   0  0  0  0  0  0  0  0  0  0  0  0
    5.6598   -2.3659   -0.6875 C   0  0  0  0  0  0  0  0  0  0  0  0
    5.6056   -1.4451   -1.5004 O   0  0  0  0  0  0  0  0  0  0  0  0
    5.8214   -3.6473   -0.9911 N   0  0  0  0  0  0  0  0  0  0  0  0
    5.9157   -4.5098    0.1752 C   0  0  2  0  0  0  0  0  0  0  0  0
    4.9284   -5.6882    0.1449 C   0  0  0  0  0  0  0  0  0  0  0  0
    2.1827   -7.1057    2.0547 N   0  0  0  0  0  0  0  0  0  0  0  0
   -0.9735   -8.1641    1.4398 H   0  0  0  0  0  0  0  0  0  0  0  0
   -0.4135   -7.8524    3.0733 H   0  0  0  0  0  0  0  0  0  0  0  0
    0.3270   -9.1470    2.1197 H   0  0  0  0  0  0  0  0  0  0  0  0
    4.6002   -6.0914    2.2076 H   0  0  0  0  0  0  0  0  0  0  0  0
    3.3687   -3.5317    1.1881 H   0  0  0  0  0  0  0  0  0  0  0  0
    3.9119   -3.8874    2.8291 H   0  0  0  0  0  0  0  0  0  0  0  0
    6.2246   -3.7552    2.1843 H   0  0  0  0  0  0  0  0  0  0  0  0
    4.7783   -1.5312    1.1279 H   0  0  0  0  0  0  0  0  0  0  0  0
    6.5328   -1.6847    1.1326 H   0  0  0  0  0  0  0  0  0  0  0  0
    5.9312   -3.9788   -1.9380 H   0  0  0  0  0  0  0  0  0  0  0  0
    6.9510   -4.8513    0.2739 H   0  0  0  0  0  0  0  0  0  0  0  0
    5.4408   -6.6465    0.1165 H   0  0  0  0  0  0  0  0  0  0  0  0
    4.2967   -5.6332   -0.7399 H   0  0  0  0  0  0  0  0  0  0  0  0
  1  2  1  0
  1 16  1  0
  1 17  1  0
  1 18  1  0
  2 15  1  0
  2  3  2  0
  3  4  1  0
  4  5  1  0
  5  6  1  0
  5 15  2  0
  6 14  1  0
  6  7  1  0
  6 19  1  1
  7  8  1  0
  7 20  1  0
  7 21  1  0
  8 13  1  0
  8  9  1  0
  8 22  1  1
  9 10  1  0
  9 23  1  0
  9 24  1  0
 10 11  2  0
 10 12  1  0
 12 13  1  0
 12 25  1  0
 13 14  1  0
 13 26  1  1
 14 27  1  0
 14 28  1  0
M  END
>  <i_m_ct_stereo_status>  (201) 
1

>  <s_m_source_file>  (201) 
/var/tmp/pbs.5076255.sched01/tmp9vbryffn/46pprzbbw9.sdf

>  <i_m_source_file_index>  (201) 
43

>  <i_lp_mmshare_version>  (201) 
48012

>  <i_f3d_flags>  (201) 
0

>  <s_epik_input>  (201) 
W0NIM11jMW5vYyhuMSlbQ0BIXShbQ0gyXTIpW0NIMl1bQ0BIXShbQ0BIXTIzKVtOSF1DKD1PKVtDSDJdMw==

>  <s_epik_cmdline>  (201) 
J2VwaWtfcHl0aG9uJywgJy1waHQnLCAnMi4wJywgJy1waCcsICc3LjAnLCAnLXRuJywgJzgnLCAnLW1hJywgJzIwMCcsICctaW1hZScsICc8aW5maWxlLm1hZT4nLCAnLW9tYWUnLCAnPG91dGZpbGUubWFlPic=

>  <r_lp_tautomer_probability>  (201) 
1

>  <r_epik_Ionization_Penalty>  (201) 
4.83491e-08

>  <r_epik_Ionization_Penalty_Charging>  (201) 
0

>  <r_epik_Ionization_Penalty_Neutral>  (201) 
4.83491e-08

>  <r_epik_State_Penalty>  (201) 
-0

>  <r_epik_Charging_Adjusted_Penalty>  (201) 
0

>  <i_epik_Tot_Q>  (201) 
0

>  <i_epik_Tot_abs_Q>  (201) 
0

>  <s_lp_Force_Field>  (201) 
OPLS3e

>  <r_lp_Energy>  (201) 
-6.31076

>  <b_lp_Chiralities_Consistent>  (201) 
1

>  <s_lp_Variant>  (201) 
54:0-1

>  <s_i_glide_gridfile>  (201) 
pfpi4k_grid

>  <i_i_glide_lignum>  (201) 
43

>  <i_i_glide_rotatable_bonds>  (201) 
1

>  <r_i_docking_score>  (201) 
-3.87078

>  <r_i_glide_ligand_efficiency>  (201) 
-0.258052

>  <r_i_glide_ligand_efficiency_sa>  (201) 
-0.636411

>  <r_i_glide_ligand_efficiency_ln>  (201) 
-1.04389

>  <r_i_glide_gscore>  (201) 
-3.87078

>  <r_i_glide_lipo>  (201) 
-0.313633

>  <r_i_glide_hbond>  (201) 
-0.0287733

>  <r_i_glide_metal>  (201) 
-0

>  <r_i_glide_rewards>  (201) 
-1.99617

>  <r_i_glide_evdw>  (201) 
-16.3165

>  <r_i_glide_ecoul>  (201) 
-5.53587

>  <r_i_glide_erotb>  (201) 
0.384816

>  <r_i_glide_esite>  (201) 
-0.270817

>  <r_i_glide_emodel>  (201) 
-27.651

>  <r_i_glide_energy>  (201) 
-21.8524

>  <r_i_glide_einternal>  (201) 
0.216016

>  <r_i_glide_intrahb_reward>  (201) 
-0

>  <i_i_glide_confnum>  (201) 
4

>  <i_i_glide_posenum>  (201) 
33

>  <r_i_glide_eff_state_penalty>  (201) 
0

>  <ligand_id>  (201) 
54

>  <original_smiles>  (201) 
Cc1noc(C2CC3CC(=O)NC3C2)n1

>  <smiles>  (201) 
[H]N1C(=O)C([H])([H])C2([H])C([H])([H])C([H])(c3nc(C([H])([H])[H])no3)C([H])([H])C12[H]

$$$$
54:0:1
     RDKit          3D

 28 30  0  0  1  0  0  0  0  0999 V2000
    4.7451   -2.5241   -0.0624 C   0  0  0  0  0  0  0  0  0  0  0  0
    3.6469   -1.9549    0.7642 C   0  0  0  0  0  0  0  0  0  0  0  0
    2.7576   -2.7368    1.3638 N   0  0  0  0  0  0  0  0  0  0  0  0
    1.9288   -1.8228    2.0294 O   0  0  0  0  0  0  0  0  0  0  0  0
    2.4161   -0.5903    1.7315 C   0  0  0  0  0  0  0  0  0  0  0  0
    1.7710    0.6207    2.3339 C   0  0  2  0  0  0  0  0  0  0  0  0
    1.8886    0.6925    3.8576 C   0  0  0  0  0  0  0  0  0  0  0  0
    0.7969    1.6843    4.2890 C   0  0  2  0  0  0  0  0  0  0  0  0
    0.1241    1.3704    5.6380 C   0  0  0  0  0  0  0  0  0  0  0  0
   -1.1777    0.7003    5.2330 C   0  0  0  0  0  0  0  0  0  0  0  0
   -1.9321    0.1487    6.0364 O   0  0  0  0  0  0  0  0  0  0  0  0
   -1.3838    0.8287    3.9238 N   0  0  0  0  0  0  0  0  0  0  0  0
   -0.3192    1.5430    3.2342 C   0  0  2  0  0  0  0  0  0  0  0  0
    0.2768    0.7763    2.0380 C   0  0  0  0  0  0  0  0  0  0  0  0
    3.5156   -0.6188    0.9789 N   0  0  0  0  0  0  0  0  0  0  0  0
    4.5777   -3.5801   -0.2714 H   0  0  0  0  0  0  0  0  0  0  0  0
    5.6914   -2.4373    0.4677 H   0  0  0  0  0  0  0  0  0  0  0  0
    4.8192   -1.9903   -1.0103 H   0  0  0  0  0  0  0  0  0  0  0  0
    2.2715    1.4964    1.9246 H   0  0  0  0  0  0  0  0  0  0  0  0
    1.6877   -0.2919    4.2843 H   0  0  0  0  0  0  0  0  0  0  0  0
    2.8848    0.9974    4.1807 H   0  0  0  0  0  0  0  0  0  0  0  0
    1.1954    2.7017    4.2741 H   0  0  0  0  0  0  0  0  0  0  0  0
    0.7238    0.7415    6.2952 H   0  0  0  0  0  0  0  0  0  0  0  0
   -0.1094    2.2888    6.1776 H   0  0  0  0  0  0  0  0  0  0  0  0
   -2.2423    0.5465    3.4629 H   0  0  0  0  0  0  0  0  0  0  0  0
   -0.6893    2.5268    2.9327 H   0  0  0  0  0  0  0  0  0  0  0  0
    0.1092    1.3048    1.1008 H   0  0  0  0  0  0  0  0  0  0  0  0
   -0.1827   -0.2038    1.9455 H   0  0  0  0  0  0  0  0  0  0  0  0
  1  2  1  0
  1 16  1  0
  1 17  1  0
  1 18  1  0
  2 15  1  0
  2  3  2  0
  3  4  1  0
  4  5  1  0
  5  6  1  0
  5 15  2  0
  6 14  1  0
  6  7  1  0
  6 19  1  6
  7  8  1  0
  7 20  1  0
  7 21  1  0
  8 13  1  0
  8  9  1  0
  8 22  1  1
  9 10  1  0
  9 23  1  0
  9 24  1  0
 10 11  2  0
 10 12  1  0
 12 13  1  0
 12 25  1  0
 13 14  1  0
 13 26  1  6
 14 27  1  0
 14 28  1  0
M  END
>  <i_m_ct_stereo_status>  (202) 
1

>  <s_m_source_file>  (202) 
/var/tmp/pbs.5076255.sched01/tmp9vbryffn/46pprzbbw9.sdf

>  <i_m_source_file_index>  (202) 
43

>  <i_lp_mmshare_version>  (202) 
48012

>  <i_f3d_flags>  (202) 
0

>  <s_epik_input>  (202) 
W0NIM11jMW5vYyhuMSlbQ0BIXShbQ0gyXTIpW0NIMl1bQ0BIXShbQ0BIXTIzKVtOSF1DKD1PKVtDSDJdMw==

>  <s_epik_cmdline>  (202) 
J2VwaWtfcHl0aG9uJywgJy1waHQnLCAnMi4wJywgJy1waCcsICc3LjAnLCAnLXRuJywgJzgnLCAnLW1hJywgJzIwMCcsICctaW1hZScsICc8aW5maWxlLm1hZT4nLCAnLW9tYWUnLCAnPG91dGZpbGUubWFlPic=

>  <r_lp_tautomer_probability>  (202) 
1

>  <r_epik_Ionization_Penalty>  (202) 
4.83491e-08

>  <r_epik_Ionization_Penalty_Charging>  (202) 
0

>  <r_epik_Ionization_Penalty_Neutral>  (202) 
4.83491e-08

>  <r_epik_State_Penalty>  (202) 
-0

>  <r_epik_Charging_Adjusted_Penalty>  (202) 
0

>  <i_epik_Tot_Q>  (202) 
0

>  <i_epik_Tot_abs_Q>  (202) 
0

>  <s_lp_Force_Field>  (202) 
OPLS3e

>  <r_lp_Energy>  (202) 
-6.31076

>  <b_lp_Chiralities_Consistent>  (202) 
1

>  <s_lp_Variant>  (202) 
54:0-1

>  <s_i_glide_gridfile>  (202) 
pfpi4k_grid

>  <i_i_glide_lignum>  (202) 
43

>  <i_i_glide_rotatable_bonds>  (202) 
1

>  <r_i_docking_score>  (202) 
-3.74423

>  <r_i_glide_ligand_efficiency>  (202) 
-0.249615

>  <r_i_glide_ligand_efficiency_sa>  (202) 
-0.615605

>  <r_i_glide_ligand_efficiency_ln>  (202) 
-1.00976

>  <r_i_glide_gscore>  (202) 
-3.74423

>  <r_i_glide_lipo>  (202) 
0

>  <r_i_glide_hbond>  (202) 
-0.475053

>  <r_i_glide_metal>  (202) 
-0

>  <r_i_glide_rewards>  (202) 
-1.99617

>  <r_i_glide_evdw>  (202) 
-15.101

>  <r_i_glide_ecoul>  (202) 
-5.00615

>  <r_i_glide_erotb>  (202) 
0.384816

>  <r_i_glide_esite>  (202) 
-0.151854

>  <r_i_glide_emodel>  (202) 
-25.8309

>  <r_i_glide_energy>  (202) 
-20.1072

>  <r_i_glide_einternal>  (202) 
0.0164108

>  <r_i_glide_intrahb_reward>  (202) 
-0

>  <i_i_glide_confnum>  (202) 
2

>  <i_i_glide_posenum>  (202) 
10

>  <r_i_glide_eff_state_penalty>  (202) 
0

>  <ligand_id>  (202) 
54

>  <original_smiles>  (202) 
Cc1noc(C2CC3CC(=O)NC3C2)n1

>  <smiles>  (202) 
[H]N1C(=O)C([H])([H])C2([H])C([H])([H])C([H])(c3nc(C([H])([H])[H])no3)C([H])([H])C12[H]

$$$$
54:0:2
     RDKit          3D

 28 30  0  0  1  0  0  0  0  0999 V2000
    0.0637   -4.5145    6.2721 C   0  0  0  0  0  0  0  0  0  0  0  0
   -0.1704   -3.1410    5.7436 C   0  0  0  0  0  0  0  0  0  0  0  0
   -1.2529   -2.4461    6.0741 N   0  0  0  0  0  0  0  0  0  0  0  0
   -1.0877   -1.2402    5.3795 O   0  0  0  0  0  0  0  0  0  0  0  0
    0.0903   -1.3522    4.7173 C   0  0  0  0  0  0  0  0  0  0  0  0
    0.6091   -0.1926    3.9176 C   0  0  2  0  0  0  0  0  0  0  0  0
    0.9469    1.0432    4.7532 C   0  0  0  0  0  0  0  0  0  0  0  0
    0.9669    2.2048    3.7450 C   0  0  2  0  0  0  0  0  0  0  0  0
    0.4615    3.5517    4.2862 C   0  0  0  0  0  0  0  0  0  0  0  0
   -0.9628    3.6262    3.7583 C   0  0  0  0  0  0  0  0  0  0  0  0
   -1.7637    4.5084    4.0793 O   0  0  0  0  0  0  0  0  0  0  0  0
   -1.1974    2.6466    2.8872 N   0  0  0  0  0  0  0  0  0  0  0  0
   -0.0373    1.8043    2.6471 C   0  0  2  0  0  0  0  0  0  0  0  0
   -0.3399    0.3093    2.8213 C   0  0  0  0  0  0  0  0  0  0  0  0
    0.7027   -2.5201    4.9118 N   0  0  0  0  0  0  0  0  0  0  0  0
   -0.8308   -4.9166    6.7418 H   0  0  0  0  0  0  0  0  0  0  0  0
    0.8518   -4.5018    7.0211 H   0  0  0  0  0  0  0  0  0  0  0  0
    0.3599   -5.1784    5.4584 H   0  0  0  0  0  0  0  0  0  0  0  0
    1.5263   -0.5121    3.4265 H   0  0  0  0  0  0  0  0  0  0  0  0
    0.1606    1.2039    5.4928 H   0  0  0  0  0  0  0  0  0  0  0  0
    1.8920    0.9331    5.2889 H   0  0  0  0  0  0  0  0  0  0  0  0
    1.9698    2.2993    3.3154 H   0  0  0  0  0  0  0  0  0  0  0  0
    0.5108    3.6349    5.3724 H   0  0  0  0  0  0  0  0  0  0  0  0
    1.0341    4.3738    3.8562 H   0  0  0  0  0  0  0  0  0  0  0  0
   -2.0391    2.5878    2.3355 H   0  0  0  0  0  0  0  0  0  0  0  0
    0.3687    2.0286    1.6571 H   0  0  0  0  0  0  0  0  0  0  0  0
   -0.1842   -0.2312    1.8874 H   0  0  0  0  0  0  0  0  0  0  0  0
   -1.3828    0.1747    3.1124 H   0  0  0  0  0  0  0  0  0  0  0  0
  1  2  1  0
  1 16  1  0
  1 17  1  0
  1 18  1  0
  2 15  1  0
  2  3  2  0
  3  4  1  0
  4  5  1  0
  5  6  1  0
  5 15  2  0
  6 14  1  0
  6  7  1  0
  6 19  1  6
  7  8  1  0
  7 20  1  0
  7 21  1  0
  8 13  1  0
  8  9  1  0
  8 22  1  6
  9 10  1  0
  9 23  1  0
  9 24  1  0
 10 11  2  0
 10 12  1  0
 12 13  1  0
 12 25  1  0
 13 14  1  0
 13 26  1  6
 14 27  1  0
 14 28  1  0
M  END
>  <i_m_ct_stereo_status>  (203) 
1

>  <s_m_source_file>  (203) 
/var/tmp/pbs.5076255.sched01/tmp9vbryffn/46pprzbbw9.sdf

>  <i_m_source_file_index>  (203) 
43

>  <i_lp_mmshare_version>  (203) 
48012

>  <i_f3d_flags>  (203) 
0

>  <s_epik_input>  (203) 
W0NIM11jMW5vYyhuMSlbQ0BIXShbQ0gyXTIpW0NIMl1bQ0BIXShbQ0BIXTIzKVtOSF1DKD1PKVtDSDJdMw==

>  <s_epik_cmdline>  (203) 
J2VwaWtfcHl0aG9uJywgJy1waHQnLCAnMi4wJywgJy1waCcsICc3LjAnLCAnLXRuJywgJzgnLCAnLW1hJywgJzIwMCcsICctaW1hZScsICc8aW5maWxlLm1hZT4nLCAnLW9tYWUnLCAnPG91dGZpbGUubWFlPic=

>  <r_lp_tautomer_probability>  (203) 
1

>  <r_epik_Ionization_Penalty>  (203) 
4.83491e-08

>  <r_epik_Ionization_Penalty_Charging>  (203) 
0

>  <r_epik_Ionization_Penalty_Neutral>  (203) 
4.83491e-08

>  <r_epik_State_Penalty>  (203) 
-0

>  <r_epik_Charging_Adjusted_Penalty>  (203) 
0

>  <i_epik_Tot_Q>  (203) 
0

>  <i_epik_Tot_abs_Q>  (203) 
0

>  <s_lp_Force_Field>  (203) 
OPLS3e

>  <r_lp_Energy>  (203) 
-6.31076

>  <b_lp_Chiralities_Consistent>  (203) 
1

>  <s_lp_Variant>  (203) 
54:0-1

>  <s_i_glide_gridfile>  (203) 
pfpi4k_grid

>  <i_i_glide_lignum>  (203) 
43

>  <i_i_glide_rotatable_bonds>  (203) 
1

>  <r_i_docking_score>  (203) 
-3.5678

>  <r_i_glide_ligand_efficiency>  (203) 
-0.237853

>  <r_i_glide_ligand_efficiency_sa>  (203) 
-0.586597

>  <r_i_glide_ligand_efficiency_ln>  (203) 
-0.962176

>  <r_i_glide_gscore>  (203) 
-3.5678

>  <r_i_glide_lipo>  (203) 
0

>  <r_i_glide_hbond>  (203) 
-0.134546

>  <r_i_glide_metal>  (203) 
-0

>  <r_i_glide_rewards>  (203) 
-1.99617

>  <r_i_glide_evdw>  (203) 
-13.6623

>  <r_i_glide_ecoul>  (203) 
-5.90449

>  <r_i_glide_erotb>  (203) 
0.384816

>  <r_i_glide_esite>  (203) 
-0.253117

>  <r_i_glide_emodel>  (203) 
-24.9579

>  <r_i_glide_energy>  (203) 
-19.5667

>  <r_i_glide_einternal>  (203) 
0.0244761

>  <r_i_glide_intrahb_reward>  (203) 
-0

>  <i_i_glide_confnum>  (203) 
4

>  <i_i_glide_posenum>  (203) 
40

>  <r_i_glide_eff_state_penalty>  (203) 
0

>  <ligand_id>  (203) 
54

>  <original_smiles>  (203) 
Cc1noc(C2CC3CC(=O)NC3C2)n1

>  <smiles>  (203) 
[H]N1C(=O)C([H])([H])C2([H])C([H])([H])C([H])(c3nc(C([H])([H])[H])no3)C([H])([H])C12[H]

$$$$
55:0:0
     RDKit          3D

 69 74  0  0  1  0  0  0  0  0999 V2000
    3.8882   -6.0430    0.8925 C   0  0  0  0  0  0  0  0  0  0  0  0
    3.8204   -6.6302    2.3468 C   0  0  2  0  0  0  0  0  0  0  0  0
    4.6862   -7.9262    2.3307 C   0  0  0  0  0  0  0  0  0  0  0  0
    4.1459   -8.9547    1.3186 C   0  0  0  0  0  0  0  0  0  0  0  0
    2.6734   -9.2913    1.6223 C   0  0  1  0  0  0  0  0  0  0  0  0
    2.6122  -10.0034    2.8409 O   0  0  0  0  0  0  0  0  0  0  0  0
    1.7585   -8.0563    1.7247 C   0  0  0  0  0  0  0  0  0  0  0  0
    2.3490   -7.0052    2.6450 C   0  0  0  0  0  0  0  0  0  0  0  0
    1.5871   -6.4523    3.6140 C   0  0  0  0  0  0  0  0  0  0  0  0
    2.0604   -5.3772    4.5727 C   0  0  0  0  0  0  0  0  0  0  0  0
    3.3235   -4.6396    4.0826 C   0  0  1  0  0  0  0  0  0  0  0  0
    4.3733   -5.6400    3.4593 C   0  0  2  0  0  0  0  0  0  0  0  0
    5.6780   -4.9005    3.0058 C   0  0  0  0  0  0  0  0  0  0  0  0
    5.4256   -3.6862    2.0439 C   0  0  0  0  0  0  0  0  0  0  0  0
    4.3583   -2.7351    2.6729 C   0  0  2  0  0  0  0  0  0  0  0  0
    5.0156   -2.1376    3.9959 C   0  0  0  0  0  0  0  0  0  0  0  0
    3.0362   -3.5119    3.0426 C   0  0  2  0  0  0  0  0  0  0  0  0
    2.0595   -2.3668    3.3884 C   0  0  0  0  0  0  0  0  0  0  0  0
    2.4639   -1.2168    2.4048 C   0  0  1  0  0  0  0  0  0  0  0  0
    2.4578    0.1160    3.1737 C   0  0  0  0  0  0  0  0  0  0  0  0
    3.3736    0.3848    3.9403 O   0  0  0  0  0  0  0  0  0  0  0  0
    1.2813    0.9986    3.0184 C   0  0  0  0  0  0  0  0  0  0  0  0
    0.1479    0.8258    2.2965 C   0  0  0  0  0  0  0  0  0  0  0  0
   -0.7915    1.8875    2.5057 N   0  0  0  0  0  0  0  0  0  0  0  0
   -0.2567    2.8458    3.2793 C   0  0  0  0  0  0  0  0  0  0  0  0
    1.3335    2.5286    3.8699 S   0  0  0  0  0  0  0  0  0  0  0  0
    3.8353   -1.5901    1.7311 C   0  0  1  0  0  0  0  0  0  0  0  0
    4.9004   -0.4356    1.6437 C   0  0  0  0  0  0  0  0  0  0  0  0
    3.5857   -2.0949    0.2511 C   0  0  0  0  0  0  0  0  0  0  0  0
    4.3646   -1.6681   -0.8832 C   0  0  0  0  0  0  0  0  0  0  0  0
    4.1654   -2.1157   -2.1446 N   0  0  0  0  0  0  0  0  0  0  0  0
    3.1608   -2.9873   -2.3308 C   0  0  0  0  0  0  0  0  0  0  0  0
    2.3919   -3.4510   -1.2327 C   0  0  0  0  0  0  0  0  0  0  0  0
    2.6155   -3.0025    0.0271 N   0  0  0  0  0  0  0  0  0  0  0  0
    4.9616   -5.8851    0.6102 H   0  0  0  0  0  0  0  0  0  0  0  0
    3.3510   -5.1285    0.9014 H   0  0  0  0  0  0  0  0  0  0  0  0
    3.4238   -6.6808    0.1308 H   0  0  0  0  0  0  0  0  0  0  0  0
    5.7059   -7.6641    2.0632 H   0  0  0  0  0  0  0  0  0  0  0  0
    4.7497   -8.3789    3.3246 H   0  0  0  0  0  0  0  0  0  0  0  0
    4.2351   -8.5843    0.2993 H   0  0  0  0  0  0  0  0  0  0  0  0
    4.7774   -9.8423    1.2988 H   0  0  0  0  0  0  0  0  0  0  0  0
    2.2938   -9.9330    0.8301 H   0  0  0  0  0  0  0  0  0  0  0  0
    3.0610  -10.8179    2.7240 H   0  0  0  0  0  0  0  0  0  0  0  0
    1.6237   -7.5830    0.7627 H   0  0  0  0  0  0  0  0  0  0  0  0
    0.7439   -8.3290    2.0114 H   0  0  0  0  0  0  0  0  0  0  0  0
    0.5567   -6.7641    3.7478 H   0  0  0  0  0  0  0  0  0  0  0  0
    1.2605   -4.6605    4.7662 H   0  0  0  0  0  0  0  0  0  0  0  0
    2.2793   -5.8655    5.5260 H   0  0  0  0  0  0  0  0  0  0  0  0
    3.7205   -4.2245    5.0221 H   0  0  0  0  0  0  0  0  0  0  0  0
    4.6671   -6.2583    4.3144 H   0  0  0  0  0  0  0  0  0  0  0  0
    6.2110   -4.6061    3.9048 H   0  0  0  0  0  0  0  0  0  0  0  0
    6.3887   -5.5925    2.5598 H   0  0  0  0  0  0  0  0  0  0  0  0
    6.3770   -3.1309    1.9477 H   0  0  0  0  0  0  0  0  0  0  0  0
    5.1504   -4.0273    1.0635 H   0  0  0  0  0  0  0  0  0  0  0  0
    4.3287   -1.5092    4.5603 H   0  0  0  0  0  0  0  0  0  0  0  0
    5.9069   -1.5494    3.7309 H   0  0  0  0  0  0  0  0  0  0  0  0
    5.3442   -2.8860    4.7327 H   0  0  0  0  0  0  0  0  0  0  0  0
    2.5598   -4.0397    2.2433 H   0  0  0  0  0  0  0  0  0  0  0  0
    1.0338   -2.7045    3.2199 H   0  0  0  0  0  0  0  0  0  0  0  0
    2.1289   -2.0848    4.4550 H   0  0  0  0  0  0  0  0  0  0  0  0
    1.7212   -1.1652    1.6114 H   0  0  0  0  0  0  0  0  0  0  0  0
   -0.1342   -0.0090    1.6669 H   0  0  0  0  0  0  0  0  0  0  0  0
   -0.7742    3.7476    3.5085 H   0  0  0  0  0  0  0  0  0  0  0  0
    5.0667    0.0617    2.5869 H   0  0  0  0  0  0  0  0  0  0  0  0
    4.5401    0.3235    0.9427 H   0  0  0  0  0  0  0  0  0  0  0  0
    5.8314   -0.8453    1.2240 H   0  0  0  0  0  0  0  0  0  0  0  0
    5.1871   -0.9853   -0.8054 H   0  0  0  0  0  0  0  0  0  0  0  0
    2.9782   -3.3401   -3.3398 H   0  0  0  0  0  0  0  0  0  0  0  0
    1.5974   -4.1711   -1.3818 H   0  0  0  0  0  0  0  0  0  0  0  0
  2  1  1  6
  1 35  1  0
  1 36  1  0
  1 37  1  0
  2  8  1  0
  2 12  1  0
  2  3  1  0
  3  4  1  0
  3 38  1  0
  3 39  1  0
  4  5  1  0
  4 40  1  0
  4 41  1  0
  5  6  1  0
  5  7  1  0
  5 42  1  6
  6 43  1  0
  7  8  1  0
  7 44  1  0
  7 45  1  0
  8  9  2  0
  9 10  1  0
  9 46  1  0
 10 11  1  0
 10 47  1  0
 10 48  1  0
 11 17  1  0
 11 12  1  0
 11 49  1  1
 12 13  1  0
 12 50  1  1
 13 14  1  0
 13 51  1  0
 13 52  1  0
 14 15  1  0
 14 53  1  0
 14 54  1  0
 15 27  1  0
 15 16  1  1
 15 17  1  0
 16 55  1  0
 16 56  1  0
 16 57  1  0
 17 18  1  0
 17 58  1  6
 18 19  1  0
 18 59  1  0
 18 60  1  0
 19 20  1  0
 19 27  1  0
 19 61  1  6
 20 21  2  0
 20 22  1  0
 22 26  1  0
 22 23  2  0
 23 24  1  0
 23 62  1  0
 24 25  2  0
 25 26  1  0
 25 63  1  0
 27 28  1  6
 27 29  1  0
 28 64  1  0
 28 65  1  0
 28 66  1  0
 29 34  1  0
 29 30  2  0
 30 31  1  0
 30 67  1  0
 31 32  2  0
 32 33  1  0
 32 68  1  0
 33 34  2  0
 33 69  1  0
M  END
>  <i_m_ct_stereo_status>  (204) 
1

>  <s_m_source_file>  (204) 
/var/tmp/pbs.5076255.sched01/tmp9vbryffn/46pprzbbw9.sdf

>  <i_m_source_file_index>  (204) 
44

>  <i_lp_mmshare_version>  (204) 
48012

>  <i_f3d_flags>  (204) 
0

>  <s_epik_input>  (204) 
W0NIMl0xW0NIMl1bQ0BASF0oW09IXSlbQ0gyXUMoW0NAXTEyW0NIM10pPVtDSF1bQ0gyXVtDQEhdM1tDQEBIXTJbQ0gyXVtDSDJdW0NAXTQoW0NIM10pW0NAQEhdM1tDSDJdW0NAQEhdKEMoPU8pYzVbY0hdbltjSF1zNSlbQ0BdNChbQ0gzXSljNltjSF1uW2NIXVtjSF1uNg==

>  <s_epik_cmdline>  (204) 
J2VwaWtfcHl0aG9uJywgJy1waHQnLCAnMi4wJywgJy1waCcsICc3LjAnLCAnLXRuJywgJzgnLCAnLW1hJywgJzIwMCcsICctaW1hZScsICc8aW5maWxlLm1hZT4nLCAnLW9tYWUnLCAnPG91dGZpbGUubWFlPic=

>  <r_lp_tautomer_probability>  (204) 
1

>  <r_epik_Ionization_Penalty>  (204) 
3.52216e-06

>  <r_epik_Ionization_Penalty_Charging>  (204) 
0

>  <r_epik_Ionization_Penalty_Neutral>  (204) 
3.52216e-06

>  <r_epik_State_Penalty>  (204) 
-0

>  <r_epik_Charging_Adjusted_Penalty>  (204) 
0

>  <i_epik_Tot_Q>  (204) 
0

>  <i_epik_Tot_abs_Q>  (204) 
0

>  <s_lp_Force_Field>  (204) 
OPLS3e

>  <r_lp_Energy>  (204) 
69.5635

>  <b_lp_Chiralities_Consistent>  (204) 
1

>  <s_lp_Variant>  (204) 
55:0-1

>  <s_i_glide_gridfile>  (204) 
pfpi4k_grid

>  <i_i_glide_lignum>  (204) 
44

>  <i_i_glide_rotatable_bonds>  (204) 
4

>  <r_i_docking_score>  (204) 
-2.2702

>  <r_i_glide_ligand_efficiency>  (204) 
-0.0667706

>  <r_i_glide_ligand_efficiency_sa>  (204) 
-0.216311

>  <r_i_glide_ligand_efficiency_ln>  (204) 
-0.501551

>  <r_i_glide_gscore>  (204) 
-2.2702

>  <r_i_glide_lipo>  (204) 
-0.355942

>  <r_i_glide_hbond>  (204) 
0

>  <r_i_glide_metal>  (204) 
-0

>  <r_i_glide_rewards>  (204) 
-0.152302

>  <r_i_glide_evdw>  (204) 
-36.2264

>  <r_i_glide_ecoul>  (204) 
-1.42139

>  <r_i_glide_erotb>  (204) 
0.266374

>  <r_i_glide_esite>  (204) 
-0.00379936

>  <r_i_glide_emodel>  (204) 
-35.2683

>  <r_i_glide_energy>  (204) 
-37.6478

>  <r_i_glide_einternal>  (204) 
8.1467

>  <r_i_glide_intrahb_reward>  (204) 
-0

>  <i_i_glide_confnum>  (204) 
3

>  <i_i_glide_posenum>  (204) 
19

>  <r_i_glide_eff_state_penalty>  (204) 
0

>  <ligand_id>  (204) 
55

>  <original_smiles>  (204) 
CC12CCC(O)CC1=CCC1C2CCC2(C)C1CC(C(=O)c1cncs1)C2(C)c1cnccn1

>  <smiles>  (204) 
[H]OC1([H])C([H])([H])C2=C([H])C([H])([H])C3([H])C([H])(C([H])([H])C([H])([H])C4(C([H])([H])[H])C3([H])C([H])([H])C([H])(C(=O)c3sc([H])nc3[H])C4(c3nc([H])c([H])nc3[H])C([H])([H])[H])C2(C([H])([H])[H])C([H])([H])C1([H])[H]

$$$$
55:0:1
     RDKit          3D

 69 74  0  0  1  0  0  0  0  0999 V2000
    3.0701   -8.4690    3.1857 C   0  0  0  0  0  0  0  0  0  0  0  0
    2.4005   -8.9832    4.5066 C   0  0  2  0  0  0  0  0  0  0  0  0
    2.9945  -10.4049    4.7887 C   0  0  0  0  0  0  0  0  0  0  0  0
    2.7019  -11.3831    3.6291 C   0  0  0  0  0  0  0  0  0  0  0  0
    1.1887  -11.4826    3.3677 C   0  0  1  0  0  0  0  0  0  0  0  0
    0.5403  -12.1017    4.4750 O   0  0  0  0  0  0  0  0  0  0  0  0
    0.5155  -10.1212    3.1475 C   0  0  0  0  0  0  0  0  0  0  0  0
    0.8850   -9.1284    4.2389 C   0  0  0  0  0  0  0  0  0  0  0  0
   -0.0763   -8.4426    4.8908 C   0  0  0  0  0  0  0  0  0  0  0  0
    0.1896   -7.4221    5.9805 C   0  0  0  0  0  0  0  0  0  0  0  0
    1.6324   -6.9063    5.9945 C   0  0  1  0  0  0  0  0  0  0  0  0
    2.6647   -8.0716    5.7818 C   0  0  2  0  0  0  0  0  0  0  0  0
    4.1411   -7.5616    5.8670 C   0  0  0  0  0  0  0  0  0  0  0  0
    4.4504   -6.3525    4.9261 C   0  0  0  0  0  0  0  0  0  0  0  0
    3.3860   -5.2267    5.1388 C   0  0  2  0  0  0  0  0  0  0  0  0
    3.6137   -4.6760    6.6287 C   0  0  0  0  0  0  0  0  0  0  0  0
    1.9238   -5.7782    4.9604 C   0  0  2  0  0  0  0  0  0  0  0  0
    1.0551   -4.5069    4.9694 C   0  0  0  0  0  0  0  0  0  0  0  0
    1.9391   -3.4561    4.2268 C   0  0  1  0  0  0  0  0  0  0  0  0
    1.8744   -2.0786    4.9234 C   0  0  0  0  0  0  0  0  0  0  0  0
    1.9138   -2.0334    6.1686 O   0  0  0  0  0  0  0  0  0  0  0  0
    1.7110   -0.8481    4.1547 C   0  0  0  0  0  0  0  0  0  0  0  0
    1.7744    0.3990    4.6683 C   0  0  0  0  0  0  0  0  0  0  0  0
    1.5520    1.4174    3.6839 N   0  0  0  0  0  0  0  0  0  0  0  0
    1.3617    0.8639    2.4597 C   0  0  0  0  0  0  0  0  0  0  0  0
    1.4641   -0.8708    2.4192 S   0  0  0  0  0  0  0  0  0  0  0  0
    3.3881   -4.0637    4.0845 C   0  0  1  0  0  0  0  0  0  0  0  0
    4.5585   -3.0518    4.3801 C   0  0  0  0  0  0  0  0  0  0  0  0
    3.6593   -4.5857    2.6288 C   0  0  0  0  0  0  0  0  0  0  0  0
    2.6287   -4.9947    1.7238 C   0  0  0  0  0  0  0  0  0  0  0  0
    2.8825   -5.4948    0.4975 N   0  0  0  0  0  0  0  0  0  0  0  0
    4.1728   -5.6119    0.1272 C   0  0  0  0  0  0  0  0  0  0  0  0
    5.2161   -5.2388    1.0060 C   0  0  0  0  0  0  0  0  0  0  0  0
    4.9418   -4.7341    2.2309 N   0  0  0  0  0  0  0  0  0  0  0  0
    4.1768   -8.5242    3.3158 H   0  0  0  0  0  0  0  0  0  0  0  0
    2.7719   -7.4615    2.9658 H   0  0  0  0  0  0  0  0  0  0  0  0
    2.8302   -9.0658    2.3129 H   0  0  0  0  0  0  0  0  0  0  0  0
    4.0699  -10.3239    4.9221 H   0  0  0  0  0  0  0  0  0  0  0  0
    2.6275  -10.8310    5.7296 H   0  0  0  0  0  0  0  0  0  0  0  0
    3.2154  -11.0693    2.7147 H   0  0  0  0  0  0  0  0  0  0  0  0
    3.1537  -12.3566    3.8252 H   0  0  0  0  0  0  0  0  0  0  0  0
    1.0157  -12.1045    2.4976 H   0  0  0  0  0  0  0  0  0  0  0  0
    0.8356  -11.6382    5.2496 H   0  0  0  0  0  0  0  0  0  0  0  0
    0.8279   -9.6989    2.1960 H   0  0  0  0  0  0  0  0  0  0  0  0
   -0.5653  -10.2155    3.0472 H   0  0  0  0  0  0  0  0  0  0  0  0
   -1.1246   -8.5912    4.6472 H   0  0  0  0  0  0  0  0  0  0  0  0
   -0.5098   -6.5844    5.8923 H   0  0  0  0  0  0  0  0  0  0  0  0
   -0.0302   -7.9028    6.9382 H   0  0  0  0  0  0  0  0  0  0  0  0
    1.7177   -6.5202    7.0211 H   0  0  0  0  0  0  0  0  0  0  0  0
    2.5190   -8.6977    6.6632 H   0  0  0  0  0  0  0  0  0  0  0  0
    4.3645   -7.3251    6.9066 H   0  0  0  0  0  0  0  0  0  0  0  0
    4.8437   -8.3694    5.6796 H   0  0  0  0  0  0  0  0  0  0  0  0
    5.4400   -5.9526    5.1821 H   0  0  0  0  0  0  0  0  0  0  0  0
    4.5044   -6.6997    3.9128 H   0  0  0  0  0  0  0  0  0  0  0  0
    2.8912   -3.9249    6.9029 H   0  0  0  0  0  0  0  0  0  0  0  0
    4.6505   -4.2914    6.7284 H   0  0  0  0  0  0  0  0  0  0  0  0
    3.5398   -5.4678    7.3942 H   0  0  0  0  0  0  0  0  0  0  0  0
    1.7237   -6.2103    3.9945 H   0  0  0  0  0  0  0  0  0  0  0  0
    0.1220   -4.6867    4.4312 H   0  0  0  0  0  0  0  0  0  0  0  0
    0.7759   -4.2175    6.0027 H   0  0  0  0  0  0  0  0  0  0  0  0
    1.5034   -3.3360    3.2306 H   0  0  0  0  0  0  0  0  0  0  0  0
    1.9428    0.6565    5.6847 H   0  0  0  0  0  0  0  0  0  0  0  0
    1.1640    1.4842    1.6274 H   0  0  0  0  0  0  0  0  0  0  0  0
    4.4453   -2.5399    5.3332 H   0  0  0  0  0  0  0  0  0  0  0  0
    4.6380   -2.2912    3.6055 H   0  0  0  0  0  0  0  0  0  0  0  0
    5.5159   -3.5670    4.4395 H   0  0  0  0  0  0  0  0  0  0  0  0
    1.5896   -4.9821    1.9895 H   0  0  0  0  0  0  0  0  0  0  0  0
    4.4004   -6.0025   -0.8545 H   0  0  0  0  0  0  0  0  0  0  0  0
    6.2546   -5.3410    0.7184 H   0  0  0  0  0  0  0  0  0  0  0  0
  2  1  1  6
  1 35  1  0
  1 36  1  0
  1 37  1  0
  2  8  1  0
  2 12  1  0
  2  3  1  0
  3  4  1  0
  3 38  1  0
  3 39  1  0
  4  5  1  0
  4 40  1  0
  4 41  1  0
  5  6  1  0
  5  7  1  0
  5 42  1  6
  6 43  1  0
  7  8  1  0
  7 44  1  0
  7 45  1  0
  8  9  2  0
  9 10  1  0
  9 46  1  0
 10 11  1  0
 10 47  1  0
 10 48  1  0
 11 17  1  0
 11 12  1  0
 11 49  1  1
 12 13  1  0
 12 50  1  1
 13 14  1  0
 13 51  1  0
 13 52  1  0
 14 15  1  0
 14 53  1  0
 14 54  1  0
 15 27  1  0
 15 16  1  1
 15 17  1  0
 16 55  1  0
 16 56  1  0
 16 57  1  0
 17 18  1  0
 17 58  1  6
 18 19  1  0
 18 59  1  0
 18 60  1  0
 19 20  1  0
 19 27  1  0
 19 61  1  6
 20 21  2  0
 20 22  1  0
 22 26  1  0
 22 23  2  0
 23 24  1  0
 23 62  1  0
 24 25  2  0
 25 26  1  0
 25 63  1  0
 27 28  1  1
 27 29  1  0
 28 64  1  0
 28 65  1  0
 28 66  1  0
 29 34  1  0
 29 30  2  0
 30 31  1  0
 30 67  1  0
 31 32  2  0
 32 33  1  0
 32 68  1  0
 33 34  2  0
 33 69  1  0
M  END
>  <i_m_ct_stereo_status>  (205) 
1

>  <s_m_source_file>  (205) 
/var/tmp/pbs.5076255.sched01/tmp9vbryffn/46pprzbbw9.sdf

>  <i_m_source_file_index>  (205) 
44

>  <i_lp_mmshare_version>  (205) 
48012

>  <i_f3d_flags>  (205) 
0

>  <s_epik_input>  (205) 
W0NIMl0xW0NIMl1bQ0BASF0oW09IXSlbQ0gyXUMoW0NAXTEyW0NIM10pPVtDSF1bQ0gyXVtDQEhdM1tDQEBIXTJbQ0gyXVtDSDJdW0NAXTQoW0NIM10pW0NAQEhdM1tDSDJdW0NAQEhdKEMoPU8pYzVbY0hdbltjSF1zNSlbQ0BdNChbQ0gzXSljNltjSF1uW2NIXVtjSF1uNg==

>  <s_epik_cmdline>  (205) 
J2VwaWtfcHl0aG9uJywgJy1waHQnLCAnMi4wJywgJy1waCcsICc3LjAnLCAnLXRuJywgJzgnLCAnLW1hJywgJzIwMCcsICctaW1hZScsICc8aW5maWxlLm1hZT4nLCAnLW9tYWUnLCAnPG91dGZpbGUubWFlPic=

>  <r_lp_tautomer_probability>  (205) 
1

>  <r_epik_Ionization_Penalty>  (205) 
3.52216e-06

>  <r_epik_Ionization_Penalty_Charging>  (205) 
0

>  <r_epik_Ionization_Penalty_Neutral>  (205) 
3.52216e-06

>  <r_epik_State_Penalty>  (205) 
-0

>  <r_epik_Charging_Adjusted_Penalty>  (205) 
0

>  <i_epik_Tot_Q>  (205) 
0

>  <i_epik_Tot_abs_Q>  (205) 
0

>  <s_lp_Force_Field>  (205) 
OPLS3e

>  <r_lp_Energy>  (205) 
69.5635

>  <b_lp_Chiralities_Consistent>  (205) 
1

>  <s_lp_Variant>  (205) 
55:0-1

>  <s_i_glide_gridfile>  (205) 
pfpi4k_grid

>  <i_i_glide_lignum>  (205) 
44

>  <i_i_glide_rotatable_bonds>  (205) 
4

>  <r_i_docking_score>  (205) 
-2.06538

>  <r_i_glide_ligand_efficiency>  (205) 
-0.0607463

>  <r_i_glide_ligand_efficiency_sa>  (205) 
-0.196795

>  <r_i_glide_ligand_efficiency_ln>  (205) 
-0.456299

>  <r_i_glide_gscore>  (205) 
-2.06538

>  <r_i_glide_lipo>  (205) 
-0.312777

>  <r_i_glide_hbond>  (205) 
0

>  <r_i_glide_metal>  (205) 
-0

>  <r_i_glide_rewards>  (205) 
-0.152302

>  <r_i_glide_evdw>  (205) 
-28.285

>  <r_i_glide_ecoul>  (205) 
-3.01615

>  <r_i_glide_erotb>  (205) 
0.266374

>  <r_i_glide_esite>  (205) 
0

>  <r_i_glide_emodel>  (205) 
-33.9059

>  <r_i_glide_energy>  (205) 
-31.3011

>  <r_i_glide_einternal>  (205) 
0.244227

>  <r_i_glide_intrahb_reward>  (205) 
-0

>  <i_i_glide_confnum>  (205) 
1

>  <i_i_glide_posenum>  (205) 
17

>  <r_i_glide_eff_state_penalty>  (205) 
0

>  <ligand_id>  (205) 
55

>  <original_smiles>  (205) 
CC12CCC(O)CC1=CCC1C2CCC2(C)C1CC(C(=O)c1cncs1)C2(C)c1cnccn1

>  <smiles>  (205) 
[H]OC1([H])C([H])([H])C2=C([H])C([H])([H])C3([H])C([H])(C([H])([H])C([H])([H])C4(C([H])([H])[H])C3([H])C([H])([H])C([H])(C(=O)c3sc([H])nc3[H])C4(c3nc([H])c([H])nc3[H])C([H])([H])[H])C2(C([H])([H])[H])C([H])([H])C1([H])[H]

$$$$
55:0:2
     RDKit          3D

 69 74  0  0  1  0  0  0  0  0999 V2000
    4.0265   -6.1484    1.2267 C   0  0  0  0  0  0  0  0  0  0  0  0
    3.9133   -6.8010    2.6408 C   0  0  2  0  0  0  0  0  0  0  0  0
    4.8105   -8.0788    2.6157 C   0  0  0  0  0  0  0  0  0  0  0  0
    4.3408   -9.0800    1.5411 C   0  0  0  0  0  0  0  0  0  0  0  0
    2.8660   -9.4657    1.7625 C   0  0  1  0  0  0  0  0  0  0  0  0
    2.7877  -10.2195    2.9585 O   0  0  0  0  0  0  0  0  0  0  0  0
    1.9155   -8.2553    1.8576 C   0  0  0  0  0  0  0  0  0  0  0  0
    2.4410   -7.2274    2.8512 C   0  0  0  0  0  0  0  0  0  0  0  0
    1.6360   -6.7428    3.8285 C   0  0  0  0  0  0  0  0  0  0  0  0
    2.0454   -5.6933    4.8549 C   0  0  0  0  0  0  0  0  0  0  0  0
    3.3089   -4.9064    4.4486 C   0  0  1  0  0  0  0  0  0  0  0  0
    4.4043   -5.8513    3.8214 C   0  0  2  0  0  0  0  0  0  0  0  0
    5.7048   -5.0671    3.4545 C   0  0  0  0  0  0  0  0  0  0  0  0
    5.4500   -3.8290    2.5362 C   0  0  0  0  0  0  0  0  0  0  0  0
    4.3518   -2.9212    3.1733 C   0  0  2  0  0  0  0  0  0  0  0  0
    4.9429   -2.3669    4.5457 C   0  0  0  0  0  0  0  0  0  0  0  0
    3.0399   -3.7461    3.4485 C   0  0  2  0  0  0  0  0  0  0  0  0
    2.0178   -2.6442    3.8066 C   0  0  0  0  0  0  0  0  0  0  0  0
    2.4158   -1.4417    2.8834 C   0  0  1  0  0  0  0  0  0  0  0  0
    2.3384   -0.1360    3.6764 C   0  0  0  0  0  0  0  0  0  0  0  0
    3.1573    0.0349    4.6004 O   0  0  0  0  0  0  0  0  0  0  0  0
    1.3042    0.8590    3.4303 C   0  0  0  0  0  0  0  0  0  0  0  0
    1.0621    1.9868    4.1447 C   0  0  0  0  0  0  0  0  0  0  0  0
   -0.0172    2.7486    3.6975 N   0  0  0  0  0  0  0  0  0  0  0  0
   -0.5737    2.1764    2.6007 C   0  0  0  0  0  0  0  0  0  0  0  0
    0.2127    0.7259    2.0577 S   0  0  0  0  0  0  0  0  0  0  0  0
    3.8288   -1.7551    2.2493 C   0  0  1  0  0  0  0  0  0  0  0  0
    4.8496   -0.5645    2.2691 C   0  0  0  0  0  0  0  0  0  0  0  0
    3.6444   -2.1773    0.7446 C   0  0  0  0  0  0  0  0  0  0  0  0
    4.5009   -1.7382   -0.3223 C   0  0  0  0  0  0  0  0  0  0  0  0
    4.3669   -2.1384   -1.6023 N   0  0  0  0  0  0  0  0  0  0  0  0
    3.3659   -2.9923   -1.8877 C   0  0  0  0  0  0  0  0  0  0  0  0
    2.5152   -3.4531   -0.8572 C   0  0  0  0  0  0  0  0  0  0  0  0
    2.6517   -3.0378    0.4265 N   0  0  0  0  0  0  0  0  0  0  0  0
    5.0933   -5.9498    0.9904 H   0  0  0  0  0  0  0  0  0  0  0  0
    3.4784   -5.2365    1.2371 H   0  0  0  0  0  0  0  0  0  0  0  0
    3.6217   -6.7667    0.4225 H   0  0  0  0  0  0  0  0  0  0  0  0
    5.8376   -7.7916    2.4040 H   0  0  0  0  0  0  0  0  0  0  0  0
    4.8465   -8.5752    3.5931 H   0  0  0  0  0  0  0  0  0  0  0  0
    4.4580   -8.6730    0.5410 H   0  0  0  0  0  0  0  0  0  0  0  0
    4.9923   -9.9595    1.5201 H   0  0  0  0  0  0  0  0  0  0  0  0
    2.5509  -10.0949    0.9321 H   0  0  0  0  0  0  0  0  0  0  0  0
    1.9434  -10.6450    2.9959 H   0  0  0  0  0  0  0  0  0  0  0  0
    1.8228   -7.7785    0.8697 H   0  0  0  0  0  0  0  0  0  0  0  0
    0.9016   -8.5581    2.1124 H   0  0  0  0  0  0  0  0  0  0  0  0
    0.6047   -7.0788    3.9138 H   0  0  0  0  0  0  0  0  0  0  0  0
    1.2157   -5.0056    5.0463 H   0  0  0  0  0  0  0  0  0  0  0  0
    2.2313   -6.2189    5.7962 H   0  0  0  0  0  0  0  0  0  0  0  0
    3.6622   -4.5199    5.4162 H   0  0  0  0  0  0  0  0  0  0  0  0
    4.6758   -6.5039    4.6570 H   0  0  0  0  0  0  0  0  0  0  0  0
    6.2060   -4.7961    4.3802 H   0  0  0  0  0  0  0  0  0  0  0  0
    6.4452   -5.7215    3.0042 H   0  0  0  0  0  0  0  0  0  0  0  0
    6.3765   -3.2367    2.5021 H   0  0  0  0  0  0  0  0  0  0  0  0
    5.2273   -4.1465    1.5267 H   0  0  0  0  0  0  0  0  0  0  0  0
    4.2442   -1.7651    5.1039 H   0  0  0  0  0  0  0  0  0  0  0  0
    5.8237   -1.7584    4.3555 H   0  0  0  0  0  0  0  0  0  0  0  0
    5.2746   -3.1460    5.2427 H   0  0  0  0  0  0  0  0  0  0  0  0
    2.6258   -4.2495    2.5851 H   0  0  0  0  0  0  0  0  0  0  0  0
    1.0077   -2.9891    3.5796 H   0  0  0  0  0  0  0  0  0  0  0  0
    2.0329   -2.3962    4.8846 H   0  0  0  0  0  0  0  0  0  0  0  0
    1.7051   -1.4163    2.0554 H   0  0  0  0  0  0  0  0  0  0  0  0
    1.6526    2.2868    5.0099 H   0  0  0  0  0  0  0  0  0  0  0  0
   -1.3714    2.6500    2.0988 H   0  0  0  0  0  0  0  0  0  0  0  0
    4.9340   -0.0973    3.2504 H   0  0  0  0  0  0  0  0  0  0  0  0
    4.5260    0.2072    1.5686 H   0  0  0  0  0  0  0  0  0  0  0  0
    5.8251   -0.9155    1.8980 H   0  0  0  0  0  0  0  0  0  0  0  0
    5.3344   -1.0855   -0.1754 H   0  0  0  0  0  0  0  0  0  0  0  0
    3.2358   -3.2997   -2.9233 H   0  0  0  0  0  0  0  0  0  0  0  0
    1.7357   -4.1709   -1.0805 H   0  0  0  0  0  0  0  0  0  0  0  0
  2  1  1  6
  1 35  1  0
  1 36  1  0
  1 37  1  0
  2  8  1  0
  2 12  1  0
  2  3  1  0
  3  4  1  0
  3 38  1  0
  3 39  1  0
  4  5  1  0
  4 40  1  0
  4 41  1  0
  5  6  1  0
  5  7  1  0
  5 42  1  6
  6 43  1  0
  7  8  1  0
  7 44  1  0
  7 45  1  0
  8  9  2  0
  9 10  1  0
  9 46  1  0
 10 11  1  0
 10 47  1  0
 10 48  1  0
 11 17  1  0
 11 12  1  0
 11 49  1  1
 12 13  1  0
 12 50  1  1
 13 14  1  0
 13 51  1  0
 13 52  1  0
 14 15  1  0
 14 53  1  0
 14 54  1  0
 15 27  1  0
 15 16  1  1
 15 17  1  0
 16 55  1  0
 16 56  1  0
 16 57  1  0
 17 18  1  0
 17 58  1  6
 18 19  1  0
 18 59  1  0
 18 60  1  0
 19 20  1  0
 19 27  1  0
 19 61  1  6
 20 21  2  0
 20 22  1  0
 22 26  1  0
 22 23  2  0
 23 24  1  0
 23 62  1  0
 24 25  2  0
 25 26  1  0
 25 63  1  0
 27 28  1  6
 27 29  1  0
 28 64  1  0
 28 65  1  0
 28 66  1  0
 29 34  1  0
 29 30  2  0
 30 31  1  0
 30 67  1  0
 31 32  2  0
 32 33  1  0
 32 68  1  0
 33 34  2  0
 33 69  1  0
M  END
>  <i_m_ct_stereo_status>  (206) 
1

>  <s_m_source_file>  (206) 
/var/tmp/pbs.5076255.sched01/tmp9vbryffn/46pprzbbw9.sdf

>  <i_m_source_file_index>  (206) 
44

>  <i_lp_mmshare_version>  (206) 
48012

>  <i_f3d_flags>  (206) 
0

>  <s_epik_input>  (206) 
W0NIMl0xW0NIMl1bQ0BASF0oW09IXSlbQ0gyXUMoW0NAXTEyW0NIM10pPVtDSF1bQ0gyXVtDQEhdM1tDQEBIXTJbQ0gyXVtDSDJdW0NAXTQoW0NIM10pW0NAQEhdM1tDSDJdW0NAQEhdKEMoPU8pYzVbY0hdbltjSF1zNSlbQ0BdNChbQ0gzXSljNltjSF1uW2NIXVtjSF1uNg==

>  <s_epik_cmdline>  (206) 
J2VwaWtfcHl0aG9uJywgJy1waHQnLCAnMi4wJywgJy1waCcsICc3LjAnLCAnLXRuJywgJzgnLCAnLW1hJywgJzIwMCcsICctaW1hZScsICc8aW5maWxlLm1hZT4nLCAnLW9tYWUnLCAnPG91dGZpbGUubWFlPic=

>  <r_lp_tautomer_probability>  (206) 
1

>  <r_epik_Ionization_Penalty>  (206) 
3.52216e-06

>  <r_epik_Ionization_Penalty_Charging>  (206) 
0

>  <r_epik_Ionization_Penalty_Neutral>  (206) 
3.52216e-06

>  <r_epik_State_Penalty>  (206) 
-0

>  <r_epik_Charging_Adjusted_Penalty>  (206) 
0

>  <i_epik_Tot_Q>  (206) 
0

>  <i_epik_Tot_abs_Q>  (206) 
0

>  <s_lp_Force_Field>  (206) 
OPLS3e

>  <r_lp_Energy>  (206) 
69.5635

>  <b_lp_Chiralities_Consistent>  (206) 
1

>  <s_lp_Variant>  (206) 
55:0-1

>  <s_i_glide_gridfile>  (206) 
pfpi4k_grid

>  <i_i_glide_lignum>  (206) 
44

>  <i_i_glide_rotatable_bonds>  (206) 
4

>  <r_i_docking_score>  (206) 
-2.01116

>  <r_i_glide_ligand_efficiency>  (206) 
-0.0591517

>  <r_i_glide_ligand_efficiency_sa>  (206) 
-0.191629

>  <r_i_glide_ligand_efficiency_ln>  (206) 
-0.444321

>  <r_i_glide_gscore>  (206) 
-2.01116

>  <r_i_glide_lipo>  (206) 
-0.267673

>  <r_i_glide_hbond>  (206) 
0

>  <r_i_glide_metal>  (206) 
-0

>  <r_i_glide_rewards>  (206) 
-0.152302

>  <r_i_glide_evdw>  (206) 
-32.61

>  <r_i_glide_ecoul>  (206) 
-1.50628

>  <r_i_glide_erotb>  (206) 
0.266374

>  <r_i_glide_esite>  (206) 
-0.00111439

>  <r_i_glide_emodel>  (206) 
-34.1613

>  <r_i_glide_energy>  (206) 
-34.1163

>  <r_i_glide_einternal>  (206) 
2.29916

>  <r_i_glide_intrahb_reward>  (206) 
-0

>  <i_i_glide_confnum>  (206) 
3

>  <i_i_glide_posenum>  (206) 
2

>  <r_i_glide_eff_state_penalty>  (206) 
0

>  <ligand_id>  (206) 
55

>  <original_smiles>  (206) 
CC12CCC(O)CC1=CCC1C2CCC2(C)C1CC(C(=O)c1cncs1)C2(C)c1cnccn1

>  <smiles>  (206) 
[H]OC1([H])C([H])([H])C2=C([H])C([H])([H])C3([H])C([H])(C([H])([H])C([H])([H])C4(C([H])([H])[H])C3([H])C([H])([H])C([H])(C(=O)c3sc([H])nc3[H])C4(c3nc([H])c([H])nc3[H])C([H])([H])[H])C2(C([H])([H])[H])C([H])([H])C1([H])[H]

$$$$
56:1:0
     RDKit          3D

 85 92  0  0  1  0  0  0  0  0999 V2000
    5.6270  -12.7066    3.2079 C   0  0  0  0  0  0  0  0  0  0  0  0
    5.3303  -12.1496    4.5784 C   0  0  0  0  0  0  0  0  0  0  0  0
    4.2306  -11.4352    4.9177 C   0  0  0  0  0  0  0  0  0  0  0  0
    3.9491  -10.9898    6.3965 C   0  0  0  0  0  0  0  0  0  0  0  0
    2.9084   -9.7852    6.4675 C   0  0  2  0  0  0  0  0  0  0  0  0
    2.1195   -9.8508    7.6311 O   0  0  0  0  0  0  0  0  0  0  0  0
    1.8171  -10.0580    5.4531 N   0  0  2  0  0  0  0  0  0  0  0  0
    0.4749   -9.4870    5.3182 C   0  0  0  0  0  0  0  0  0  0  0  0
    0.0914   -9.4980    3.7754 C   0  0  0  0  0  0  0  0  0  0  0  0
    1.1066  -10.0141    2.6367 C   0  0  0  0  0  0  0  0  0  0  0  0
    2.6761  -10.0534    2.8541 C   0  0  2  0  0  0  0  0  0  0  0  0
    3.0549  -11.1585    3.9617 C   0  0  1  0  0  0  0  0  0  0  0  0
    1.8692  -11.3924    4.8617 C   0  0  0  0  0  0  0  0  0  0  0  0
    3.2668   -8.5467    2.7499 C   0  0  1  0  0  0  0  0  0  0  0  0
    2.2811   -7.4734    3.2657 C   0  0  0  0  0  0  0  0  0  0  0  0
    2.5507   -6.0481    3.7902 C   0  0  2  0  0  0  0  0  0  0  0  0
    1.2114   -5.7386    4.1676 O   0  0  0  0  0  0  0  0  0  0  0  0
    2.8532   -5.0077    2.6711 C   0  0  1  0  0  0  0  0  0  0  0  0
    2.3121   -3.5800    2.9168 C   0  0  2  0  0  0  0  0  0  0  0  0
    2.7545   -2.3835    2.0801 C   0  0  0  0  0  0  0  0  0  0  0  0
    3.4422   -1.7968    3.2149 O   0  0  0  0  0  0  0  0  0  0  0  0
    2.7904   -2.7452    4.0992 C   0  0  2  0  0  0  0  0  0  0  0  0
    3.7063   -3.4542    4.9138 O   0  0  0  0  0  0  0  0  0  0  0  0
    3.1731   -4.5150    5.6941 C   0  0  0  0  0  0  0  0  0  0  0  0
    3.4445   -5.9451    5.0748 C   0  0  1  0  0  0  0  0  0  0  0  0
    3.0525   -7.0060    6.2170 C   0  0  0  0  0  0  0  0  0  0  0  0
    3.7664   -8.4121    6.3430 C   0  0  1  0  0  0  0  0  0  0  0  0
    4.2521   -8.3091    7.6731 O   0  0  0  0  0  0  0  0  0  0  0  0
    5.1378   -8.4699    5.5594 C   0  0  0  0  0  0  0  0  0  0  0  0
    5.2624   -7.6110    4.2954 C   0  0  1  0  0  0  0  0  0  0  0  0
    4.7827   -8.2734    2.9712 C   0  0  1  0  0  0  0  0  0  0  0  0
    5.5509   -9.4423    2.6959 O   0  0  0  0  0  0  0  0  0  0  0  0
    5.6962   -9.7604    1.3098 C   0  0  0  0  0  0  0  0  0  0  0  0
    4.9368   -6.1047    4.5840 C   0  0  2  0  0  0  0  0  0  0  0  0
    5.9748   -5.6663    5.6764 C   0  0  0  0  0  0  0  0  0  0  0  0
    7.1372   -5.4314    5.2737 O   0  0  0  0  0  0  0  0  0  0  0  0
    5.6524   -5.6504    6.8882 O   0  0  0  0  0  0  0  0  0  0  0  0
    5.3063   -5.2079    3.3461 C   0  0  0  0  0  0  0  0  0  0  0  0
    4.2829   -4.9213    2.3073 N   0  0  1  0  0  0  0  0  0  0  0  0
    4.5885   -5.3547    0.9205 C   0  0  0  0  0  0  0  0  0  0  0  0
    6.5988  -12.3461    2.8710 H   0  0  0  0  0  0  0  0  0  0  0  0
    4.8749  -12.4010    2.4807 H   0  0  0  0  0  0  0  0  0  0  0  0
    5.6567  -13.7963    3.2287 H   0  0  0  0  0  0  0  0  0  0  0  0
    6.0630  -12.3638    5.3419 H   0  0  0  0  0  0  0  0  0  0  0  0
    3.5614  -11.8575    6.9394 H   0  0  0  0  0  0  0  0  0  0  0  0
    4.8850  -10.7903    6.9199 H   0  0  0  0  0  0  0  0  0  0  0  0
    1.8943  -10.7735    7.7925 H   0  0  0  0  0  0  0  0  0  0  0  0
   -0.2000  -10.1117    5.8847 H   0  0  0  0  0  0  0  0  0  0  0  0
    0.3623   -8.4902    5.7351 H   0  0  0  0  0  0  0  0  0  0  0  0
   -0.8126  -10.0938    3.6535 H   0  0  0  0  0  0  0  0  0  0  0  0
   -0.2601   -8.5037    3.4978 H   0  0  0  0  0  0  0  0  0  0  0  0
    0.7814  -11.0170    2.3475 H   0  0  0  0  0  0  0  0  0  0  0  0
    0.9094   -9.4487    1.7237 H   0  0  0  0  0  0  0  0  0  0  0  0
    3.0371  -10.5423    1.9573 H   0  0  0  0  0  0  0  0  0  0  0  0
    3.6270  -10.2725    4.1900 H   0  0  0  0  0  0  0  0  0  0  0  0
    2.0006  -12.1768    5.5903 H   0  0  0  0  0  0  0  0  0  0  0  0
    0.9664  -11.7341    4.3668 H   0  0  0  0  0  0  0  0  0  0  0  0
    3.1902   -8.3788    1.6773 H   0  0  0  0  0  0  0  0  0  0  0  0
    1.4790   -7.4021    2.5261 H   0  0  0  0  0  0  0  0  0  0  0  0
    1.8719   -7.9277    4.1343 H   0  0  0  0  0  0  0  0  0  0  0  0
    0.9457   -6.3408    4.8453 H   0  0  0  0  0  0  0  0  0  0  0  0
    2.3188   -5.3507    1.7926 H   0  0  0  0  0  0  0  0  0  0  0  0
    1.2278   -3.5588    2.9039 H   0  0  0  0  0  0  0  0  0  0  0  0
    3.4159   -2.6264    1.2548 H   0  0  0  0  0  0  0  0  0  0  0  0
    1.9397   -1.7460    1.7274 H   0  0  0  0  0  0  0  0  0  0  0  0
    1.9586   -2.2708    4.6296 H   0  0  0  0  0  0  0  0  0  0  0  0
    3.6526   -4.3984    6.6579 H   0  0  0  0  0  0  0  0  0  0  0  0
    2.1246   -4.3488    5.9596 H   0  0  0  0  0  0  0  0  0  0  0  0
    3.1267   -6.4760    7.1824 H   0  0  0  0  0  0  0  0  0  0  0  0
    1.9968   -7.1954    6.1783 H   0  0  0  0  0  0  0  0  0  0  0  0
    4.7028   -9.0988    7.9202 H   0  0  0  0  0  0  0  0  0  0  0  0
    5.9717   -8.2029    6.2247 H   0  0  0  0  0  0  0  0  0  0  0  0
    5.4906   -9.4395    5.2667 H   0  0  0  0  0  0  0  0  0  0  0  0
    6.3386   -7.6282    4.1104 H   0  0  0  0  0  0  0  0  0  0  0  0
    5.1179   -7.5818    2.2058 H   0  0  0  0  0  0  0  0  0  0  0  0
    6.1694  -10.7341    1.1960 H   0  0  0  0  0  0  0  0  0  0  0  0
    6.3258   -9.0288    0.8082 H   0  0  0  0  0  0  0  0  0  0  0  0
    4.7532   -9.8088    0.7652 H   0  0  0  0  0  0  0  0  0  0  0  0
    5.6143   -4.2223    3.6865 H   0  0  0  0  0  0  0  0  0  0  0  0
    6.2071   -5.5812    2.8724 H   0  0  0  0  0  0  0  0  0  0  0  0
    4.2355   -6.3581    0.7089 H   0  0  0  0  0  0  0  0  0  0  0  0
    5.6504   -5.3053    0.7037 H   0  0  0  0  0  0  0  0  0  0  0  0
    4.0932   -4.7039    0.2050 H   0  0  0  0  0  0  0  0  0  0  0  0
    4.3953   -3.9188    2.2316 H   0  0  0  0  0  0  0  0  0  0  0  0
    2.2526   -9.5416    4.7048 H   0  0  0  0  0  0  0  0  0  0  0  0
  1  2  1  0
  1 41  1  0
  1 42  1  0
  1 43  1  0
  2  3  2  3
  2 44  1  0
  3 12  1  0
  3  4  1  0
  4  5  1  0
  4 45  1  0
  4 46  1  0
  5 27  1  0
  5  6  1  1
  5  7  1  0
  6 47  1  0
  7 13  1  0
  7  8  1  0
  7 85  1  6
  8  9  1  0
  8 48  1  0
  8 49  1  0
  9 10  1  0
  9 50  1  0
  9 51  1  0
 10 11  1  0
 10 52  1  0
 10 53  1  0
 11 12  1  0
 11 14  1  0
 11 54  1  6
 12 13  1  0
 12 55  1  6
 13 56  1  0
 13 57  1  0
 14 31  1  0
 14 15  1  0
 14 58  1  6
 15 16  1  0
 15 59  1  0
 15 60  1  0
 16 25  1  0
 16 17  1  1
 16 18  1  0
 17 61  1  0
 18 39  1  0
 18 19  1  0
 18 62  1  6
 19 22  1  0
 19 20  1  0
 19 63  1  1
 20 21  1  0
 20 64  1  0
 20 65  1  0
 21 22  1  0
 22 23  1  0
 22 66  1  1
 23 24  1  0
 25 24  1  1
 24 67  1  0
 24 68  1  0
 25 34  1  0
 25 26  1  0
 26 27  1  0
 26 69  1  0
 26 70  1  0
 27 28  1  1
 27 29  1  0
 28 71  1  0
 29 30  1  0
 29 72  1  0
 29 73  1  0
 30 31  1  0
 30 34  1  0
 30 74  1  6
 31 32  1  0
 31 75  1  6
 32 33  1  0
 33 76  1  0
 33 77  1  0
 33 78  1  0
 34 35  1  1
 34 38  1  0
 35 36  2  0
 35 37  1  0
 38 39  1  0
 38 79  1  0
 38 80  1  0
 39 40  1  0
 39 84  1  6
 40 81  1  0
 40 82  1  0
 40 83  1  0
M  CHG  3   7   1  37  -1  39   1
M  END
>  <i_m_ct_stereo_status>  (207) 
1

>  <s_m_source_file>  (207) 
/var/tmp/pbs.5076255.sched01/tmp9vbryffn/46pprzbbw9.sdf

>  <i_m_source_file_index>  (207) 
46

>  <i_lp_mmshare_version>  (207) 
48012

>  <i_f3d_flags>  (207) 
0

>  <s_epik_input>  (207) 
W0NIM10vW0NIXT1DKFxbQ0gyXTEpW0NASF0oW0NIMl0yKVtDQEhdKFtDQEBIXShbQ0gyXTMpW0NAQEhdNE9bQ0gzXSlbQ0gyXVtDSDJdW0NIMl1OMltDQF0xKFtPSF0pW0NAQF0oW0NIMl01KShbT0hdKVtDSDJdW0NAQEhdNFtDQEBdNihDKD1PKVtPSF0pW0NIMl1OKFtDSDNdKVtDQEBIXShbQ0BAXTMoW0NAQF01NjcpW09IXSlbQ0BIXThbQ0BIXShPW0NIMl04KU9bQ0gyXTc=

>  <s_epik_cmdline>  (207) 
J2VwaWtfcHl0aG9uJywgJy1waHQnLCAnMi4wJywgJy1waCcsICc3LjAnLCAnLXRuJywgJzgnLCAnLW1hJywgJzIwMCcsICctaW1hZScsICc8aW5maWxlLm1hZT4nLCAnLW9tYWUnLCAnPG91dGZpbGUubWFlPic=

>  <r_epik_Ionization_Penalty>  (207) 
0.0278389

>  <r_epik_Ionization_Penalty_Charging>  (207) 
0.0241105

>  <r_epik_Ionization_Penalty_Neutral>  (207) 
0.00372844

>  <r_epik_State_Penalty>  (207) 
0.0181125

>  <r_epik_Charging_Adjusted_Penalty>  (207) 
0.042223

>  <i_epik_Tot_Q>  (207) 
1

>  <i_epik_Tot_abs_Q>  (207) 
3

>  <s_epik_Chemistry_Notes>  (207) 
This compound contains an acetal/aminal-like group ( X-CH(R)-Y where X, Y are N, S, or O) that may be acid/base labile, releasing an aldehyde.

>  <s_lp_Force_Field>  (207) 
OPLS3e

>  <r_lp_Energy>  (207) 
270.703

>  <b_lp_Chiralities_Consistent>  (207) 
1

>  <s_lp_Variant>  (207) 
56:0-2

>  <s_i_glide_gridfile>  (207) 
pfpi4k_grid

>  <i_i_glide_lignum>  (207) 
46

>  <i_i_glide_rotatable_bonds>  (207) 
5

>  <r_i_docking_score>  (207) 
-2.76972

>  <r_i_glide_ligand_efficiency>  (207) 
-0.069243

>  <r_i_glide_ligand_efficiency_sa>  (207) 
-0.236808

>  <r_i_glide_ligand_efficiency_ln>  (207) 
-0.590699

>  <r_i_glide_gscore>  (207) 
-2.76972

>  <r_i_glide_lipo>  (207) 
-0.197978

>  <r_i_glide_hbond>  (207) 
0

>  <r_i_glide_metal>  (207) 
-0

>  <r_i_glide_rewards>  (207) 
-0.000202322

>  <r_i_glide_evdw>  (207) 
-18.2751

>  <r_i_glide_ecoul>  (207) 
-10.2673

>  <r_i_glide_erotb>  (207) 
0

>  <r_i_glide_esite>  (207) 
-0.117695

>  <r_i_glide_emodel>  (207) 
-34.565

>  <r_i_glide_energy>  (207) 
-28.5423

>  <r_i_glide_einternal>  (207) 
1.35317

>  <r_i_glide_intrahb_reward>  (207) 
-0

>  <i_i_glide_confnum>  (207) 
1

>  <i_i_glide_posenum>  (207) 
8

>  <r_i_glide_eff_state_penalty>  (207) 
0

>  <ligand_id>  (207) 
56

>  <original_smiles>  (207) 
CC=C1CC2(O)N3CCCC(C1C3)C1CC3(O)C4C5COC5OCC35CC2(O)CC(C1OC)C5(C(=O)O)CN4C

>  <smiles>  (207) 
[H]OC12C([H])([H])C3([H])C([H])(OC([H])([H])[H])C4([H])C([H])([H])C(O[H])(C([H])([H])C15C([H])([H])OC1([H])OC([H])([H])C1([H])C2([H])[N+]([H])(C([H])([H])[H])C([H])([H])C45C(=O)[O-])C1(O[H])C([H])([H])C(=C([H])C([H])([H])[H])C2([H])C3([H])C([H])([H])C([H])([H])C([H])([H])[N+]1([H])C2([H])[H]

$$$$
56:1:1
     RDKit          3D

 85 92  0  0  1  0  0  0  0  0999 V2000
    6.7157   -9.0865    1.4386 C   0  0  0  0  0  0  0  0  0  0  0  0
    6.5925   -9.6800    2.8201 C   0  0  0  0  0  0  0  0  0  0  0  0
    5.4240  -10.0542    3.4232 C   0  0  0  0  0  0  0  0  0  0  0  0
    5.3938  -10.7460    4.8216 C   0  0  0  0  0  0  0  0  0  0  0  0
    3.9748  -10.6303    5.5275 C   0  0  2  0  0  0  0  0  0  0  0  0
    3.8120  -11.7746    6.3387 O   0  0  0  0  0  0  0  0  0  0  0  0
    2.9131  -10.8799    4.4494 N   0  0  2  0  0  0  0  0  0  0  0  0
    1.4860  -11.1844    4.5530 C   0  0  0  0  0  0  0  0  0  0  0  0
    0.7488  -10.5429    3.2920 C   0  0  0  0  0  0  0  0  0  0  0  0
    1.5225   -9.6436    2.1956 C   0  0  0  0  0  0  0  0  0  0  0  0
    2.8949   -8.9197    2.5040 C   0  0  2  0  0  0  0  0  0  0  0  0
    4.0561  -10.0159    2.7319 C   0  0  1  0  0  0  0  0  0  0  0  0
    3.4499  -11.3273    3.1753 C   0  0  0  0  0  0  0  0  0  0  0  0
    2.6099   -7.6055    3.4082 C   0  0  1  0  0  0  0  0  0  0  0  0
    1.4149   -7.7836    4.3703 C   0  0  0  0  0  0  0  0  0  0  0  0
    1.0855   -7.0459    5.6824 C   0  0  2  0  0  0  0  0  0  0  0  0
   -0.0559   -7.8177    6.0303 O   0  0  0  0  0  0  0  0  0  0  0  0
    0.5031   -5.6182    5.4822 C   0  0  1  0  0  0  0  0  0  0  0  0
   -0.5787   -5.1805    6.4972 C   0  0  2  0  0  0  0  0  0  0  0  0
   -1.0410   -3.7322    6.6244 C   0  0  0  0  0  0  0  0  0  0  0  0
   -0.4695   -3.6195    7.9529 O   0  0  0  0  0  0  0  0  0  0  0  0
   -0.2725   -5.0603    7.9881 C   0  0  2  0  0  0  0  0  0  0  0  0
    1.0597   -5.4314    8.2883 O   0  0  0  0  0  0  0  0  0  0  0  0
    1.3755   -6.8149    8.1812 C   0  0  0  0  0  0  0  0  0  0  0  0
    2.1215   -7.1993    6.8432 C   0  0  1  0  0  0  0  0  0  0  0  0
    2.6329   -8.7151    7.0471 C   0  0  0  0  0  0  0  0  0  0  0  0
    3.9541   -9.2501    6.3585 C   0  0  1  0  0  0  0  0  0  0  0  0
    4.7235   -9.6378    7.4863 O   0  0  0  0  0  0  0  0  0  0  0  0
    4.8881   -8.0822    5.8479 C   0  0  0  0  0  0  0  0  0  0  0  0
    4.2228   -6.7738    5.4015 C   0  0  1  0  0  0  0  0  0  0  0  0
    3.7854   -6.7154    3.9082 C   0  0  1  0  0  0  0  0  0  0  0  0
    4.9131   -6.8538    3.0480 O   0  0  0  0  0  0  0  0  0  0  0  0
    4.7991   -6.1897    1.7867 C   0  0  0  0  0  0  0  0  0  0  0  0
    3.2913   -6.1877    6.5190 C   0  0  2  0  0  0  0  0  0  0  0  0
    4.2210   -5.9489    7.7569 C   0  0  0  0  0  0  0  0  0  0  0  0
    4.8756   -4.8801    7.7825 O   0  0  0  0  0  0  0  0  0  0  0  0
    4.3317   -6.8381    8.6434 O   0  0  0  0  0  0  0  0  0  0  0  0
    2.8056   -4.7444    6.1365 C   0  0  0  0  0  0  0  0  0  0  0  0
    1.5324   -4.5615    5.3978 N   0  0  1  0  0  0  0  0  0  0  0  0
    1.6104   -3.8828    4.0836 C   0  0  0  0  0  0  0  0  0  0  0  0
    7.2634   -8.1439    1.5040 H   0  0  0  0  0  0  0  0  0  0  0  0
    5.7469   -8.9056    0.9748 H   0  0  0  0  0  0  0  0  0  0  0  0
    7.2744   -9.7484    0.7804 H   0  0  0  0  0  0  0  0  0  0  0  0
    7.5163   -9.8244    3.3553 H   0  0  0  0  0  0  0  0  0  0  0  0
    5.6484  -11.7974    4.6798 H   0  0  0  0  0  0  0  0  0  0  0  0
    6.2114  -10.4000    5.4558 H   0  0  0  0  0  0  0  0  0  0  0  0
    2.9362  -11.8558    6.7077 H   0  0  0  0  0  0  0  0  0  0  0  0
    1.3526  -12.2578    4.5299 H   0  0  0  0  0  0  0  0  0  0  0  0
    1.0119  -10.8605    5.4727 H   0  0  0  0  0  0  0  0  0  0  0  0
    0.2685  -11.3483    2.7291 H   0  0  0  0  0  0  0  0  0  0  0  0
   -0.1140   -9.9732    3.6509 H   0  0  0  0  0  0  0  0  0  0  0  0
    1.6979  -10.2540    1.3074 H   0  0  0  0  0  0  0  0  0  0  0  0
    0.8183   -8.9025    1.8040 H   0  0  0  0  0  0  0  0  0  0  0  0
    3.1821   -8.5157    1.5399 H   0  0  0  0  0  0  0  0  0  0  0  0
    4.1535   -9.2759    3.5089 H   0  0  0  0  0  0  0  0  0  0  0  0
    4.1286  -12.1644    3.2743 H   0  0  0  0  0  0  0  0  0  0  0  0
    2.7407  -11.7461    2.4709 H   0  0  0  0  0  0  0  0  0  0  0  0
    2.1641   -6.9432    2.6675 H   0  0  0  0  0  0  0  0  0  0  0  0
    0.5110   -7.7735    3.7531 H   0  0  0  0  0  0  0  0  0  0  0  0
    1.5458   -8.7793    4.7200 H   0  0  0  0  0  0  0  0  0  0  0  0
    0.1754   -8.7337    6.0727 H   0  0  0  0  0  0  0  0  0  0  0  0
   -0.0156   -5.6378    4.5330 H   0  0  0  0  0  0  0  0  0  0  0  0
   -1.4851   -5.7589    6.3755 H   0  0  0  0  0  0  0  0  0  0  0  0
   -0.6016   -3.0476    5.9066 H   0  0  0  0  0  0  0  0  0  0  0  0
   -2.1247   -3.6047    6.6517 H   0  0  0  0  0  0  0  0  0  0  0  0
   -1.0415   -5.5341    8.6081 H   0  0  0  0  0  0  0  0  0  0  0  0
    2.0056   -7.0135    9.0425 H   0  0  0  0  0  0  0  0  0  0  0  0
    0.5113   -7.4540    8.3902 H   0  0  0  0  0  0  0  0  0  0  0  0
    2.6978   -8.8845    8.1355 H   0  0  0  0  0  0  0  0  0  0  0  0
    1.8407   -9.3953    6.7873 H   0  0  0  0  0  0  0  0  0  0  0  0
    4.3338  -10.3994    7.8806 H   0  0  0  0  0  0  0  0  0  0  0  0
    5.6402   -7.8276    6.6102 H   0  0  0  0  0  0  0  0  0  0  0  0
    5.5756   -8.3224    5.0622 H   0  0  0  0  0  0  0  0  0  0  0  0
    5.0701   -6.0849    5.3662 H   0  0  0  0  0  0  0  0  0  0  0  0
    3.5065   -5.6773    3.7709 H   0  0  0  0  0  0  0  0  0  0  0  0
    5.6351   -6.4655    1.1451 H   0  0  0  0  0  0  0  0  0  0  0  0
    4.8189   -5.1091    1.9080 H   0  0  0  0  0  0  0  0  0  0  0  0
    3.8929   -6.4401    1.2336 H   0  0  0  0  0  0  0  0  0  0  0  0
    2.6579   -4.1589    7.0385 H   0  0  0  0  0  0  0  0  0  0  0  0
    3.6008   -4.2068    5.6342 H   0  0  0  0  0  0  0  0  0  0  0  0
    1.7547   -4.5760    3.2682 H   0  0  0  0  0  0  0  0  0  0  0  0
    2.3972   -3.1406    4.0576 H   0  0  0  0  0  0  0  0  0  0  0  0
    0.6824   -3.3582    3.8778 H   0  0  0  0  0  0  0  0  0  0  0  0
    1.1160   -3.8451    5.9726 H   0  0  0  0  0  0  0  0  0  0  0  0
    2.8048   -9.9035    4.2194 H   0  0  0  0  0  0  0  0  0  0  0  0
  1  2  1  0
  1 41  1  0
  1 42  1  0
  1 43  1  0
  2  3  2  3
  2 44  1  0
  3 12  1  0
  3  4  1  0
  4  5  1  0
  4 45  1  0
  4 46  1  0
  5 27  1  0
  5  6  1  1
  5  7  1  0
  6 47  1  0
  7 13  1  0
  7  8  1  0
  7 85  1  6
  8  9  1  0
  8 48  1  0
  8 49  1  0
  9 10  1  0
  9 50  1  0
  9 51  1  0
 10 11  1  0
 10 52  1  0
 10 53  1  0
 11 12  1  0
 11 14  1  0
 11 54  1  6
 12 13  1  0
 12 55  1  6
 13 56  1  0
 13 57  1  0
 14 31  1  0
 14 15  1  0
 14 58  1  6
 15 16  1  0
 15 59  1  0
 15 60  1  0
 16 25  1  0
 16 17  1  1
 16 18  1  0
 17 61  1  0
 18 39  1  0
 18 19  1  0
 18 62  1  6
 19 22  1  0
 19 20  1  0
 19 63  1  1
 20 21  1  0
 20 64  1  0
 20 65  1  0
 21 22  1  0
 22 23  1  0
 22 66  1  1
 23 24  1  0
 25 24  1  1
 24 67  1  0
 24 68  1  0
 25 34  1  0
 25 26  1  0
 26 27  1  0
 26 69  1  0
 26 70  1  0
 27 28  1  1
 27 29  1  0
 28 71  1  0
 29 30  1  0
 29 72  1  0
 29 73  1  0
 30 31  1  0
 30 34  1  0
 30 74  1  6
 31 32  1  0
 31 75  1  1
 32 33  1  0
 33 76  1  0
 33 77  1  0
 33 78  1  0
 34 35  1  1
 34 38  1  0
 35 36  2  0
 35 37  1  0
 38 39  1  0
 38 79  1  0
 38 80  1  0
 39 40  1  0
 39 84  1  1
 40 81  1  0
 40 82  1  0
 40 83  1  0
M  CHG  3   7   1  37  -1  39   1
M  END
>  <i_m_ct_stereo_status>  (208) 
1

>  <s_m_source_file>  (208) 
/var/tmp/pbs.5076255.sched01/tmp9vbryffn/46pprzbbw9.sdf

>  <i_m_source_file_index>  (208) 
46

>  <i_lp_mmshare_version>  (208) 
48012

>  <i_f3d_flags>  (208) 
0

>  <s_epik_input>  (208) 
W0NIM10vW0NIXT1DKFxbQ0gyXTEpW0NASF0oW0NIMl0yKVtDQEhdKFtDQEBIXShbQ0gyXTMpW0NAQEhdNE9bQ0gzXSlbQ0gyXVtDSDJdW0NIMl1OMltDQF0xKFtPSF0pW0NAQF0oW0NIMl01KShbT0hdKVtDSDJdW0NAQEhdNFtDQEBdNihDKD1PKVtPSF0pW0NIMl1OKFtDSDNdKVtDQEBIXShbQ0BAXTMoW0NAQF01NjcpW09IXSlbQ0BIXThbQ0BIXShPW0NIMl04KU9bQ0gyXTc=

>  <s_epik_cmdline>  (208) 
J2VwaWtfcHl0aG9uJywgJy1waHQnLCAnMi4wJywgJy1waCcsICc3LjAnLCAnLXRuJywgJzgnLCAnLW1hJywgJzIwMCcsICctaW1hZScsICc8aW5maWxlLm1hZT4nLCAnLW9tYWUnLCAnPG91dGZpbGUubWFlPic=

>  <r_epik_Ionization_Penalty>  (208) 
0.0278389

>  <r_epik_Ionization_Penalty_Charging>  (208) 
0.0241105

>  <r_epik_Ionization_Penalty_Neutral>  (208) 
0.00372844

>  <r_epik_State_Penalty>  (208) 
0.0181125

>  <r_epik_Charging_Adjusted_Penalty>  (208) 
0.042223

>  <i_epik_Tot_Q>  (208) 
1

>  <i_epik_Tot_abs_Q>  (208) 
3

>  <s_epik_Chemistry_Notes>  (208) 
This compound contains an acetal/aminal-like group ( X-CH(R)-Y where X, Y are N, S, or O) that may be acid/base labile, releasing an aldehyde.

>  <s_lp_Force_Field>  (208) 
OPLS3e

>  <r_lp_Energy>  (208) 
270.703

>  <b_lp_Chiralities_Consistent>  (208) 
1

>  <s_lp_Variant>  (208) 
56:0-2

>  <s_i_glide_gridfile>  (208) 
pfpi4k_grid

>  <i_i_glide_lignum>  (208) 
46

>  <i_i_glide_rotatable_bonds>  (208) 
5

>  <r_i_docking_score>  (208) 
-2.71298

>  <r_i_glide_ligand_efficiency>  (208) 
-0.0678246

>  <r_i_glide_ligand_efficiency_sa>  (208) 
-0.231957

>  <r_i_glide_ligand_efficiency_ln>  (208) 
-0.5786

>  <r_i_glide_gscore>  (208) 
-2.71298

>  <r_i_glide_lipo>  (208) 
-0.350781

>  <r_i_glide_hbond>  (208) 
0

>  <r_i_glide_metal>  (208) 
-0

>  <r_i_glide_rewards>  (208) 
-0.0207543

>  <r_i_glide_evdw>  (208) 
-19.4042

>  <r_i_glide_ecoul>  (208) 
-8.82396

>  <r_i_glide_erotb>  (208) 
0

>  <r_i_glide_esite>  (208) 
-0.0476486

>  <r_i_glide_emodel>  (208) 
-34.0775

>  <r_i_glide_energy>  (208) 
-28.2281

>  <r_i_glide_einternal>  (208) 
1.1694

>  <r_i_glide_intrahb_reward>  (208) 
-0

>  <i_i_glide_confnum>  (208) 
2

>  <i_i_glide_posenum>  (208) 
32

>  <r_i_glide_eff_state_penalty>  (208) 
0

>  <ligand_id>  (208) 
56

>  <original_smiles>  (208) 
CC=C1CC2(O)N3CCCC(C1C3)C1CC3(O)C4C5COC5OCC35CC2(O)CC(C1OC)C5(C(=O)O)CN4C

>  <smiles>  (208) 
[H]OC12C([H])([H])C3([H])C([H])(OC([H])([H])[H])C4([H])C([H])([H])C(O[H])(C([H])([H])C15C([H])([H])OC1([H])OC([H])([H])C1([H])C2([H])[N+]([H])(C([H])([H])[H])C([H])([H])C45C(=O)[O-])C1(O[H])C([H])([H])C(=C([H])C([H])([H])[H])C2([H])C3([H])C([H])([H])C([H])([H])C([H])([H])[N+]1([H])C2([H])[H]

$$$$
56:1:2
     RDKit          3D

 85 92  0  0  1  0  0  0  0  0999 V2000
    6.2622   -9.1235    1.9157 C   0  0  0  0  0  0  0  0  0  0  0  0
    5.5225   -9.8574    3.0141 C   0  0  0  0  0  0  0  0  0  0  0  0
    4.1979   -9.7885    3.2686 C   0  0  0  0  0  0  0  0  0  0  0  0
    3.4965  -10.6702    4.3670 C   0  0  0  0  0  0  0  0  0  0  0  0
    2.0907  -10.0633    4.8189 C   0  0  2  0  0  0  0  0  0  0  0  0
    1.1241  -11.0315    5.1924 O   0  0  0  0  0  0  0  0  0  0  0  0
    1.3847   -9.5845    3.5495 N   0  0  2  0  0  0  0  0  0  0  0  0
   -0.0203   -9.2391    3.3075 C   0  0  0  0  0  0  0  0  0  0  0  0
   -0.0689   -8.0950    2.2035 C   0  0  0  0  0  0  0  0  0  0  0  0
    1.2660   -7.4420    1.5738 C   0  0  0  0  0  0  0  0  0  0  0  0
    2.6732   -7.4792    2.3151 C   0  0  2  0  0  0  0  0  0  0  0  0
    3.2060   -8.9975    2.3957 C   0  0  1  0  0  0  0  0  0  0  0  0
    2.0514   -9.9559    2.3195 C   0  0  0  0  0  0  0  0  0  0  0  0
    2.6722   -6.3969    3.5215 C   0  0  1  0  0  0  0  0  0  0  0  0
    1.2710   -6.2056    4.1547 C   0  0  0  0  0  0  0  0  0  0  0  0
    0.8797   -5.6839    5.5503 C   0  0  2  0  0  0  0  0  0  0  0  0
   -0.5158   -5.9076    5.4580 O   0  0  0  0  0  0  0  0  0  0  0  0
    0.9810   -4.1345    5.6953 C   0  0  1  0  0  0  0  0  0  0  0  0
   -0.0824   -3.4746    6.5953 C   0  0  2  0  0  0  0  0  0  0  0  0
    0.0281   -2.0362    7.0674 C   0  0  0  0  0  0  0  0  0  0  0  0
    0.1543   -2.4547    8.4486 O   0  0  0  0  0  0  0  0  0  0  0  0
   -0.2009   -3.8084    8.0753 C   0  0  2  0  0  0  0  0  0  0  0  0
    0.7589   -4.7817    8.4679 O   0  0  0  0  0  0  0  0  0  0  0  0
    0.5150   -6.1063    8.0105 C   0  0  0  0  0  0  0  0  0  0  0  0
    1.4028   -6.5110    6.7683 C   0  0  1  0  0  0  0  0  0  0  0  0
    1.2196   -8.1024    6.6015 C   0  0  0  0  0  0  0  0  0  0  0  0
    2.3741   -9.0128    6.0077 C   0  0  1  0  0  0  0  0  0  0  0  0
    2.6623   -9.8904    7.0853 O   0  0  0  0  0  0  0  0  0  0  0  0
    3.7799   -8.3073    6.0486 C   0  0  0  0  0  0  0  0  0  0  0  0
    3.8132   -6.7867    5.9227 C   0  0  1  0  0  0  0  0  0  0  0  0
    3.8975   -6.2465    4.4641 C   0  0  1  0  0  0  0  0  0  0  0  0
    5.0441   -6.7092    3.7528 O   0  0  0  0  0  0  0  0  0  0  0  0
    6.2971   -6.1453    4.1294 C   0  0  0  0  0  0  0  0  0  0  0  0
    2.9055   -6.0861    6.9768 C   0  0  2  0  0  0  0  0  0  0  0  0
    3.4621   -6.5326    8.3672 C   0  0  0  0  0  0  0  0  0  0  0  0
    4.4563   -5.9052    8.8017 O   0  0  0  0  0  0  0  0  0  0  0  0
    2.9669   -7.5193    8.9550 O   0  0  0  0  0  0  0  0  0  0  0  0
    3.1478   -4.5326    6.9613 C   0  0  0  0  0  0  0  0  0  0  0  0
    2.3171   -3.6600    6.1004 N   0  0  1  0  0  0  0  0  0  0  0  0
    3.0171   -2.8344    5.0954 C   0  0  0  0  0  0  0  0  0  0  0  0
    7.0870   -8.5573    2.3477 H   0  0  0  0  0  0  0  0  0  0  0  0
    5.6147   -8.4338    1.3706 H   0  0  0  0  0  0  0  0  0  0  0  0
    6.6862   -9.8316    1.2024 H   0  0  0  0  0  0  0  0  0  0  0  0
    6.1333  -10.5102    3.6258 H   0  0  0  0  0  0  0  0  0  0  0  0
    3.3590  -11.6691    3.9541 H   0  0  0  0  0  0  0  0  0  0  0  0
    4.1727  -10.8503    5.1978 H   0  0  0  0  0  0  0  0  0  0  0  0
    1.3926  -11.5239    5.9678 H   0  0  0  0  0  0  0  0  0  0  0  0
   -0.5397  -10.1194    2.9431 H   0  0  0  0  0  0  0  0  0  0  0  0
   -0.5720   -8.9480    4.1944 H   0  0  0  0  0  0  0  0  0  0  0  0
   -0.6534   -8.4589    1.3666 H   0  0  0  0  0  0  0  0  0  0  0  0
   -0.6995   -7.2956    2.5732 H   0  0  0  0  0  0  0  0  0  0  0  0
    1.4054   -7.8811    0.5847 H   0  0  0  0  0  0  0  0  0  0  0  0
    1.0466   -6.4039    1.3064 H   0  0  0  0  0  0  0  0  0  0  0  0
    3.3756   -7.0396    1.6076 H   0  0  0  0  0  0  0  0  0  0  0  0
    3.3476   -8.5577    3.3680 H   0  0  0  0  0  0  0  0  0  0  0  0
    2.2981  -11.0103    2.2847 H   0  0  0  0  0  0  0  0  0  0  0  0
    1.4622   -9.8614    1.4117 H   0  0  0  0  0  0  0  0  0  0  0  0
    2.7670   -5.4761    2.9445 H   0  0  0  0  0  0  0  0  0  0  0  0
    0.6609   -5.6677    3.4244 H   0  0  0  0  0  0  0  0  0  0  0  0
    0.8974   -7.1982    4.2087 H   0  0  0  0  0  0  0  0  0  0  0  0
   -0.6683   -6.8342    5.3970 H   0  0  0  0  0  0  0  0  0  0  0  0
    0.7871   -3.7295    4.7042 H   0  0  0  0  0  0  0  0  0  0  0  0
   -1.0698   -3.5479    6.1633 H   0  0  0  0  0  0  0  0  0  0  0  0
    0.8907   -1.4916    6.6848 H   0  0  0  0  0  0  0  0  0  0  0  0
   -0.8679   -1.4352    6.9029 H   0  0  0  0  0  0  0  0  0  0  0  0
   -1.2304   -4.0266    8.3677 H   0  0  0  0  0  0  0  0  0  0  0  0
    0.7471   -6.7323    8.8640 H   0  0  0  0  0  0  0  0  0  0  0  0
   -0.5483   -6.3121    7.8687 H   0  0  0  0  0  0  0  0  0  0  0  0
    0.9084   -8.5095    7.5756 H   0  0  0  0  0  0  0  0  0  0  0  0
    0.3425   -8.2914    6.0028 H   0  0  0  0  0  0  0  0  0  0  0  0
    2.0270  -10.5729    7.2464 H   0  0  0  0  0  0  0  0  0  0  0  0
    4.3403   -8.5655    6.9608 H   0  0  0  0  0  0  0  0  0  0  0  0
    4.5181   -8.6610    5.3513 H   0  0  0  0  0  0  0  0  0  0  0  0
    4.8088   -6.5567    6.2924 H   0  0  0  0  0  0  0  0  0  0  0  0
    4.0814   -5.1823    4.5560 H   0  0  0  0  0  0  0  0  0  0  0  0
    7.0712   -6.4923    3.4490 H   0  0  0  0  0  0  0  0  0  0  0  0
    6.6134   -6.4526    5.1264 H   0  0  0  0  0  0  0  0  0  0  0  0
    6.2909   -5.0551    4.0843 H   0  0  0  0  0  0  0  0  0  0  0  0
    2.9964   -4.1325    7.9608 H   0  0  0  0  0  0  0  0  0  0  0  0
    4.1955   -4.3179    6.7892 H   0  0  0  0  0  0  0  0  0  0  0  0
    3.1104   -3.3368    4.1408 H   0  0  0  0  0  0  0  0  0  0  0  0
    4.0015   -2.5315    5.4268 H   0  0  0  0  0  0  0  0  0  0  0  0
    2.4653   -1.9226    4.9008 H   0  0  0  0  0  0  0  0  0  0  0  0
    2.0624   -2.9548    6.7897 H   0  0  0  0  0  0  0  0  0  0  0  0
    1.7343   -8.6360    3.6198 H   0  0  0  0  0  0  0  0  0  0  0  0
  1  2  1  0
  1 41  1  0
  1 42  1  0
  1 43  1  0
  2  3  2  3
  2 44  1  0
  3 12  1  0
  3  4  1  0
  4  5  1  0
  4 45  1  0
  4 46  1  0
  5 27  1  0
  5  6  1  1
  5  7  1  0
  6 47  1  0
  7 13  1  0
  7  8  1  0
  7 85  1  1
  8  9  1  0
  8 48  1  0
  8 49  1  0
  9 10  1  0
  9 50  1  0
  9 51  1  0
 10 11  1  0
 10 52  1  0
 10 53  1  0
 11 12  1  0
 11 14  1  0
 11 54  1  6
 12 13  1  0
 12 55  1  6
 13 56  1  0
 13 57  1  0
 14 31  1  0
 14 15  1  0
 14 58  1  6
 15 16  1  0
 15 59  1  0
 15 60  1  0
 16 25  1  0
 16 17  1  6
 16 18  1  0
 17 61  1  0
 18 39  1  0
 18 19  1  0
 18 62  1  6
 19 22  1  0
 19 20  1  0
 19 63  1  6
 20 21  1  0
 20 64  1  0
 20 65  1  0
 21 22  1  0
 22 23  1  0
 22 66  1  6
 23 24  1  0
 25 24  1  1
 24 67  1  0
 24 68  1  0
 25 34  1  0
 25 26  1  0
 26 27  1  0
 26 69  1  0
 26 70  1  0
 27 28  1  1
 27 29  1  0
 28 71  1  0
 29 30  1  0
 29 72  1  0
 29 73  1  0
 30 31  1  0
 30 34  1  0
 30 74  1  1
 31 32  1  0
 31 75  1  1
 32 33  1  0
 33 76  1  0
 33 77  1  0
 33 78  1  0
 34 35  1  1
 34 38  1  0
 35 36  2  0
 35 37  1  0
 38 39  1  0
 38 79  1  0
 38 80  1  0
 39 40  1  0
 39 84  1  1
 40 81  1  0
 40 82  1  0
 40 83  1  0
M  CHG  3   7   1  37  -1  39   1
M  END
>  <i_m_ct_stereo_status>  (209) 
1

>  <s_m_source_file>  (209) 
/var/tmp/pbs.5076255.sched01/tmp9vbryffn/46pprzbbw9.sdf

>  <i_m_source_file_index>  (209) 
46

>  <i_lp_mmshare_version>  (209) 
48012

>  <i_f3d_flags>  (209) 
0

>  <s_epik_input>  (209) 
W0NIM10vW0NIXT1DKFxbQ0gyXTEpW0NASF0oW0NIMl0yKVtDQEhdKFtDQEBIXShbQ0gyXTMpW0NAQEhdNE9bQ0gzXSlbQ0gyXVtDSDJdW0NIMl1OMltDQF0xKFtPSF0pW0NAQF0oW0NIMl01KShbT0hdKVtDSDJdW0NAQEhdNFtDQEBdNihDKD1PKVtPSF0pW0NIMl1OKFtDSDNdKVtDQEBIXShbQ0BAXTMoW0NAQF01NjcpW09IXSlbQ0BIXThbQ0BIXShPW0NIMl04KU9bQ0gyXTc=

>  <s_epik_cmdline>  (209) 
J2VwaWtfcHl0aG9uJywgJy1waHQnLCAnMi4wJywgJy1waCcsICc3LjAnLCAnLXRuJywgJzgnLCAnLW1hJywgJzIwMCcsICctaW1hZScsICc8aW5maWxlLm1hZT4nLCAnLW9tYWUnLCAnPG91dGZpbGUubWFlPic=

>  <r_epik_Ionization_Penalty>  (209) 
0.0278389

>  <r_epik_Ionization_Penalty_Charging>  (209) 
0.0241105

>  <r_epik_Ionization_Penalty_Neutral>  (209) 
0.00372844

>  <r_epik_State_Penalty>  (209) 
0.0181125

>  <r_epik_Charging_Adjusted_Penalty>  (209) 
0.042223

>  <i_epik_Tot_Q>  (209) 
1

>  <i_epik_Tot_abs_Q>  (209) 
3

>  <s_epik_Chemistry_Notes>  (209) 
This compound contains an acetal/aminal-like group ( X-CH(R)-Y where X, Y are N, S, or O) that may be acid/base labile, releasing an aldehyde.

>  <s_lp_Force_Field>  (209) 
OPLS3e

>  <r_lp_Energy>  (209) 
270.703

>  <b_lp_Chiralities_Consistent>  (209) 
1

>  <s_lp_Variant>  (209) 
56:0-2

>  <s_i_glide_gridfile>  (209) 
pfpi4k_grid

>  <i_i_glide_lignum>  (209) 
46

>  <i_i_glide_rotatable_bonds>  (209) 
5

>  <r_i_docking_score>  (209) 
-2.46634

>  <r_i_glide_ligand_efficiency>  (209) 
-0.0616585

>  <r_i_glide_ligand_efficiency_sa>  (209) 
-0.210869

>  <r_i_glide_ligand_efficiency_ln>  (209) 
-0.525998

>  <r_i_glide_gscore>  (209) 
-2.46634

>  <r_i_glide_lipo>  (209) 
-0.135023

>  <r_i_glide_hbond>  (209) 
-0.0965445

>  <r_i_glide_metal>  (209) 
-0

>  <r_i_glide_rewards>  (209) 
0

>  <r_i_glide_evdw>  (209) 
-18.8421

>  <r_i_glide_ecoul>  (209) 
-8.15074

>  <r_i_glide_erotb>  (209) 
0

>  <r_i_glide_esite>  (209) 
-0.0700582

>  <r_i_glide_emodel>  (209) 
-32.3557

>  <r_i_glide_energy>  (209) 
-26.9928

>  <r_i_glide_einternal>  (209) 
0.819789

>  <r_i_glide_intrahb_reward>  (209) 
-0

>  <i_i_glide_confnum>  (209) 
2

>  <i_i_glide_posenum>  (209) 
36

>  <r_i_glide_eff_state_penalty>  (209) 
0

>  <ligand_id>  (209) 
56

>  <original_smiles>  (209) 
CC=C1CC2(O)N3CCCC(C1C3)C1CC3(O)C4C5COC5OCC35CC2(O)CC(C1OC)C5(C(=O)O)CN4C

>  <smiles>  (209) 
[H]OC12C([H])([H])C3([H])C([H])(OC([H])([H])[H])C4([H])C([H])([H])C(O[H])(C([H])([H])C15C([H])([H])OC1([H])OC([H])([H])C1([H])C2([H])[N+]([H])(C([H])([H])[H])C([H])([H])C45C(=O)[O-])C1(O[H])C([H])([H])C(=C([H])C([H])([H])[H])C2([H])C3([H])C([H])([H])C([H])([H])C([H])([H])[N+]1([H])C2([H])[H]

$$$$
56:3:0
     RDKit          3D

 84 91  0  0  1  0  0  0  0  0999 V2000
   -1.7922    2.2142    9.1866 C   0  0  0  0  0  0  0  0  0  0  0  0
   -0.5350    2.9612    8.7776 C   0  0  0  0  0  0  0  0  0  0  0  0
   -0.0942    3.1213    7.5238 C   0  0  0  0  0  0  0  0  0  0  0  0
    1.0955    4.0711    7.1392 C   0  0  0  0  0  0  0  0  0  0  0  0
    1.5276    3.9087    5.6133 C   0  0  2  0  0  0  0  0  0  0  0  0
    2.2950    5.0629    5.3267 O   0  0  0  0  0  0  0  0  0  0  0  0
    0.2702    4.1388    4.7828 N   0  0  0  0  0  0  0  0  0  0  0  0
    0.1056    3.7617    3.3806 C   0  0  0  0  0  0  0  0  0  0  0  0
   -0.8432    2.5371    3.0450 C   0  0  0  0  0  0  0  0  0  0  0  0
   -1.6361    1.6406    4.0977 C   0  0  0  0  0  0  0  0  0  0  0  0
   -1.1507    1.3107    5.5644 C   0  0  2  0  0  0  0  0  0  0  0  0
   -0.8581    2.6814    6.2786 C   0  0  1  0  0  0  0  0  0  0  0  0
   -0.9854    3.9709    5.4751 C   0  0  0  0  0  0  0  0  0  0  0  0
   -0.2103   -0.0182    5.7047 C   0  0  1  0  0  0  0  0  0  0  0  0
    0.1150   -0.9223    4.4526 C   0  0  0  0  0  0  0  0  0  0  0  0
    1.3932   -0.7657    3.5123 C   0  0  2  0  0  0  0  0  0  0  0  0
    0.8211   -0.1769    2.3554 O   0  0  0  0  0  0  0  0  0  0  0  0
    1.9052   -2.2065    3.0860 C   0  0  1  0  0  0  0  0  0  0  0  0
    2.5429   -2.2423    1.6612 C   0  0  2  0  0  0  0  0  0  0  0  0
    3.2137   -3.4747    1.0445 C   0  0  0  0  0  0  0  0  0  0  0  0
    4.5259   -2.9186    1.2744 O   0  0  0  0  0  0  0  0  0  0  0  0
    3.9188   -1.6129    1.4422 C   0  0  2  0  0  0  0  0  0  0  0  0
    4.3802   -0.9380    2.5935 O   0  0  0  0  0  0  0  0  0  0  0  0
    3.6933    0.2603    2.9292 C   0  0  0  0  0  0  0  0  0  0  0  0
    2.5870    0.1327    4.0451 C   0  0  1  0  0  0  0  0  0  0  0  0
    2.0697    1.6166    4.2252 C   0  0  0  0  0  0  0  0  0  0  0  0
    2.4441    2.5531    5.4149 C   0  0  1  0  0  0  0  0  0  0  0  0
    3.7524    2.9929    5.0803 O   0  0  0  0  0  0  0  0  0  0  0  0
    2.6358    1.6721    6.7077 C   0  0  0  0  0  0  0  0  0  0  0  0
    2.3811    0.1480    6.5948 C   0  0  1  0  0  0  0  0  0  0  0  0
    0.8531   -0.2093    6.8474 C   0  0  1  0  0  0  0  0  0  0  0  0
    0.3084    0.2673    8.0739 O   0  0  0  0  0  0  0  0  0  0  0  0
    0.9585   -0.1513    9.2717 C   0  0  0  0  0  0  0  0  0  0  0  0
    3.1144   -0.5491    5.3808 C   0  0  2  0  0  0  0  0  0  0  0  0
    4.6830   -0.4423    5.5527 C   0  0  0  0  0  0  0  0  0  0  0  0
    5.2011    0.5517    6.0992 O   0  0  0  0  0  0  0  0  0  0  0  0
    5.3760   -1.3968    5.1382 O   0  0  0  0  0  0  0  0  0  0  0  0
    2.8383   -2.1064    5.4183 C   0  0  0  0  0  0  0  0  0  0  0  0
    2.8425   -2.8039    4.1041 N   0  0  1  0  0  0  0  0  0  0  0  0
    2.5993   -4.2554    4.3495 C   0  0  0  0  0  0  0  0  0  0  0  0
   -1.5311    1.4428    9.9080 H   0  0  0  0  0  0  0  0  0  0  0  0
   -2.2910    1.7404    8.3400 H   0  0  0  0  0  0  0  0  0  0  0  0
   -2.5004    2.8920    9.6620 H   0  0  0  0  0  0  0  0  0  0  0  0
    0.0193    3.4093    9.5924 H   0  0  0  0  0  0  0  0  0  0  0  0
    0.7367    5.0913    7.2768 H   0  0  0  0  0  0  0  0  0  0  0  0
    1.9246    4.0034    7.8467 H   0  0  0  0  0  0  0  0  0  0  0  0
    3.0189    4.7759    4.7843 H   0  0  0  0  0  0  0  0  0  0  0  0
   -0.3651    4.6203    2.8953 H   0  0  0  0  0  0  0  0  0  0  0  0
    1.0623    3.7207    2.8618 H   0  0  0  0  0  0  0  0  0  0  0  0
   -1.6423    2.9849    2.4517 H   0  0  0  0  0  0  0  0  0  0  0  0
   -0.3482    1.9165    2.3049 H   0  0  0  0  0  0  0  0  0  0  0  0
   -2.6156    2.1068    4.2095 H   0  0  0  0  0  0  0  0  0  0  0  0
   -1.8945    0.7197    3.5935 H   0  0  0  0  0  0  0  0  0  0  0  0
   -2.0761    1.0135    6.0616 H   0  0  0  0  0  0  0  0  0  0  0  0
    0.0769    2.2269    6.0551 H   0  0  0  0  0  0  0  0  0  0  0  0
   -1.1378    4.8245    6.1388 H   0  0  0  0  0  0  0  0  0  0  0  0
   -1.8392    4.0225    4.8021 H   0  0  0  0  0  0  0  0  0  0  0  0
   -0.9882   -0.6558    6.1289 H   0  0  0  0  0  0  0  0  0  0  0  0
    0.1351   -1.9329    4.8589 H   0  0  0  0  0  0  0  0  0  0  0  0
   -0.7719   -1.0116    3.8316 H   0  0  0  0  0  0  0  0  0  0  0  0
    1.4221   -0.2342    1.6253 H   0  0  0  0  0  0  0  0  0  0  0  0
    1.0235   -2.8411    3.0272 H   0  0  0  0  0  0  0  0  0  0  0  0
    1.8464   -1.8783    0.9041 H   0  0  0  0  0  0  0  0  0  0  0  0
    3.0470   -4.4217    1.5404 H   0  0  0  0  0  0  0  0  0  0  0  0
    3.0116   -3.5789   -0.0254 H   0  0  0  0  0  0  0  0  0  0  0  0
    3.9807   -1.0157    0.5250 H   0  0  0  0  0  0  0  0  0  0  0  0
    4.4663    0.9438    3.2758 H   0  0  0  0  0  0  0  0  0  0  0  0
    3.3161    0.7276    2.0179 H   0  0  0  0  0  0  0  0  0  0  0  0
    2.2480    2.1533    3.3022 H   0  0  0  0  0  0  0  0  0  0  0  0
    1.0127    1.5323    4.2576 H   0  0  0  0  0  0  0  0  0  0  0  0
    3.8159    3.0947    4.1393 H   0  0  0  0  0  0  0  0  0  0  0  0
    3.5991    1.8776    7.1724 H   0  0  0  0  0  0  0  0  0  0  0  0
    2.0103    1.9224    7.5413 H   0  0  0  0  0  0  0  0  0  0  0  0
    2.8926   -0.2744    7.4611 H   0  0  0  0  0  0  0  0  0  0  0  0
    0.8106   -1.2720    7.0680 H   0  0  0  0  0  0  0  0  0  0  0  0
    0.3680    0.1583   10.1329 H   0  0  0  0  0  0  0  0  0  0  0  0
    1.9392    0.3097    9.3843 H   0  0  0  0  0  0  0  0  0  0  0  0
    1.0681   -1.2347    9.3247 H   0  0  0  0  0  0  0  0  0  0  0  0
    3.5541   -2.6069    6.0762 H   0  0  0  0  0  0  0  0  0  0  0  0
    1.9090   -2.3697    5.8852 H   0  0  0  0  0  0  0  0  0  0  0  0
    1.6484   -4.4064    4.8601 H   0  0  0  0  0  0  0  0  0  0  0  0
    3.3881   -4.6609    4.9835 H   0  0  0  0  0  0  0  0  0  0  0  0
    2.5695   -4.8622    3.4543 H   0  0  0  0  0  0  0  0  0  0  0  0
    3.7748   -2.6741    3.7360 H   0  0  0  0  0  0  0  0  0  0  0  0
  1  2  1  0
  1 41  1  0
  1 42  1  0
  1 43  1  0
  2  3  2  3
  2 44  1  0
  3 12  1  0
  3  4  1  0
  4  5  1  0
  4 45  1  0
  4 46  1  0
  5 27  1  0
  5  6  1  6
  5  7  1  0
  6 47  1  0
  7 13  1  0
  7  8  1  0
  8  9  1  0
  8 48  1  0
  8 49  1  0
  9 10  1  0
  9 50  1  0
  9 51  1  0
 10 11  1  0
 10 52  1  0
 10 53  1  0
 11 12  1  0
 11 14  1  0
 11 54  1  1
 12 13  1  0
 12 55  1  1
 13 56  1  0
 13 57  1  0
 14 31  1  0
 14 15  1  0
 14 58  1  1
 15 16  1  0
 15 59  1  0
 15 60  1  0
 16 25  1  0
 16 17  1  6
 16 18  1  0
 17 61  1  0
 18 39  1  0
 18 19  1  0
 18 62  1  6
 19 22  1  0
 19 20  1  0
 19 63  1  6
 20 21  1  0
 20 64  1  0
 20 65  1  0
 21 22  1  0
 22 23  1  0
 22 66  1  6
 23 24  1  0
 25 24  1  6
 24 67  1  0
 24 68  1  0
 25 34  1  0
 25 26  1  0
 26 27  1  0
 26 69  1  0
 26 70  1  0
 27 28  1  6
 27 29  1  0
 28 71  1  0
 29 30  1  0
 29 72  1  0
 29 73  1  0
 30 31  1  0
 30 34  1  0
 30 74  1  1
 31 32  1  0
 31 75  1  1
 32 33  1  0
 33 76  1  0
 33 77  1  0
 33 78  1  0
 34 35  1  1
 34 38  1  0
 35 36  2  0
 35 37  1  0
 38 39  1  0
 38 79  1  0
 38 80  1  0
 39 40  1  0
 39 84  1  6
 40 81  1  0
 40 82  1  0
 40 83  1  0
M  CHG  2  37  -1  39   1
M  END
>  <i_m_ct_stereo_status>  (210) 
1

>  <s_m_source_file>  (210) 
/var/tmp/pbs.5076255.sched01/tmppdndq9e4/92von5zo7h.sdf

>  <i_m_source_file_index>  (210) 
2

>  <i_lp_mmshare_version>  (210) 
48012

>  <i_f3d_flags>  (210) 
0

>  <s_epik_input>  (210) 
W0NIM10vW0NIXT1DKFxbQ0gyXTEpW0NASF0oW0NIMl0yKVtDQEhdKFtDQEBIXShbQ0gyXTMpW0NAQEhdNE9bQ0gzXSlbQ0gyXVtDSDJdW0NIMl1OMltDQF0xKFtPSF0pW0NAQF0oW0NIMl01KShbT0hdKVtDSDJdW0NAQEhdNFtDQEBdNihDKD1PKVtPSF0pW0NIMl1OKFtDSDNdKVtDQEBIXShbQ0BAXTMoW0NAQF01NjcpW09IXSlbQ0BIXThbQ0BIXShPW0NIMl04KU9bQ0gyXTc=

>  <s_epik_cmdline>  (210) 
J2VwaWtfcHl0aG9uJywgJy1waHQnLCAnMi4wJywgJy1waCcsICc3LjAnLCAnLXRuJywgJzgnLCAnLW1hJywgJzIwMCcsICctaW1hZScsICc8aW5maWxlLm1hZT4nLCAnLW9tYWUnLCAnPG91dGZpbGUubWFlPic=

>  <r_epik_Ionization_Penalty>  (210) 
1.95189

>  <r_epik_Ionization_Penalty_Charging>  (210) 
0.00142812

>  <r_epik_Ionization_Penalty_Neutral>  (210) 
1.95046

>  <r_epik_State_Penalty>  (210) 
2.07546

>  <r_epik_Charging_Adjusted_Penalty>  (210) 
2.07689

>  <i_epik_Tot_Q>  (210) 
0

>  <i_epik_Tot_abs_Q>  (210) 
2

>  <s_epik_Chemistry_Notes>  (210) 
This compound contains an acetal/aminal-like group ( X-CH(R)-Y where X, Y are N, S, or O) that may be acid/base labile, releasing an aldehyde.

>  <s_lp_Force_Field>  (210) 
OPLS3e

>  <r_lp_Energy>  (210) 
234.924

>  <b_lp_Chiralities_Consistent>  (210) 
1

>  <s_lp_Variant>  (210) 
56:0-4

>  <s_i_glide_gridfile>  (210) 
pfpi4k_grid

>  <i_i_glide_lignum>  (210) 
2

>  <i_i_glide_rotatable_bonds>  (210) 
5

>  <r_i_docking_score>  (210) 
-1.97538

>  <r_i_glide_ligand_efficiency>  (210) 
-0.0493845

>  <r_i_glide_ligand_efficiency_sa>  (210) 
-0.168893

>  <r_i_glide_ligand_efficiency_ln>  (210) 
-0.421291

>  <r_i_glide_gscore>  (210) 
-1.97538

>  <r_i_glide_lipo>  (210) 
-0.00279471

>  <r_i_glide_hbond>  (210) 
0

>  <r_i_glide_metal>  (210) 
-0

>  <r_i_glide_rewards>  (210) 
-0.0221716

>  <r_i_glide_evdw>  (210) 
-20.8615

>  <r_i_glide_ecoul>  (210) 
-5.98291

>  <r_i_glide_erotb>  (210) 
0

>  <r_i_glide_esite>  (210) 
-0.00990415

>  <r_i_glide_emodel>  (210) 
-29.3763

>  <r_i_glide_energy>  (210) 
-26.8444

>  <r_i_glide_einternal>  (210) 
0.764366

>  <r_i_glide_intrahb_reward>  (210) 
-0

>  <i_i_glide_confnum>  (210) 
1

>  <i_i_glide_posenum>  (210) 
1

>  <r_i_glide_eff_state_penalty>  (210) 
0

>  <ligand_id>  (210) 
56

>  <original_smiles>  (210) 
CC=C1CC2(O)N3CCCC(C1C3)C1CC3(O)C4C5COC5OCC35CC2(O)CC(C1OC)C5(C(=O)O)CN4C

>  <smiles>  (210) 
[H]OC12N3C([H])([H])C([H])([H])C([H])([H])C([H])(C([H])(C(=C([H])C([H])([H])[H])C1([H])[H])C3([H])[H])C1([H])C([H])([H])C3(O[H])C45C([H])([H])OC6([H])OC([H])([H])C6([H])C3([H])[N+]([H])(C([H])([H])[H])C([H])([H])C4(C(=O)[O-])C([H])(C([H])([H])C2(O[H])C5([H])[H])C1([H])OC([H])([H])[H]

$$$$
56:3:1
     RDKit          3D

 84 91  0  0  1  0  0  0  0  0999 V2000
   -1.8621    2.2742    9.0986 C   0  0  0  0  0  0  0  0  0  0  0  0
   -0.5957    3.0133    8.7069 C   0  0  0  0  0  0  0  0  0  0  0  0
   -0.1312    3.1613    7.4609 C   0  0  0  0  0  0  0  0  0  0  0  0
    1.0679    4.1040    7.0965 C   0  0  0  0  0  0  0  0  0  0  0  0
    1.5383    3.9249    5.5881 C   0  0  2  0  0  0  0  0  0  0  0  0
    2.3279    5.0790    5.3410 O   0  0  0  0  0  0  0  0  0  0  0  0
    0.2993    4.1729    4.7263 N   0  0  0  0  0  0  0  0  0  0  0  0
    0.1452    3.7821    3.3338 C   0  0  0  0  0  0  0  0  0  0  0  0
   -0.8059    2.5588    2.9822 C   0  0  0  0  0  0  0  0  0  0  0  0
   -1.6224    1.6693    4.0222 C   0  0  0  0  0  0  0  0  0  0  0  0
   -1.1622    1.3451    5.4979 C   0  0  2  0  0  0  0  0  0  0  0  0
   -0.8761    2.7207    6.2058 C   0  0  1  0  0  0  0  0  0  0  0  0
   -0.9734    4.0036    5.3938 C   0  0  0  0  0  0  0  0  0  0  0  0
   -0.2268    0.0167    5.6598 C   0  0  1  0  0  0  0  0  0  0  0  0
    0.1183   -0.8983    4.4206 C   0  0  0  0  0  0  0  0  0  0  0  0
    1.4111   -0.7512    3.5022 C   0  0  2  0  0  0  0  0  0  0  0  0
    0.8534   -0.1769    2.3303 O   0  0  0  0  0  0  0  0  0  0  0  0
    1.9281   -2.1946    3.0941 C   0  0  1  0  0  0  0  0  0  0  0  0
    2.5888   -2.2422    1.6842 C   0  0  2  0  0  0  0  0  0  0  0  0
    3.2624   -3.4776    1.0771 C   0  0  0  0  0  0  0  0  0  0  0  0
    4.5746   -2.9251    1.3182 O   0  0  0  0  0  0  0  0  0  0  0  0
    3.9689   -1.6174    1.4806 C   0  0  2  0  0  0  0  0  0  0  0  0
    4.4043   -0.9454    2.6448 O   0  0  0  0  0  0  0  0  0  0  0  0
    3.7204    0.2622    2.9471 C   0  0  0  0  0  0  0  0  0  0  0  0
    2.5973    0.1482    4.0426 C   0  0  1  0  0  0  0  0  0  0  0  0
    2.0704    1.6266    4.2101 C   0  0  0  0  0  0  0  0  0  0  0  0
    2.4382    2.5613    5.4009 C   0  0  1  0  0  0  0  0  0  0  0  0
    3.7620    2.9654    5.0879 O   0  0  0  0  0  0  0  0  0  0  0  0
    2.6046    1.6950    6.7005 C   0  0  0  0  0  0  0  0  0  0  0  0
    2.3476    0.1760    6.5862 C   0  0  1  0  0  0  0  0  0  0  0  0
    0.8154   -0.1726    6.8204 C   0  0  1  0  0  0  0  0  0  0  0  0
    0.2519    0.3126    8.0348 O   0  0  0  0  0  0  0  0  0  0  0  0
    0.8853   -0.0963    9.2448 C   0  0  0  0  0  0  0  0  0  0  0  0
    3.1014   -0.5265    5.3908 C   0  0  2  0  0  0  0  0  0  0  0  0
    4.6686   -0.4252    5.5910 C   0  0  0  0  0  0  0  0  0  0  0  0
    5.3604   -1.3982    5.2324 O   0  0  0  0  0  0  0  0  0  0  0  0
    5.1881    0.5907    6.1036 O   0  0  0  0  0  0  0  0  0  0  0  0
    2.8180   -2.0803    5.4315 C   0  0  0  0  0  0  0  0  0  0  0  0
    2.8369   -2.7886    4.1316 N   0  0  1  0  0  0  0  0  0  0  0  0
    2.5960   -4.2331    4.3746 C   0  0  0  0  0  0  0  0  0  0  0  0
   -1.6153    1.5110    9.8332 H   0  0  0  0  0  0  0  0  0  0  0  0
   -2.3464    1.7902    8.2492 H   0  0  0  0  0  0  0  0  0  0  0  0
   -2.5765    2.9571    9.5576 H   0  0  0  0  0  0  0  0  0  0  0  0
   -0.0546    3.4671    9.5262 H   0  0  0  0  0  0  0  0  0  0  0  0
    0.7059    5.1260    7.2139 H   0  0  0  0  0  0  0  0  0  0  0  0
    1.8836    4.0421    7.8194 H   0  0  0  0  0  0  0  0  0  0  0  0
    2.0909    5.4270    4.5008 H   0  0  0  0  0  0  0  0  0  0  0  0
   -0.3427    4.6505    2.8821 H   0  0  0  0  0  0  0  0  0  0  0  0
    1.0973    3.7401    2.8095 H   0  0  0  0  0  0  0  0  0  0  0  0
   -1.5898    2.9982    2.3657 H   0  0  0  0  0  0  0  0  0  0  0  0
   -0.3043    1.9280    2.2557 H   0  0  0  0  0  0  0  0  0  0  0  0
   -2.6066    2.1323    4.1122 H   0  0  0  0  0  0  0  0  0  0  0  0
   -1.8647    0.7435    3.5162 H   0  0  0  0  0  0  0  0  0  0  0  0
   -2.0958    1.0501    5.9796 H   0  0  0  0  0  0  0  0  0  0  0  0
    0.0594    2.2643    5.9960 H   0  0  0  0  0  0  0  0  0  0  0  0
   -1.1472    4.8575    6.0482 H   0  0  0  0  0  0  0  0  0  0  0  0
   -1.8153    4.0520    4.7039 H   0  0  0  0  0  0  0  0  0  0  0  0
   -1.0129   -0.6156    6.0748 H   0  0  0  0  0  0  0  0  0  0  0  0
    0.1276   -1.9063    4.8349 H   0  0  0  0  0  0  0  0  0  0  0  0
   -0.7580   -0.9899    3.7841 H   0  0  0  0  0  0  0  0  0  0  0  0
    1.4592   -0.2331    1.6071 H   0  0  0  0  0  0  0  0  0  0  0  0
    1.0424   -2.8237    3.0217 H   0  0  0  0  0  0  0  0  0  0  0  0
    1.9134   -1.8885    0.9056 H   0  0  0  0  0  0  0  0  0  0  0  0
    3.0821   -4.4189    1.5754 H   0  0  0  0  0  0  0  0  0  0  0  0
    3.0684   -3.5838    0.0060 H   0  0  0  0  0  0  0  0  0  0  0  0
    4.0358   -1.0264    0.5581 H   0  0  0  0  0  0  0  0  0  0  0  0
    4.4923    0.9425    3.2964 H   0  0  0  0  0  0  0  0  0  0  0  0
    3.3610    0.7206    2.0250 H   0  0  0  0  0  0  0  0  0  0  0  0
    2.2802    2.1614    3.2925 H   0  0  0  0  0  0  0  0  0  0  0  0
    1.0098    1.5463    4.2141 H   0  0  0  0  0  0  0  0  0  0  0  0
    3.7959    3.2166    4.1785 H   0  0  0  0  0  0  0  0  0  0  0  0
    3.5644    1.9012    7.1705 H   0  0  0  0  0  0  0  0  0  0  0  0
    1.9679    1.9609    7.5203 H   0  0  0  0  0  0  0  0  0  0  0  0
    2.8427   -0.2381    7.4644 H   0  0  0  0  0  0  0  0  0  0  0  0
    0.7662   -1.2330    7.0488 H   0  0  0  0  0  0  0  0  0  0  0  0
    0.2822    0.2200   10.0944 H   0  0  0  0  0  0  0  0  0  0  0  0
    1.8639    0.3663    9.3685 H   0  0  0  0  0  0  0  0  0  0  0  0
    0.9950   -1.1791    9.3072 H   0  0  0  0  0  0  0  0  0  0  0  0
    3.5135   -2.5797    6.1077 H   0  0  0  0  0  0  0  0  0  0  0  0
    1.8821   -2.3360    5.8898 H   0  0  0  0  0  0  0  0  0  0  0  0
    1.6389   -4.3858    4.8714 H   0  0  0  0  0  0  0  0  0  0  0  0
    3.3694   -4.6384    5.0229 H   0  0  0  0  0  0  0  0  0  0  0  0
    2.5786   -4.8485    3.4866 H   0  0  0  0  0  0  0  0  0  0  0  0
    3.7814   -2.6605    3.7740 H   0  0  0  0  0  0  0  0  0  0  0  0
  1  2  1  0
  1 41  1  0
  1 42  1  0
  1 43  1  0
  2  3  2  3
  2 44  1  0
  3 12  1  0
  3  4  1  0
  4  5  1  0
  4 45  1  0
  4 46  1  0
  5 27  1  0
  5  6  1  6
  5  7  1  0
  6 47  1  0
  7 13  1  0
  7  8  1  0
  8  9  1  0
  8 48  1  0
  8 49  1  0
  9 10  1  0
  9 50  1  0
  9 51  1  0
 10 11  1  0
 10 52  1  0
 10 53  1  0
 11 12  1  0
 11 14  1  0
 11 54  1  1
 12 13  1  0
 12 55  1  1
 13 56  1  0
 13 57  1  0
 14 31  1  0
 14 15  1  0
 14 58  1  1
 15 16  1  0
 15 59  1  0
 15 60  1  0
 16 25  1  0
 16 17  1  6
 16 18  1  0
 17 61  1  0
 18 39  1  0
 18 19  1  0
 18 62  1  6
 19 22  1  0
 19 20  1  0
 19 63  1  6
 20 21  1  0
 20 64  1  0
 20 65  1  0
 21 22  1  0
 22 23  1  0
 22 66  1  6
 23 24  1  0
 25 24  1  6
 24 67  1  0
 24 68  1  0
 25 34  1  0
 25 26  1  0
 26 27  1  0
 26 69  1  0
 26 70  1  0
 27 28  1  6
 27 29  1  0
 28 71  1  0
 29 30  1  0
 29 72  1  0
 29 73  1  0
 30 31  1  0
 30 34  1  0
 30 74  1  1
 31 32  1  0
 31 75  1  1
 32 33  1  0
 33 76  1  0
 33 77  1  0
 33 78  1  0
 34 35  1  1
 34 38  1  0
 35 36  2  0
 35 37  1  0
 38 39  1  0
 38 79  1  0
 38 80  1  0
 39 40  1  0
 39 84  1  6
 40 81  1  0
 40 82  1  0
 40 83  1  0
M  CHG  2  37  -1  39   1
M  END
>  <i_m_ct_stereo_status>  (211) 
1

>  <s_m_source_file>  (211) 
/var/tmp/pbs.5076255.sched01/tmppdndq9e4/92von5zo7h.sdf

>  <i_m_source_file_index>  (211) 
2

>  <i_lp_mmshare_version>  (211) 
48012

>  <i_f3d_flags>  (211) 
0

>  <s_epik_input>  (211) 
W0NIM10vW0NIXT1DKFxbQ0gyXTEpW0NASF0oW0NIMl0yKVtDQEhdKFtDQEBIXShbQ0gyXTMpW0NAQEhdNE9bQ0gzXSlbQ0gyXVtDSDJdW0NIMl1OMltDQF0xKFtPSF0pW0NAQF0oW0NIMl01KShbT0hdKVtDSDJdW0NAQEhdNFtDQEBdNihDKD1PKVtPSF0pW0NIMl1OKFtDSDNdKVtDQEBIXShbQ0BAXTMoW0NAQF01NjcpW09IXSlbQ0BIXThbQ0BIXShPW0NIMl04KU9bQ0gyXTc=

>  <s_epik_cmdline>  (211) 
J2VwaWtfcHl0aG9uJywgJy1waHQnLCAnMi4wJywgJy1waCcsICc3LjAnLCAnLXRuJywgJzgnLCAnLW1hJywgJzIwMCcsICctaW1hZScsICc8aW5maWxlLm1hZT4nLCAnLW9tYWUnLCAnPG91dGZpbGUubWFlPic=

>  <r_epik_Ionization_Penalty>  (211) 
1.95189

>  <r_epik_Ionization_Penalty_Charging>  (211) 
0.00142812

>  <r_epik_Ionization_Penalty_Neutral>  (211) 
1.95046

>  <r_epik_State_Penalty>  (211) 
2.07546

>  <r_epik_Charging_Adjusted_Penalty>  (211) 
2.07689

>  <i_epik_Tot_Q>  (211) 
0

>  <i_epik_Tot_abs_Q>  (211) 
2

>  <s_epik_Chemistry_Notes>  (211) 
This compound contains an acetal/aminal-like group ( X-CH(R)-Y where X, Y are N, S, or O) that may be acid/base labile, releasing an aldehyde.

>  <s_lp_Force_Field>  (211) 
OPLS3e

>  <r_lp_Energy>  (211) 
234.924

>  <b_lp_Chiralities_Consistent>  (211) 
1

>  <s_lp_Variant>  (211) 
56:0-4

>  <s_i_glide_gridfile>  (211) 
pfpi4k_grid

>  <i_i_glide_lignum>  (211) 
2

>  <i_i_glide_rotatable_bonds>  (211) 
5

>  <r_i_docking_score>  (211) 
-1.96056

>  <r_i_glide_ligand_efficiency>  (211) 
-0.049014

>  <r_i_glide_ligand_efficiency_sa>  (211) 
-0.167626

>  <r_i_glide_ligand_efficiency_ln>  (211) 
-0.41813

>  <r_i_glide_gscore>  (211) 
-1.96056

>  <r_i_glide_lipo>  (211) 
-0.00139851

>  <r_i_glide_hbond>  (211) 
0

>  <r_i_glide_metal>  (211) 
-0

>  <r_i_glide_rewards>  (211) 
-0.0206427

>  <r_i_glide_evdw>  (211) 
-20.9325

>  <r_i_glide_ecoul>  (211) 
-5.8903

>  <r_i_glide_erotb>  (211) 
0

>  <r_i_glide_esite>  (211) 
-0.00834871

>  <r_i_glide_emodel>  (211) 
-28.7997

>  <r_i_glide_energy>  (211) 
-26.8228

>  <r_i_glide_einternal>  (211) 
1.66163

>  <r_i_glide_intrahb_reward>  (211) 
-0

>  <i_i_glide_confnum>  (211) 
1

>  <i_i_glide_posenum>  (211) 
7

>  <r_i_glide_eff_state_penalty>  (211) 
0

>  <ligand_id>  (211) 
56

>  <original_smiles>  (211) 
CC=C1CC2(O)N3CCCC(C1C3)C1CC3(O)C4C5COC5OCC35CC2(O)CC(C1OC)C5(C(=O)O)CN4C

>  <smiles>  (211) 
[H]OC12N3C([H])([H])C([H])([H])C([H])([H])C([H])(C([H])(C(=C([H])C([H])([H])[H])C1([H])[H])C3([H])[H])C1([H])C([H])([H])C3(O[H])C45C([H])([H])OC6([H])OC([H])([H])C6([H])C3([H])[N+]([H])(C([H])([H])[H])C([H])([H])C4(C(=O)[O-])C([H])(C([H])([H])C2(O[H])C5([H])[H])C1([H])OC([H])([H])[H]

$$$$
56:3:2
     RDKit          3D

 84 91  0  0  1  0  0  0  0  0999 V2000
   -1.9960    2.2497    9.1195 C   0  0  0  0  0  0  0  0  0  0  0  0
   -0.7451    3.0307    8.7569 C   0  0  0  0  0  0  0  0  0  0  0  0
   -0.2718    3.2165    7.5190 C   0  0  0  0  0  0  0  0  0  0  0  0
    0.9056    4.1993    7.1809 C   0  0  0  0  0  0  0  0  0  0  0  0
    1.3860    4.0665    5.6662 C   0  0  2  0  0  0  0  0  0  0  0  0
    2.1337    5.2409    5.4145 O   0  0  0  0  0  0  0  0  0  0  0  0
    0.1473    4.2717    4.7991 N   0  0  0  0  0  0  0  0  0  0  0  0
    0.0350    3.9069    3.3875 C   0  0  0  0  0  0  0  0  0  0  0  0
   -0.8747    2.6652    3.0121 C   0  0  0  0  0  0  0  0  0  0  0  0
   -1.6741    1.7350    4.0312 C   0  0  0  0  0  0  0  0  0  0  0  0
   -1.2260    1.4024    5.5098 C   0  0  2  0  0  0  0  0  0  0  0  0
   -0.9870    2.7713    6.2471 C   0  0  1  0  0  0  0  0  0  0  0  0
   -1.1230    4.0658    5.4534 C   0  0  0  0  0  0  0  0  0  0  0  0
   -0.2600    0.0939    5.6666 C   0  0  1  0  0  0  0  0  0  0  0  0
    0.1242   -0.7855    4.4131 C   0  0  0  0  0  0  0  0  0  0  0  0
    1.4305   -0.5898    3.5208 C   0  0  2  0  0  0  0  0  0  0  0  0
    0.9166    0.0155    2.3536 O   0  0  0  0  0  0  0  0  0  0  0  0
    1.9881   -2.0112    3.0873 C   0  0  1  0  0  0  0  0  0  0  0  0
    2.6653   -2.0112    1.6801 C   0  0  2  0  0  0  0  0  0  0  0  0
    3.3831   -3.2199    1.0692 C   0  0  0  0  0  0  0  0  0  0  0  0
    4.6724   -2.6350    1.3427 O   0  0  0  0  0  0  0  0  0  0  0  0
    4.0283   -1.3464    1.5069 C   0  0  2  0  0  0  0  0  0  0  0  0
    4.4437   -0.6747    2.6779 O   0  0  0  0  0  0  0  0  0  0  0  0
    3.7134    0.4974    3.0119 C   0  0  0  0  0  0  0  0  0  0  0  0
    2.5832    0.3322    4.0971 C   0  0  1  0  0  0  0  0  0  0  0  0
    2.0263    1.8051    4.2746 C   0  0  0  0  0  0  0  0  0  0  0  0
    2.3435    2.7371    5.4826 C   0  0  1  0  0  0  0  0  0  0  0  0
    3.6497    3.2040    5.1860 O   0  0  0  0  0  0  0  0  0  0  0  0
    2.5167    1.8442    6.7694 C   0  0  0  0  0  0  0  0  0  0  0  0
    2.3023    0.3156    6.6355 C   0  0  1  0  0  0  0  0  0  0  0  0
    0.7769   -0.0835    6.8368 C   0  0  1  0  0  0  0  0  0  0  0  0
    0.1843    0.3647    8.0508 O   0  0  0  0  0  0  0  0  0  0  0  0
    0.8136   -0.0457    9.2625 C   0  0  0  0  0  0  0  0  0  0  0  0
    3.0903   -0.3493    5.4381 C   0  0  2  0  0  0  0  0  0  0  0  0
    4.6506   -0.2095    5.6531 C   0  0  0  0  0  0  0  0  0  0  0  0
    5.1248    0.7857    6.2391 O   0  0  0  0  0  0  0  0  0  0  0  0
    5.3808   -1.1328    5.2355 O   0  0  0  0  0  0  0  0  0  0  0  0
    2.8523   -1.9138    5.4482 C   0  0  0  0  0  0  0  0  0  0  0  0
    2.9115   -2.5950    4.1234 N   0  0  1  0  0  0  0  0  0  0  0  0
    2.6947   -4.0562    4.3449 C   0  0  0  0  0  0  0  0  0  0  0  0
   -1.7361    1.4815    9.8428 H   0  0  0  0  0  0  0  0  0  0  0  0
   -2.4556    1.7678    8.2556 H   0  0  0  0  0  0  0  0  0  0  0  0
   -2.7342    2.9046    9.5801 H   0  0  0  0  0  0  0  0  0  0  0  0
   -0.2257    3.4820    9.5932 H   0  0  0  0  0  0  0  0  0  0  0  0
    0.5183    5.2082    7.3190 H   0  0  0  0  0  0  0  0  0  0  0  0
    1.7153    4.1431    7.9113 H   0  0  0  0  0  0  0  0  0  0  0  0
    2.8777    4.9776    4.8862 H   0  0  0  0  0  0  0  0  0  0  0  0
   -0.4423    4.7599    2.9027 H   0  0  0  0  0  0  0  0  0  0  0  0
    1.0049    3.8985    2.8893 H   0  0  0  0  0  0  0  0  0  0  0  0
   -1.6720    3.1058    2.4104 H   0  0  0  0  0  0  0  0  0  0  0  0
   -0.3549    2.0743    2.2650 H   0  0  0  0  0  0  0  0  0  0  0  0
   -2.6704    2.1711    4.1195 H   0  0  0  0  0  0  0  0  0  0  0  0
   -1.8945    0.8148    3.5082 H   0  0  0  0  0  0  0  0  0  0  0  0
   -2.1580    1.0776    5.9772 H   0  0  0  0  0  0  0  0  0  0  0  0
   -0.0344    2.3420    6.0492 H   0  0  0  0  0  0  0  0  0  0  0  0
   -1.3154    4.9067    6.1244 H   0  0  0  0  0  0  0  0  0  0  0  0
   -1.9585    4.1041    4.7585 H   0  0  0  0  0  0  0  0  0  0  0  0
   -1.0346   -0.5675    6.0629 H   0  0  0  0  0  0  0  0  0  0  0  0
    0.1574   -1.7991    4.8112 H   0  0  0  0  0  0  0  0  0  0  0  0
   -0.7397   -0.8913    3.7624 H   0  0  0  0  0  0  0  0  0  0  0  0
    0.6258    0.8870    2.5831 H   0  0  0  0  0  0  0  0  0  0  0  0
    1.1208   -2.6618    2.9932 H   0  0  0  0  0  0  0  0  0  0  0  0
    1.9816   -1.6504    0.9084 H   0  0  0  0  0  0  0  0  0  0  0  0
    3.2277   -4.1776    1.5503 H   0  0  0  0  0  0  0  0  0  0  0  0
    3.2174   -3.3181   -0.0078 H   0  0  0  0  0  0  0  0  0  0  0  0
    4.1024   -0.7360    0.5996 H   0  0  0  0  0  0  0  0  0  0  0  0
    4.4524    1.1941    3.3972 H   0  0  0  0  0  0  0  0  0  0  0  0
    3.3562    0.9678    2.0950 H   0  0  0  0  0  0  0  0  0  0  0  0
    2.2179    2.3551    3.3608 H   0  0  0  0  0  0  0  0  0  0  0  0
    0.9726    1.6995    4.2817 H   0  0  0  0  0  0  0  0  0  0  0  0
    3.7404    3.3020    4.2470 H   0  0  0  0  0  0  0  0  0  0  0  0
    3.4590    2.0683    7.2659 H   0  0  0  0  0  0  0  0  0  0  0  0
    1.8608    2.0674    7.5858 H   0  0  0  0  0  0  0  0  0  0  0  0
    2.8006   -0.1061    7.5101 H   0  0  0  0  0  0  0  0  0  0  0  0
    0.7561   -1.1495    7.0429 H   0  0  0  0  0  0  0  0  0  0  0  0
    0.1910    0.2385   10.1100 H   0  0  0  0  0  0  0  0  0  0  0  0
    1.7772    0.4427    9.4057 H   0  0  0  0  0  0  0  0  0  0  0  0
    0.9543   -1.1259    9.3085 H   0  0  0  0  0  0  0  0  0  0  0  0
    3.5645   -2.4064    6.1167 H   0  0  0  0  0  0  0  0  0  0  0  0
    1.9159   -2.2068    5.8814 H   0  0  0  0  0  0  0  0  0  0  0  0
    1.7324   -4.2352    4.8268 H   0  0  0  0  0  0  0  0  0  0  0  0
    3.4768   -4.4478    4.9980 H   0  0  0  0  0  0  0  0  0  0  0  0
    2.7071   -4.6535    3.4400 H   0  0  0  0  0  0  0  0  0  0  0  0
    3.8464   -2.4373    3.7781 H   0  0  0  0  0  0  0  0  0  0  0  0
  1  2  1  0
  1 41  1  0
  1 42  1  0
  1 43  1  0
  2  3  2  3
  2 44  1  0
  3 12  1  0
  3  4  1  0
  4  5  1  0
  4 45  1  0
  4 46  1  0
  5 27  1  0
  5  6  1  6
  5  7  1  0
  6 47  1  0
  7 13  1  0
  7  8  1  0
  8  9  1  0
  8 48  1  0
  8 49  1  0
  9 10  1  0
  9 50  1  0
  9 51  1  0
 10 11  1  0
 10 52  1  0
 10 53  1  0
 11 12  1  0
 11 14  1  0
 11 54  1  1
 12 13  1  0
 12 55  1  1
 13 56  1  0
 13 57  1  0
 14 31  1  0
 14 15  1  0
 14 58  1  1
 15 16  1  0
 15 59  1  0
 15 60  1  0
 16 25  1  0
 16 17  1  6
 16 18  1  0
 17 61  1  0
 18 39  1  0
 18 19  1  0
 18 62  1  6
 19 22  1  0
 19 20  1  0
 19 63  1  6
 20 21  1  0
 20 64  1  0
 20 65  1  0
 21 22  1  0
 22 23  1  0
 22 66  1  6
 23 24  1  0
 25 24  1  6
 24 67  1  0
 24 68  1  0
 25 34  1  0
 25 26  1  0
 26 27  1  0
 26 69  1  0
 26 70  1  0
 27 28  1  6
 27 29  1  0
 28 71  1  0
 29 30  1  0
 29 72  1  0
 29 73  1  0
 30 31  1  0
 30 34  1  0
 30 74  1  1
 31 32  1  0
 31 75  1  1
 32 33  1  0
 33 76  1  0
 33 77  1  0
 33 78  1  0
 34 35  1  1
 34 38  1  0
 35 36  2  0
 35 37  1  0
 38 39  1  0
 38 79  1  0
 38 80  1  0
 39 40  1  0
 39 84  1  6
 40 81  1  0
 40 82  1  0
 40 83  1  0
M  CHG  2  37  -1  39   1
M  END
>  <i_m_ct_stereo_status>  (212) 
1

>  <s_m_source_file>  (212) 
/var/tmp/pbs.5076255.sched01/tmppdndq9e4/92von5zo7h.sdf

>  <i_m_source_file_index>  (212) 
2

>  <i_lp_mmshare_version>  (212) 
48012

>  <i_f3d_flags>  (212) 
0

>  <s_epik_input>  (212) 
W0NIM10vW0NIXT1DKFxbQ0gyXTEpW0NASF0oW0NIMl0yKVtDQEhdKFtDQEBIXShbQ0gyXTMpW0NAQEhdNE9bQ0gzXSlbQ0gyXVtDSDJdW0NIMl1OMltDQF0xKFtPSF0pW0NAQF0oW0NIMl01KShbT0hdKVtDSDJdW0NAQEhdNFtDQEBdNihDKD1PKVtPSF0pW0NIMl1OKFtDSDNdKVtDQEBIXShbQ0BAXTMoW0NAQF01NjcpW09IXSlbQ0BIXThbQ0BIXShPW0NIMl04KU9bQ0gyXTc=

>  <s_epik_cmdline>  (212) 
J2VwaWtfcHl0aG9uJywgJy1waHQnLCAnMi4wJywgJy1waCcsICc3LjAnLCAnLXRuJywgJzgnLCAnLW1hJywgJzIwMCcsICctaW1hZScsICc8aW5maWxlLm1hZT4nLCAnLW9tYWUnLCAnPG91dGZpbGUubWFlPic=

>  <r_epik_Ionization_Penalty>  (212) 
1.95189

>  <r_epik_Ionization_Penalty_Charging>  (212) 
0.00142812

>  <r_epik_Ionization_Penalty_Neutral>  (212) 
1.95046

>  <r_epik_State_Penalty>  (212) 
2.07546

>  <r_epik_Charging_Adjusted_Penalty>  (212) 
2.07689

>  <i_epik_Tot_Q>  (212) 
0

>  <i_epik_Tot_abs_Q>  (212) 
2

>  <s_epik_Chemistry_Notes>  (212) 
This compound contains an acetal/aminal-like group ( X-CH(R)-Y where X, Y are N, S, or O) that may be acid/base labile, releasing an aldehyde.

>  <s_lp_Force_Field>  (212) 
OPLS3e

>  <r_lp_Energy>  (212) 
234.924

>  <b_lp_Chiralities_Consistent>  (212) 
1

>  <s_lp_Variant>  (212) 
56:0-4

>  <s_i_glide_gridfile>  (212) 
pfpi4k_grid

>  <i_i_glide_lignum>  (212) 
2

>  <i_i_glide_rotatable_bonds>  (212) 
5

>  <r_i_docking_score>  (212) 
-1.80389

>  <r_i_glide_ligand_efficiency>  (212) 
-0.0450972

>  <r_i_glide_ligand_efficiency_sa>  (212) 
-0.15423

>  <r_i_glide_ligand_efficiency_ln>  (212) 
-0.384716

>  <r_i_glide_gscore>  (212) 
-1.80389

>  <r_i_glide_lipo>  (212) 
-0.00465297

>  <r_i_glide_hbond>  (212) 
0

>  <r_i_glide_metal>  (212) 
-0

>  <r_i_glide_rewards>  (212) 
-0.019703

>  <r_i_glide_evdw>  (212) 
-20.5767

>  <r_i_glide_ecoul>  (212) 
-4.94774

>  <r_i_glide_erotb>  (212) 
0

>  <r_i_glide_esite>  (212) 
-0.00853527

>  <r_i_glide_emodel>  (212) 
-27.9696

>  <r_i_glide_energy>  (212) 
-25.5244

>  <r_i_glide_einternal>  (212) 
0.610485

>  <r_i_glide_intrahb_reward>  (212) 
-0

>  <i_i_glide_confnum>  (212) 
1

>  <i_i_glide_posenum>  (212) 
14

>  <r_i_glide_eff_state_penalty>  (212) 
0

>  <ligand_id>  (212) 
56

>  <original_smiles>  (212) 
CC=C1CC2(O)N3CCCC(C1C3)C1CC3(O)C4C5COC5OCC35CC2(O)CC(C1OC)C5(C(=O)O)CN4C

>  <smiles>  (212) 
[H]OC12N3C([H])([H])C([H])([H])C([H])([H])C([H])(C([H])(C(=C([H])C([H])([H])[H])C1([H])[H])C3([H])[H])C1([H])C([H])([H])C3(O[H])C45C([H])([H])OC6([H])OC([H])([H])C6([H])C3([H])[N+]([H])(C([H])([H])[H])C([H])([H])C4(C(=O)[O-])C([H])(C([H])([H])C2(O[H])C5([H])[H])C1([H])OC([H])([H])[H]

$$$$
57:0:0
     RDKit          3D

 35 38  0  0  1  0  0  0  0  0999 V2000
    5.0449   -3.2036   -2.4227 C   0  0  0  0  0  0  0  0  0  0  0  0
    4.7868   -2.8433   -0.9513 C   0  0  2  0  0  0  0  0  0  0  0  0
    4.1102   -1.4366   -0.8719 C   0  0  0  0  0  0  0  0  0  0  0  0
    4.2908   -0.7057    0.4899 C   0  0  2  0  0  0  0  0  0  0  0  0
    5.7735   -0.6234    0.8169 C   0  0  0  0  0  0  0  0  0  0  0  0
    6.0676   -2.0760    1.1409 C   0  0  2  0  0  0  0  0  0  0  0  0
    6.1467   -2.8458   -0.1966 C   0  0  0  0  0  0  0  0  0  0  0  0
    4.8933   -2.4671    1.9292 N   0  0  0  0  0  0  0  0  0  0  0  0
    3.7863   -1.5394    1.6827 C   0  0  0  0  0  0  0  0  0  0  0  0
    4.6982   -3.7297    2.3323 C   0  0  0  0  0  0  0  0  0  0  0  0
    5.0111   -4.0969    3.4535 O   0  0  0  0  0  0  0  0  0  0  0  0
    4.1549   -4.7502    1.2863 C   0  0  1  0  0  0  0  0  0  0  0  0
    5.1286   -5.9256    1.1056 C   0  0  0  0  0  0  0  0  0  0  0  0
    4.2089   -7.1109    0.9079 C   0  0  0  0  0  0  0  0  0  0  0  0
    3.0529   -6.7778    1.6463 O   0  0  0  0  0  0  0  0  0  0  0  0
    2.9428   -5.4723    1.8938 C   0  0  0  0  0  0  0  0  0  0  0  0
    2.0108   -4.9254    2.4825 O   0  0  0  0  0  0  0  0  0  0  0  0
    3.5931   -4.0896   -0.3244 S   0  0  0  0  0  0  0  0  0  0  0  0
    5.7210   -2.4917   -2.8970 H   0  0  0  0  0  0  0  0  0  0  0  0
    4.1193   -3.2205   -2.9979 H   0  0  0  0  0  0  0  0  0  0  0  0
    5.4958   -4.1944   -2.5115 H   0  0  0  0  0  0  0  0  0  0  0  0
    4.4866   -0.7908   -1.6697 H   0  0  0  0  0  0  0  0  0  0  0  0
    3.0459   -1.5574   -1.0714 H   0  0  0  0  0  0  0  0  0  0  0  0
    3.8209    0.2829    0.4695 H   0  0  0  0  0  0  0  0  0  0  0  0
    6.4056   -0.2254    0.0192 H   0  0  0  0  0  0  0  0  0  0  0  0
    5.9300   -0.0238    1.7130 H   0  0  0  0  0  0  0  0  0  0  0  0
    6.9957   -2.1695    1.7017 H   0  0  0  0  0  0  0  0  0  0  0  0
    6.5419   -3.8505   -0.0468 H   0  0  0  0  0  0  0  0  0  0  0  0
    6.9014   -2.3486   -0.8155 H   0  0  0  0  0  0  0  0  0  0  0  0
    3.6057   -0.9335    2.5773 H   0  0  0  0  0  0  0  0  0  0  0  0
    2.8414   -2.0482    1.4720 H   0  0  0  0  0  0  0  0  0  0  0  0
    5.7658   -5.8515    0.2281 H   0  0  0  0  0  0  0  0  0  0  0  0
    5.7851   -6.0774    1.9668 H   0  0  0  0  0  0  0  0  0  0  0  0
    3.9613   -7.1522   -0.1541 H   0  0  0  0  0  0  0  0  0  0  0  0
    4.6590   -8.0518    1.2123 H   0  0  0  0  0  0  0  0  0  0  0  0
  2  1  1  6
  1 19  1  0
  1 20  1  0
  1 21  1  0
  2  7  1  0
  2 18  1  0
  2  3  1  0
  3  4  1  0
  3 22  1  0
  3 23  1  0
  4  9  1  0
  4  5  1  0
  4 24  1  6
  5  6  1  0
  5 25  1  0
  5 26  1  0
  6  7  1  0
  6  8  1  0
  6 27  1  1
  7 28  1  0
  7 29  1  0
  8  9  1  0
  8 10  1  0
  9 30  1  0
  9 31  1  0
 10 11  2  0
 10 12  1  0
 12 16  1  0
 12 13  1  0
 12 18  1  6
 13 14  1  0
 13 32  1  0
 13 33  1  0
 14 15  1  0
 14 34  1  0
 14 35  1  0
 15 16  1  0
 16 17  2  0
M  END
>  <i_m_ct_stereo_status>  (213) 
1

>  <s_m_source_file>  (213) 
/var/tmp/pbs.5076255.sched01/tmppdndq9e4/92von5zo7h.sdf

>  <i_m_source_file_index>  (213) 
3

>  <i_lp_mmshare_version>  (213) 
48012

>  <i_f3d_flags>  (213) 
0

>  <s_epik_input>  (213) 
W0NIM11bQ0BAXShTMSkoW0NIMl0yKVtDSDJdW0NAQEhdKFtDSDJdMylbQ0gyXVtDQEhdMk4zQyg9TylbQ0BdMTRbQ0gyXVtDSDJdT0M0PU8=

>  <s_epik_cmdline>  (213) 
J2VwaWtfcHl0aG9uJywgJy1waHQnLCAnMi4wJywgJy1waCcsICc3LjAnLCAnLXRuJywgJzgnLCAnLW1hJywgJzIwMCcsICctaW1hZScsICc8aW5maWxlLm1hZT4nLCAnLW9tYWUnLCAnPG91dGZpbGUubWFlPic=

>  <r_lp_tautomer_probability>  (213) 
1

>  <r_epik_Ionization_Penalty>  (213) 
3.90693e-10

>  <r_epik_Ionization_Penalty_Charging>  (213) 
0

>  <r_epik_Ionization_Penalty_Neutral>  (213) 
3.90693e-10

>  <r_epik_State_Penalty>  (213) 
-0

>  <r_epik_Charging_Adjusted_Penalty>  (213) 
0

>  <i_epik_Tot_Q>  (213) 
0

>  <i_epik_Tot_abs_Q>  (213) 
0

>  <s_epik_Chemistry_Notes>  (213) 
This compound has an ester and may undergo hydrolysis at high or low pH.

>  <s_lp_Force_Field>  (213) 
OPLS3e

>  <r_lp_Energy>  (213) 
49.2601

>  <b_lp_Chiralities_Consistent>  (213) 
1

>  <s_lp_Variant>  (213) 
57:0-1

>  <s_i_glide_gridfile>  (213) 
pfpi4k_grid

>  <i_i_glide_lignum>  (213) 
3

>  <i_i_glide_rotatable_bonds>  (213) 
0

>  <r_i_docking_score>  (213) 
-3.38546

>  <r_i_glide_ligand_efficiency>  (213) 
-0.188081

>  <r_i_glide_ligand_efficiency_sa>  (213) 
-0.492912

>  <r_i_glide_ligand_efficiency_ln>  (213) 
-0.870214

>  <r_i_glide_gscore>  (213) 
-3.38546

>  <r_i_glide_lipo>  (213) 
-0.74432

>  <r_i_glide_hbond>  (213) 
0

>  <r_i_glide_metal>  (213) 
-0

>  <r_i_glide_rewards>  (213) 
-1.67603

>  <r_i_glide_evdw>  (213) 
-22.5159

>  <r_i_glide_ecoul>  (213) 
1.09544

>  <r_i_glide_erotb>  (213) 
0

>  <r_i_glide_esite>  (213) 
-0.00362697

>  <r_i_glide_emodel>  (213) 
-26.4857

>  <r_i_glide_energy>  (213) 
-21.4205

>  <r_i_glide_einternal>  (213) 
0

>  <r_i_glide_intrahb_reward>  (213) 
-0

>  <i_i_glide_confnum>  (213) 
2

>  <i_i_glide_posenum>  (213) 
1

>  <r_i_glide_eff_state_penalty>  (213) 
0

>  <ligand_id>  (213) 
57

>  <original_smiles>  (213) 
CC12CC3CC(C1)N(C3)C(=O)C1(CCOC1=O)S2

>  <smiles>  (213) 
[H]C([H])([H])C12SC3(C(=O)OC([H])([H])C3([H])[H])C(=O)N3C([H])([H])C([H])(C([H])([H])C3([H])C1([H])[H])C2([H])[H]

$$$$
57:0:1
     RDKit          3D

 35 38  0  0  1  0  0  0  0  0999 V2000
    4.2825   -1.2295   -2.2794 C   0  0  0  0  0  0  0  0  0  0  0  0
    4.5978   -1.9844   -0.9730 C   0  0  2  0  0  0  0  0  0  0  0  0
    5.9808   -2.6887   -1.0978 C   0  0  0  0  0  0  0  0  0  0  0  0
    6.1752   -3.9056   -0.1524 C   0  0  2  0  0  0  0  0  0  0  0  0
    5.0350   -4.8962   -0.3667 C   0  0  0  0  0  0  0  0  0  0  0  0
    3.8946   -4.1231    0.2768 C   0  0  2  0  0  0  0  0  0  0  0  0
    3.4640   -3.0129   -0.7162 C   0  0  0  0  0  0  0  0  0  0  0  0
    4.5106   -3.5567    1.4833 N   0  0  0  0  0  0  0  0  0  0  0  0
    5.9665   -3.5476    1.3166 C   0  0  0  0  0  0  0  0  0  0  0  0
    3.8752   -2.7088    2.2644 C   0  0  0  0  0  0  0  0  0  0  0  0
    3.2894   -3.0938    3.2837 O   0  0  0  0  0  0  0  0  0  0  0  0
    3.7620   -1.2028    1.8151 C   0  0  1  0  0  0  0  0  0  0  0  0
    2.2934   -0.8017    1.7176 C   0  0  0  0  0  0  0  0  0  0  0  0
    1.9472   -0.1603    3.0464 C   0  0  0  0  0  0  0  0  0  0  0  0
    3.1958    0.2046    3.5963 O   0  0  0  0  0  0  0  0  0  0  0  0
    4.2341   -0.3715    3.0061 C   0  0  0  0  0  0  0  0  0  0  0  0
    5.4275   -0.2429    3.3267 O   0  0  0  0  0  0  0  0  0  0  0  0
    4.7213   -0.7169    0.3407 S   0  0  0  0  0  0  0  0  0  0  0  0
    4.2321   -1.9102   -3.1325 H   0  0  0  0  0  0  0  0  0  0  0  0
    5.0355   -0.4763   -2.4994 H   0  0  0  0  0  0  0  0  0  0  0  0
    3.3199   -0.7135   -2.2196 H   0  0  0  0  0  0  0  0  0  0  0  0
    6.1458   -3.0164   -2.1256 H   0  0  0  0  0  0  0  0  0  0  0  0
    6.7617   -1.9590   -0.8946 H   0  0  0  0  0  0  0  0  0  0  0  0
    7.1555   -4.3621   -0.3198 H   0  0  0  0  0  0  0  0  0  0  0  0
    4.8510   -5.1582   -1.4088 H   0  0  0  0  0  0  0  0  0  0  0  0
    5.2103   -5.8169    0.1944 H   0  0  0  0  0  0  0  0  0  0  0  0
    3.0583   -4.7866    0.5317 H   0  0  0  0  0  0  0  0  0  0  0  0
    2.5580   -2.5055   -0.3959 H   0  0  0  0  0  0  0  0  0  0  0  0
    3.1886   -3.4982   -1.6569 H   0  0  0  0  0  0  0  0  0  0  0  0
    6.4231   -4.2789    1.9987 H   0  0  0  0  0  0  0  0  0  0  0  0
    6.4191   -2.5778    1.5844 H   0  0  0  0  0  0  0  0  0  0  0  0
    2.1603   -0.0867    0.8975 H   0  0  0  0  0  0  0  0  0  0  0  0
    1.6177   -1.6300    1.5051 H   0  0  0  0  0  0  0  0  0  0  0  0
    1.2818    0.6895    2.9184 H   0  0  0  0  0  0  0  0  0  0  0  0
    1.4762   -0.8852    3.7116 H   0  0  0  0  0  0  0  0  0  0  0  0
  2  1  1  6
  1 19  1  0
  1 20  1  0
  1 21  1  0
  2  7  1  0
  2 18  1  0
  2  3  1  0
  3  4  1  0
  3 22  1  0
  3 23  1  0
  4  9  1  0
  4  5  1  0
  4 24  1  1
  5  6  1  0
  5 25  1  0
  5 26  1  0
  6  7  1  0
  6  8  1  0
  6 27  1  1
  7 28  1  0
  7 29  1  0
  8  9  1  0
  8 10  1  0
  9 30  1  0
  9 31  1  0
 10 11  2  0
 10 12  1  0
 12 16  1  0
 12 13  1  0
 12 18  1  6
 13 14  1  0
 13 32  1  0
 13 33  1  0
 14 15  1  0
 14 34  1  0
 14 35  1  0
 15 16  1  0
 16 17  2  0
M  END
>  <i_m_ct_stereo_status>  (214) 
1

>  <s_m_source_file>  (214) 
/var/tmp/pbs.5076255.sched01/tmppdndq9e4/92von5zo7h.sdf

>  <i_m_source_file_index>  (214) 
3

>  <i_lp_mmshare_version>  (214) 
48012

>  <i_f3d_flags>  (214) 
0

>  <s_epik_input>  (214) 
W0NIM11bQ0BAXShTMSkoW0NIMl0yKVtDSDJdW0NAQEhdKFtDSDJdMylbQ0gyXVtDQEhdMk4zQyg9TylbQ0BdMTRbQ0gyXVtDSDJdT0M0PU8=

>  <s_epik_cmdline>  (214) 
J2VwaWtfcHl0aG9uJywgJy1waHQnLCAnMi4wJywgJy1waCcsICc3LjAnLCAnLXRuJywgJzgnLCAnLW1hJywgJzIwMCcsICctaW1hZScsICc8aW5maWxlLm1hZT4nLCAnLW9tYWUnLCAnPG91dGZpbGUubWFlPic=

>  <r_lp_tautomer_probability>  (214) 
1

>  <r_epik_Ionization_Penalty>  (214) 
3.90693e-10

>  <r_epik_Ionization_Penalty_Charging>  (214) 
0

>  <r_epik_Ionization_Penalty_Neutral>  (214) 
3.90693e-10

>  <r_epik_State_Penalty>  (214) 
-0

>  <r_epik_Charging_Adjusted_Penalty>  (214) 
0

>  <i_epik_Tot_Q>  (214) 
0

>  <i_epik_Tot_abs_Q>  (214) 
0

>  <s_epik_Chemistry_Notes>  (214) 
This compound has an ester and may undergo hydrolysis at high or low pH.

>  <s_lp_Force_Field>  (214) 
OPLS3e

>  <r_lp_Energy>  (214) 
49.2601

>  <b_lp_Chiralities_Consistent>  (214) 
1

>  <s_lp_Variant>  (214) 
57:0-1

>  <s_i_glide_gridfile>  (214) 
pfpi4k_grid

>  <i_i_glide_lignum>  (214) 
3

>  <i_i_glide_rotatable_bonds>  (214) 
0

>  <r_i_docking_score>  (214) 
-3.2981

>  <r_i_glide_ligand_efficiency>  (214) 
-0.183228

>  <r_i_glide_ligand_efficiency_sa>  (214) 
-0.480193

>  <r_i_glide_ligand_efficiency_ln>  (214) 
-0.84776

>  <r_i_glide_gscore>  (214) 
-3.2981

>  <r_i_glide_lipo>  (214) 
-0.25211

>  <r_i_glide_hbond>  (214) 
0

>  <r_i_glide_metal>  (214) 
-0

>  <r_i_glide_rewards>  (214) 
-1.68577

>  <r_i_glide_evdw>  (214) 
-23.2334

>  <r_i_glide_ecoul>  (214) 
-1.32367

>  <r_i_glide_erotb>  (214) 
0

>  <r_i_glide_esite>  (214) 
0

>  <r_i_glide_emodel>  (214) 
-29.5898

>  <r_i_glide_energy>  (214) 
-24.557

>  <r_i_glide_einternal>  (214) 
0

>  <r_i_glide_intrahb_reward>  (214) 
-0

>  <i_i_glide_confnum>  (214) 
1

>  <i_i_glide_posenum>  (214) 
7

>  <r_i_glide_eff_state_penalty>  (214) 
0

>  <ligand_id>  (214) 
57

>  <original_smiles>  (214) 
CC12CC3CC(C1)N(C3)C(=O)C1(CCOC1=O)S2

>  <smiles>  (214) 
[H]C([H])([H])C12SC3(C(=O)OC([H])([H])C3([H])[H])C(=O)N3C([H])([H])C([H])(C([H])([H])C3([H])C1([H])[H])C2([H])[H]

$$$$
57:0:2
     RDKit          3D

 35 38  0  0  1  0  0  0  0  0999 V2000
    7.8765   -3.0898   -0.5811 C   0  0  0  0  0  0  0  0  0  0  0  0
    6.3436   -2.9820   -0.6766 C   0  0  2  0  0  0  0  0  0  0  0  0
    5.9010   -3.0690   -2.1717 C   0  0  0  0  0  0  0  0  0  0  0  0
    4.5329   -2.4082   -2.4892 C   0  0  2  0  0  0  0  0  0  0  0  0
    4.5332   -0.9687   -1.9954 C   0  0  0  0  0  0  0  0  0  0  0  0
    4.4845   -1.2040   -0.4881 C   0  0  2  0  0  0  0  0  0  0  0  0
    5.9058   -1.6301   -0.0368 C   0  0  0  0  0  0  0  0  0  0  0  0
    3.5268   -2.3071   -0.3588 N   0  0  0  0  0  0  0  0  0  0  0  0
    3.3953   -3.0057   -1.6367 C   0  0  0  0  0  0  0  0  0  0  0  0
    3.2961   -2.9037    0.8165 C   0  0  0  0  0  0  0  0  0  0  0  0
    2.3382   -2.5893    1.5191 O   0  0  0  0  0  0  0  0  0  0  0  0
    4.3248   -3.9435    1.3258 C   0  0  1  0  0  0  0  0  0  0  0  0
    4.8936   -3.5370    2.6918 C   0  0  0  0  0  0  0  0  0  0  0  0
    5.0566   -4.8607    3.4104 C   0  0  0  0  0  0  0  0  0  0  0  0
    4.0309   -5.6670    2.8697 O   0  0  0  0  0  0  0  0  0  0  0  0
    3.5724   -5.2309    1.6945 C   0  0  0  0  0  0  0  0  0  0  0  0
    2.7005   -5.7572    1.0094 O   0  0  0  0  0  0  0  0  0  0  0  0
    5.6823   -4.4558    0.1967 S   0  0  0  0  0  0  0  0  0  0  0  0
    8.3828   -2.2777   -1.1041 H   0  0  0  0  0  0  0  0  0  0  0  0
    8.2427   -4.0219   -1.0107 H   0  0  0  0  0  0  0  0  0  0  0  0
    8.2087   -3.0651    0.4609 H   0  0  0  0  0  0  0  0  0  0  0  0
    6.6730   -2.6475   -2.8087 H   0  0  0  0  0  0  0  0  0  0  0  0
    5.8478   -4.1140   -2.4704 H   0  0  0  0  0  0  0  0  0  0  0  0
    4.3111   -2.4725   -3.5582 H   0  0  0  0  0  0  0  0  0  0  0  0
    5.3915   -0.3714   -2.3073 H   0  0  0  0  0  0  0  0  0  0  0  0
    3.6248   -0.4561   -2.3128 H   0  0  0  0  0  0  0  0  0  0  0  0
    4.1401   -0.3144    0.0461 H   0  0  0  0  0  0  0  0  0  0  0  0
    5.9944   -1.6336    1.0467 H   0  0  0  0  0  0  0  0  0  0  0  0
    6.5976   -0.8424   -0.3398 H   0  0  0  0  0  0  0  0  0  0  0  0
    2.4053   -2.8022   -2.0666 H   0  0  0  0  0  0  0  0  0  0  0  0
    3.4739   -4.0917   -1.5328 H   0  0  0  0  0  0  0  0  0  0  0  0
    5.8626   -3.0459    2.6376 H   0  0  0  0  0  0  0  0  0  0  0  0
    4.2307   -2.8684    3.2416 H   0  0  0  0  0  0  0  0  0  0  0  0
    6.0283   -5.2780    3.1478 H   0  0  0  0  0  0  0  0  0  0  0  0
    4.9952   -4.7534    4.4902 H   0  0  0  0  0  0  0  0  0  0  0  0
  2  1  1  6
  1 19  1  0
  1 20  1  0
  1 21  1  0
  2  7  1  0
  2 18  1  0
  2  3  1  0
  3  4  1  0
  3 22  1  0
  3 23  1  0
  4  9  1  0
  4  5  1  0
  4 24  1  6
  5  6  1  0
  5 25  1  0
  5 26  1  0
  6  7  1  0
  6  8  1  0
  6 27  1  1
  7 28  1  0
  7 29  1  0
  8  9  1  0
  8 10  1  0
  9 30  1  0
  9 31  1  0
 10 11  2  0
 10 12  1  0
 12 16  1  0
 12 13  1  0
 12 18  1  6
 13 14  1  0
 13 32  1  0
 13 33  1  0
 14 15  1  0
 14 34  1  0
 14 35  1  0
 15 16  1  0
 16 17  2  0
M  END
>  <i_m_ct_stereo_status>  (215) 
1

>  <s_m_source_file>  (215) 
/var/tmp/pbs.5076255.sched01/tmppdndq9e4/92von5zo7h.sdf

>  <i_m_source_file_index>  (215) 
3

>  <i_lp_mmshare_version>  (215) 
48012

>  <i_f3d_flags>  (215) 
0

>  <s_epik_input>  (215) 
W0NIM11bQ0BAXShTMSkoW0NIMl0yKVtDSDJdW0NAQEhdKFtDSDJdMylbQ0gyXVtDQEhdMk4zQyg9TylbQ0BdMTRbQ0gyXVtDSDJdT0M0PU8=

>  <s_epik_cmdline>  (215) 
J2VwaWtfcHl0aG9uJywgJy1waHQnLCAnMi4wJywgJy1waCcsICc3LjAnLCAnLXRuJywgJzgnLCAnLW1hJywgJzIwMCcsICctaW1hZScsICc8aW5maWxlLm1hZT4nLCAnLW9tYWUnLCAnPG91dGZpbGUubWFlPic=

>  <r_lp_tautomer_probability>  (215) 
1

>  <r_epik_Ionization_Penalty>  (215) 
3.90693e-10

>  <r_epik_Ionization_Penalty_Charging>  (215) 
0

>  <r_epik_Ionization_Penalty_Neutral>  (215) 
3.90693e-10

>  <r_epik_State_Penalty>  (215) 
-0

>  <r_epik_Charging_Adjusted_Penalty>  (215) 
0

>  <i_epik_Tot_Q>  (215) 
0

>  <i_epik_Tot_abs_Q>  (215) 
0

>  <s_epik_Chemistry_Notes>  (215) 
This compound has an ester and may undergo hydrolysis at high or low pH.

>  <s_lp_Force_Field>  (215) 
OPLS3e

>  <r_lp_Energy>  (215) 
49.2601

>  <b_lp_Chiralities_Consistent>  (215) 
1

>  <s_lp_Variant>  (215) 
57:0-1

>  <s_i_glide_gridfile>  (215) 
pfpi4k_grid

>  <i_i_glide_lignum>  (215) 
3

>  <i_i_glide_rotatable_bonds>  (215) 
0

>  <r_i_docking_score>  (215) 
-3.28751

>  <r_i_glide_ligand_efficiency>  (215) 
-0.18264

>  <r_i_glide_ligand_efficiency_sa>  (215) 
-0.478651

>  <r_i_glide_ligand_efficiency_ln>  (215) 
-0.845038

>  <r_i_glide_gscore>  (215) 
-3.28751

>  <r_i_glide_lipo>  (215) 
-0.53815

>  <r_i_glide_hbond>  (215) 
0

>  <r_i_glide_metal>  (215) 
-0

>  <r_i_glide_rewards>  (215) 
-1.59799

>  <r_i_glide_evdw>  (215) 
-25.0382

>  <r_i_glide_ecoul>  (215) 
1.13126

>  <r_i_glide_erotb>  (215) 
0

>  <r_i_glide_esite>  (215) 
-0.0691532

>  <r_i_glide_emodel>  (215) 
-28.8185

>  <r_i_glide_energy>  (215) 
-23.9069

>  <r_i_glide_einternal>  (215) 
0

>  <r_i_glide_intrahb_reward>  (215) 
-0

>  <i_i_glide_confnum>  (215) 
4

>  <i_i_glide_posenum>  (215) 
25

>  <r_i_glide_eff_state_penalty>  (215) 
0

>  <ligand_id>  (215) 
57

>  <original_smiles>  (215) 
CC12CC3CC(C1)N(C3)C(=O)C1(CCOC1=O)S2

>  <smiles>  (215) 
[H]C([H])([H])C12SC3(C(=O)OC([H])([H])C3([H])[H])C(=O)N3C([H])([H])C([H])(C([H])([H])C3([H])C1([H])[H])C2([H])[H]

$$$$
58:0:0
     RDKit          3D

 77 81  0  0  1  0  0  0  0  0999 V2000
    2.2999   -1.6614    2.8048 C   0  0  0  0  0  0  0  0  0  0  0  0
    3.3594   -0.9203    2.4453 C   0  0  0  0  0  0  0  0  0  0  0  0
    3.4144    0.5449    2.8465 C   0  0  0  0  0  0  0  0  0  0  0  0
    4.5754   -1.4217    1.6306 C   0  0  2  0  0  0  0  0  0  0  0  0
    4.6547   -0.6711    0.2805 C   0  0  0  0  0  0  0  0  0  0  0  0
    4.7311   -1.7216   -0.8344 C   0  0  0  0  0  0  0  0  0  0  0  0
    5.3418   -2.9633   -0.1497 C   0  0  2  0  0  0  0  0  0  0  0  0
    6.9055   -2.7978   -0.1141 C   0  0  0  0  0  0  0  0  0  0  0  0
    7.6426   -3.6081    0.5005 O   0  0  0  0  0  0  0  0  0  0  0  0
    7.4113   -1.8915   -0.7879 O   0  0  0  0  0  0  0  0  0  0  0  0
    4.9595   -4.2930   -0.8051 C   0  0  0  0  0  0  0  0  0  0  0  0
    5.3350   -5.5146    0.0754 C   0  0  0  0  0  0  0  0  0  0  0  0
    4.9341   -5.5004    1.5984 C   0  0  1  0  0  0  0  0  0  0  0  0
    6.0754   -6.3572    2.2300 C   0  0  0  0  0  0  0  0  0  0  0  0
    5.0927   -4.0431    2.1914 C   0  0  2  0  0  0  0  0  0  0  0  0
    4.6745   -3.9132    3.6712 C   0  0  0  0  0  0  0  0  0  0  0  0
    3.8289   -5.0624    4.2272 C   0  0  0  0  0  0  0  0  0  0  0  0
    2.8177   -5.6870    3.2333 C   0  0  2  0  0  0  0  0  0  0  0  0
    1.8441   -6.7130    3.9680 C   0  0  1  0  0  0  0  0  0  0  0  0
    2.5781   -7.4784    5.1122 C   0  0  0  0  0  0  0  0  0  0  0  0
    0.6789   -5.9039    4.6042 C   0  0  0  0  0  0  0  0  0  0  0  0
   -0.4000   -6.7851    5.2638 C   0  0  0  0  0  0  0  0  0  0  0  0
   -0.9740   -7.8368    4.2991 C   0  0  1  0  0  0  0  0  0  0  0  0
   -1.7657   -7.1722    3.3351 O   0  0  0  0  0  0  0  0  0  0  0  0
    0.1233   -8.6570    3.5910 C   0  0  1  0  0  0  0  0  0  0  0  0
   -0.5007   -9.6353    2.5745 C   0  0  0  0  0  0  0  0  0  0  0  0
    1.1868   -7.7100    2.9626 C   0  0  2  0  0  0  0  0  0  0  0  0
    2.2274   -8.4518    2.0912 C   0  0  0  0  0  0  0  0  0  0  0  0
    3.5649   -7.7068    1.8860 C   0  0  0  0  0  0  0  0  0  0  0  0
    3.4772   -6.1532    1.8666 C   0  0  2  0  0  0  0  0  0  0  0  0
    2.5059   -5.7797    0.7030 C   0  0  0  0  0  0  0  0  0  0  0  0
    4.6064   -2.9214    1.2165 C   0  0  1  0  0  0  0  0  0  0  0  0
    1.4962   -1.2366    3.3882 H   0  0  0  0  0  0  0  0  0  0  0  0
    2.2033   -2.7020    2.5419 H   0  0  0  0  0  0  0  0  0  0  0  0
    4.3156    0.7422    3.4282 H   0  0  0  0  0  0  0  0  0  0  0  0
    2.5485    0.8234    3.4448 H   0  0  0  0  0  0  0  0  0  0  0  0
    3.4149    1.1910    1.9681 H   0  0  0  0  0  0  0  0  0  0  0  0
    5.4761   -1.1989    2.2030 H   0  0  0  0  0  0  0  0  0  0  0  0
    3.7969   -0.0302    0.0909 H   0  0  0  0  0  0  0  0  0  0  0  0
    5.5336   -0.0252    0.2775 H   0  0  0  0  0  0  0  0  0  0  0  0
    3.7332   -1.9461   -1.1966 H   0  0  0  0  0  0  0  0  0  0  0  0
    5.2708   -1.3542   -1.7116 H   0  0  0  0  0  0  0  0  0  0  0  0
    3.9011   -4.2839   -1.0349 H   0  0  0  0  0  0  0  0  0  0  0  0
    5.4382   -4.3722   -1.7794 H   0  0  0  0  0  0  0  0  0  0  0  0
    4.9568   -6.4106   -0.4146 H   0  0  0  0  0  0  0  0  0  0  0  0
    6.4093   -5.6497   -0.0227 H   0  0  0  0  0  0  0  0  0  0  0  0
    5.9542   -6.5556    3.2879 H   0  0  0  0  0  0  0  0  0  0  0  0
    7.0432   -5.8652    2.1222 H   0  0  0  0  0  0  0  0  0  0  0  0
    6.1880   -7.3204    1.7310 H   0  0  0  0  0  0  0  0  0  0  0  0
    6.1529   -3.8550    2.3031 H   0  0  0  0  0  0  0  0  0  0  0  0
    5.5788   -3.8354    4.2816 H   0  0  0  0  0  0  0  0  0  0  0  0
    4.1666   -2.9788    3.8605 H   0  0  0  0  0  0  0  0  0  0  0  0
    4.5150   -5.8215    4.5995 H   0  0  0  0  0  0  0  0  0  0  0  0
    3.3138   -4.6830    5.1106 H   0  0  0  0  0  0  0  0  0  0  0  0
    2.1874   -4.8479    2.9465 H   0  0  0  0  0  0  0  0  0  0  0  0
    1.9745   -8.2553    5.5717 H   0  0  0  0  0  0  0  0  0  0  0  0
    2.8395   -6.8114    5.9326 H   0  0  0  0  0  0  0  0  0  0  0  0
    3.4960   -7.9575    4.7814 H   0  0  0  0  0  0  0  0  0  0  0  0
    1.0535   -5.1880    5.3366 H   0  0  0  0  0  0  0  0  0  0  0  0
    0.1954   -5.3076    3.8282 H   0  0  0  0  0  0  0  0  0  0  0  0
    0.0188   -7.2920    6.1338 H   0  0  0  0  0  0  0  0  0  0  0  0
   -1.2078   -6.1582    5.6425 H   0  0  0  0  0  0  0  0  0  0  0  0
   -1.6284   -8.5119    4.8570 H   0  0  0  0  0  0  0  0  0  0  0  0
   -2.2244   -7.8522    2.8616 H   0  0  0  0  0  0  0  0  0  0  0  0
    0.5945   -9.2902    4.3389 H   0  0  0  0  0  0  0  0  0  0  0  0
   -0.9255   -9.1201    1.7105 H   0  0  0  0  0  0  0  0  0  0  0  0
   -1.2933  -10.2269    3.0319 H   0  0  0  0  0  0  0  0  0  0  0  0
    0.2397  -10.3451    2.2023 H   0  0  0  0  0  0  0  0  0  0  0  0
    0.5820   -7.1072    2.2947 H   0  0  0  0  0  0  0  0  0  0  0  0
    2.4253   -9.4505    2.4830 H   0  0  0  0  0  0  0  0  0  0  0  0
    1.7824   -8.6047    1.1075 H   0  0  0  0  0  0  0  0  0  0  0  0
    4.2028   -8.0100    2.7125 H   0  0  0  0  0  0  0  0  0  0  0  0
    4.0539   -8.0835    0.9848 H   0  0  0  0  0  0  0  0  0  0  0  0
    1.5066   -6.1771    0.7974 H   0  0  0  0  0  0  0  0  0  0  0  0
    2.8391   -6.1752   -0.2541 H   0  0  0  0  0  0  0  0  0  0  0  0
    2.3512   -4.7130    0.5907 H   0  0  0  0  0  0  0  0  0  0  0  0
    3.5773   -3.1339    0.9817 H   0  0  0  0  0  0  0  0  0  0  0  0
  1  2  2  0
  1 33  1  0
  1 34  1  0
  2  3  1  0
  2  4  1  0
  3 35  1  0
  3 36  1  0
  3 37  1  0
  4 32  1  0
  4  5  1  0
  4 38  1  1
  5  6  1  0
  5 39  1  0
  5 40  1  0
  6  7  1  0
  6 41  1  0
  6 42  1  0
  7 32  1  0
  7  8  1  1
  7 11  1  0
  8  9  2  0
  8 10  1  0
 11 12  1  0
 11 43  1  0
 11 44  1  0
 12 13  1  0
 12 45  1  0
 12 46  1  0
 13 30  1  0
 13 14  1  1
 13 15  1  0
 14 47  1  0
 14 48  1  0
 14 49  1  0
 15 16  1  0
 15 32  1  0
 15 50  1  1
 16 17  1  0
 16 51  1  0
 16 52  1  0
 17 18  1  0
 17 53  1  0
 17 54  1  0
 18 30  1  0
 18 19  1  0
 18 55  1  6
 19 27  1  0
 19 20  1  1
 19 21  1  0
 20 56  1  0
 20 57  1  0
 20 58  1  0
 21 22  1  0
 21 59  1  0
 21 60  1  0
 22 23  1  0
 22 61  1  0
 22 62  1  0
 23 24  1  0
 23 25  1  0
 23 63  1  1
 24 64  1  0
 25 26  1  0
 25 27  1  0
 25 65  1  1
 26 66  1  0
 26 67  1  0
 26 68  1  0
 27 28  1  0
 27 69  1  6
 28 29  1  0
 28 70  1  0
 28 71  1  0
 29 30  1  0
 29 72  1  0
 29 73  1  0
 30 31  1  6
 31 74  1  0
 31 75  1  0
 31 76  1  0
 32 77  1  6
M  CHG  1  10  -1
M  END
>  <i_m_ct_stereo_status>  (216) 
1

>  <s_m_source_file>  (216) 
/var/tmp/pbs.5076255.sched01/tmppdndq9e4/92von5zo7h.sdf

>  <i_m_source_file_index>  (216) 
4

>  <i_lp_mmshare_version>  (216) 
48012

>  <i_f3d_flags>  (216) 
0

>  <s_epik_input>  (216) 
W0NIMl09QyhbQ0gzXSlbQ0BIXShbQ0gyXVtDSDJdMSlbQ0BASF0oW0NAXTEyQyg9TylbT0hdKVtDQEBIXTNbQ0BdKFtDSDNdKShbQ0gyXVtDSDJdMilbQ0BdNChbQ0gzXSlbQ0BIXShbQ0gyXVtDSDJdMylbQ0BdNShbQ0gzXSlbQ0BASF0oW0NIMl1bQ0gyXTQpW0NASF0oW0NIM10pW0NASF0oW09IXSlbQ0gyXVtDSDJdNQ==

>  <s_epik_cmdline>  (216) 
J2VwaWtfcHl0aG9uJywgJy1waHQnLCAnMi4wJywgJy1waCcsICc3LjAnLCAnLXRuJywgJzgnLCAnLW1hJywgJzIwMCcsICctaW1hZScsICc8aW5maWxlLm1hZT4nLCAnLW9tYWUnLCAnPG91dGZpbGUubWFlPic=

>  <r_epik_Ionization_Penalty>  (216) 
0.00776387

>  <r_epik_Ionization_Penalty_Charging>  (216) 
0.00776084

>  <r_epik_Ionization_Penalty_Neutral>  (216) 
3.02708e-06

>  <r_epik_State_Penalty>  (216) 
0.00581457

>  <r_epik_Charging_Adjusted_Penalty>  (216) 
0.0135754

>  <i_epik_Tot_Q>  (216) 
-1

>  <i_epik_Tot_abs_Q>  (216) 
1

>  <s_lp_Force_Field>  (216) 
OPLS3e

>  <r_lp_Energy>  (216) 
95.5911

>  <b_lp_Chiralities_Consistent>  (216) 
1

>  <s_lp_Variant>  (216) 
58:0-1

>  <s_i_glide_gridfile>  (216) 
pfpi4k_grid

>  <i_i_glide_lignum>  (216) 
4

>  <i_i_glide_rotatable_bonds>  (216) 
3

>  <r_i_docking_score>  (216) 
-3.55247

>  <r_i_glide_ligand_efficiency>  (216) 
-0.111015

>  <r_i_glide_ligand_efficiency_sa>  (216) 
-0.35245

>  <r_i_glide_ligand_efficiency_ln>  (216) 
-0.795495

>  <r_i_glide_gscore>  (216) 
-3.55247

>  <r_i_glide_lipo>  (216) 
-0.458129

>  <r_i_glide_hbond>  (216) 
-0.27423

>  <r_i_glide_metal>  (216) 
-0

>  <r_i_glide_rewards>  (216) 
-0.470993

>  <r_i_glide_evdw>  (216) 
-32.053

>  <r_i_glide_ecoul>  (216) 
-5.65919

>  <r_i_glide_erotb>  (216) 
0.10241

>  <r_i_glide_esite>  (216) 
0

>  <r_i_glide_emodel>  (216) 
-45.7908

>  <r_i_glide_energy>  (216) 
-37.7122

>  <r_i_glide_einternal>  (216) 
3.54374

>  <r_i_glide_intrahb_reward>  (216) 
-0

>  <i_i_glide_confnum>  (216) 
1

>  <i_i_glide_posenum>  (216) 
29

>  <r_i_glide_eff_state_penalty>  (216) 
0

>  <ligand_id>  (216) 
58

>  <original_smiles>  (216) 
C=C(C)C1CCC2(C(=O)O)CCC3(C)C(CCC4C5(C)CCC(O)C(C)C5CCC43C)C12

>  <smiles>  (216) 
[H]OC1([H])C([H])([H])C([H])([H])C2(C([H])([H])[H])C([H])(C([H])([H])C([H])([H])C3(C([H])([H])[H])C2([H])C([H])([H])C([H])([H])C2([H])C4([H])C([H])(C(=C([H])[H])C([H])([H])[H])C([H])([H])C([H])([H])C4(C(=O)[O-])C([H])([H])C([H])([H])C23C([H])([H])[H])C1([H])C([H])([H])[H]

$$$$
58:0:1
     RDKit          3D

 77 81  0  0  1  0  0  0  0  0999 V2000
    3.8853   -0.5083    3.9327 C   0  0  0  0  0  0  0  0  0  0  0  0
    3.6380   -1.0533    2.7286 C   0  0  0  0  0  0  0  0  0  0  0  0
    2.2020   -1.2225    2.2497 C   0  0  0  0  0  0  0  0  0  0  0  0
    4.7931   -1.4963    1.8091 C   0  0  2  0  0  0  0  0  0  0  0  0
    4.8076   -0.6351    0.5262 C   0  0  0  0  0  0  0  0  0  0  0  0
    4.7211   -1.6103   -0.6583 C   0  0  0  0  0  0  0  0  0  0  0  0
    5.3122   -2.9372   -0.1302 C   0  0  2  0  0  0  0  0  0  0  0  0
    6.8828   -2.8564   -0.1896 C   0  0  0  0  0  0  0  0  0  0  0  0
    7.6077   -3.7806    0.2625 O   0  0  0  0  0  0  0  0  0  0  0  0
    7.4197   -1.8952   -0.7293 O   0  0  0  0  0  0  0  0  0  0  0  0
    4.8074   -4.1898   -0.8448 C   0  0  0  0  0  0  0  0  0  0  0  0
    5.1655   -5.5014   -0.1011 C   0  0  0  0  0  0  0  0  0  0  0  0
    4.9022   -5.5803    1.4510 C   0  0  1  0  0  0  0  0  0  0  0  0
    6.0393   -6.5368    1.9200 C   0  0  0  0  0  0  0  0  0  0  0  0
    5.1979   -4.1839    2.1372 C   0  0  2  0  0  0  0  0  0  0  0  0
    4.8609   -4.1322    3.6413 C   0  0  0  0  0  0  0  0  0  0  0  0
    4.0241   -5.2913    4.1816 C   0  0  0  0  0  0  0  0  0  0  0  0
    2.9069   -5.7791    3.2298 C   0  0  2  0  0  0  0  0  0  0  0  0
    1.9494   -6.8203    3.9666 C   0  0  1  0  0  0  0  0  0  0  0  0
    2.7338   -7.7071    4.9787 C   0  0  0  0  0  0  0  0  0  0  0  0
    0.8888   -6.0123    4.7596 C   0  0  0  0  0  0  0  0  0  0  0  0
   -0.1837   -6.8904    5.4378 C   0  0  0  0  0  0  0  0  0  0  0  0
   -0.8879   -7.8333    4.4496 C   0  0  1  0  0  0  0  0  0  0  0  0
   -1.7518   -7.0660    3.6363 O   0  0  0  0  0  0  0  0  0  0  0  0
    0.1077   -8.6383    3.5890 C   0  0  1  0  0  0  0  0  0  0  0  0
   -0.6439   -9.5078    2.5639 C   0  0  0  0  0  0  0  0  0  0  0  0
    1.1627   -7.6992    2.9522 C   0  0  2  0  0  0  0  0  0  0  0  0
    2.0922   -8.4267    1.9569 C   0  0  0  0  0  0  0  0  0  0  0  0
    3.4453   -7.7312    1.6880 C   0  0  0  0  0  0  0  0  0  0  0  0
    3.4400   -6.1776    1.7926 C   0  0  2  0  0  0  0  0  0  0  0  0
    2.4046   -5.6666    0.7382 C   0  0  0  0  0  0  0  0  0  0  0  0
    4.7154   -2.9645    1.2943 C   0  0  1  0  0  0  0  0  0  0  0  0
    3.0657   -0.1915    4.5654 H   0  0  0  0  0  0  0  0  0  0  0  0
    4.8977   -0.3703    4.2976 H   0  0  0  0  0  0  0  0  0  0  0  0
    2.0221   -0.6815    1.3246 H   0  0  0  0  0  0  0  0  0  0  0  0
    1.5011   -0.8290    2.9828 H   0  0  0  0  0  0  0  0  0  0  0  0
    1.9281   -2.2631    2.0952 H   0  0  0  0  0  0  0  0  0  0  0  0
    5.7478   -1.3378    2.3225 H   0  0  0  0  0  0  0  0  0  0  0  0
    3.9960    0.0889    0.4845 H   0  0  0  0  0  0  0  0  0  0  0  0
    5.7238   -0.0439    0.4836 H   0  0  0  0  0  0  0  0  0  0  0  0
    3.6856   -1.7564   -0.9495 H   0  0  0  0  0  0  0  0  0  0  0  0
    5.2028   -1.2203   -1.5537 H   0  0  0  0  0  0  0  0  0  0  0  0
    3.7422   -4.1092   -1.0036 H   0  0  0  0  0  0  0  0  0  0  0  0
    5.2159   -4.2252   -1.8527 H   0  0  0  0  0  0  0  0  0  0  0  0
    4.6766   -6.3281   -0.6200 H   0  0  0  0  0  0  0  0  0  0  0  0
    6.2119   -5.7046   -0.3135 H   0  0  0  0  0  0  0  0  0  0  0  0
    5.9934   -6.8109    2.9668 H   0  0  0  0  0  0  0  0  0  0  0  0
    7.0178   -6.0795    1.7672 H   0  0  0  0  0  0  0  0  0  0  0  0
    6.0614   -7.4582    1.3411 H   0  0  0  0  0  0  0  0  0  0  0  0
    6.2756   -4.0651    2.1855 H   0  0  0  0  0  0  0  0  0  0  0  0
    5.8007   -4.1161    4.2024 H   0  0  0  0  0  0  0  0  0  0  0  0
    4.3475   -3.2100    3.8907 H   0  0  0  0  0  0  0  0  0  0  0  0
    4.7030   -6.1068    4.4285 H   0  0  0  0  0  0  0  0  0  0  0  0
    3.6051   -4.9619    5.1341 H   0  0  0  0  0  0  0  0  0  0  0  0
    2.3108   -4.8786    3.0608 H   0  0  0  0  0  0  0  0  0  0  0  0
    2.1298   -8.4894    5.4301 H   0  0  0  0  0  0  0  0  0  0  0  0
    3.0915   -7.1221    5.8247 H   0  0  0  0  0  0  0  0  0  0  0  0
    3.5966   -8.2059    4.5443 H   0  0  0  0  0  0  0  0  0  0  0  0
    1.3647   -5.3785    5.5108 H   0  0  0  0  0  0  0  0  0  0  0  0
    0.3688   -5.3357    4.0729 H   0  0  0  0  0  0  0  0  0  0  0  0
    0.2848   -7.4888    6.2295 H   0  0  0  0  0  0  0  0  0  0  0  0
   -0.9130   -6.2425    5.9256 H   0  0  0  0  0  0  0  0  0  0  0  0
   -1.5144   -8.5312    5.0077 H   0  0  0  0  0  0  0  0  0  0  0  0
   -2.2670   -7.6979    3.1411 H   0  0  0  0  0  0  0  0  0  0  0  0
    0.6060   -9.3483    4.2397 H   0  0  0  0  0  0  0  0  0  0  0  0
   -1.0978   -8.9137    1.7640 H   0  0  0  0  0  0  0  0  0  0  0  0
   -1.4325  -10.0853    3.0470 H   0  0  0  0  0  0  0  0  0  0  0  0
    0.0322  -10.2328    2.1049 H   0  0  0  0  0  0  0  0  0  0  0  0
    0.5415   -7.0264    2.3842 H   0  0  0  0  0  0  0  0  0  0  0  0
    2.2592   -9.4627    2.2560 H   0  0  0  0  0  0  0  0  0  0  0  0
    1.5663   -8.4749    1.0008 H   0  0  0  0  0  0  0  0  0  0  0  0
    4.1405   -8.1239    2.4310 H   0  0  0  0  0  0  0  0  0  0  0  0
    3.8411   -8.0612    0.7195 H   0  0  0  0  0  0  0  0  0  0  0  0
    1.4003   -6.0291    0.8871 H   0  0  0  0  0  0  0  0  0  0  0  0
    2.6369   -5.9995   -0.2737 H   0  0  0  0  0  0  0  0  0  0  0  0
    2.2996   -4.5850    0.7228 H   0  0  0  0  0  0  0  0  0  0  0  0
    3.6604   -3.1186    1.1507 H   0  0  0  0  0  0  0  0  0  0  0  0
  1  2  2  0
  1 33  1  0
  1 34  1  0
  2  3  1  0
  2  4  1  0
  3 35  1  0
  3 36  1  0
  3 37  1  0
  4 32  1  0
  4  5  1  0
  4 38  1  1
  5  6  1  0
  5 39  1  0
  5 40  1  0
  6  7  1  0
  6 41  1  0
  6 42  1  0
  7 32  1  0
  7  8  1  1
  7 11  1  0
  8  9  2  0
  8 10  1  0
 11 12  1  0
 11 43  1  0
 11 44  1  0
 12 13  1  0
 12 45  1  0
 12 46  1  0
 13 30  1  0
 13 14  1  1
 13 15  1  0
 14 47  1  0
 14 48  1  0
 14 49  1  0
 15 16  1  0
 15 32  1  0
 15 50  1  1
 16 17  1  0
 16 51  1  0
 16 52  1  0
 17 18  1  0
 17 53  1  0
 17 54  1  0
 18 30  1  0
 18 19  1  0
 18 55  1  6
 19 27  1  0
 19 20  1  1
 19 21  1  0
 20 56  1  0
 20 57  1  0
 20 58  1  0
 21 22  1  0
 21 59  1  0
 21 60  1  0
 22 23  1  0
 22 61  1  0
 22 62  1  0
 23 24  1  0
 23 25  1  0
 23 63  1  1
 24 64  1  0
 25 26  1  0
 25 27  1  0
 25 65  1  1
 26 66  1  0
 26 67  1  0
 26 68  1  0
 27 28  1  0
 27 69  1  6
 28 29  1  0
 28 70  1  0
 28 71  1  0
 29 30  1  0
 29 72  1  0
 29 73  1  0
 30 31  1  6
 31 74  1  0
 31 75  1  0
 31 76  1  0
 32 77  1  6
M  CHG  1  10  -1
M  END
>  <i_m_ct_stereo_status>  (217) 
1

>  <s_m_source_file>  (217) 
/var/tmp/pbs.5076255.sched01/tmppdndq9e4/92von5zo7h.sdf

>  <i_m_source_file_index>  (217) 
4

>  <i_lp_mmshare_version>  (217) 
48012

>  <i_f3d_flags>  (217) 
0

>  <s_epik_input>  (217) 
W0NIMl09QyhbQ0gzXSlbQ0BIXShbQ0gyXVtDSDJdMSlbQ0BASF0oW0NAXTEyQyg9TylbT0hdKVtDQEBIXTNbQ0BdKFtDSDNdKShbQ0gyXVtDSDJdMilbQ0BdNChbQ0gzXSlbQ0BIXShbQ0gyXVtDSDJdMylbQ0BdNShbQ0gzXSlbQ0BASF0oW0NIMl1bQ0gyXTQpW0NASF0oW0NIM10pW0NASF0oW09IXSlbQ0gyXVtDSDJdNQ==

>  <s_epik_cmdline>  (217) 
J2VwaWtfcHl0aG9uJywgJy1waHQnLCAnMi4wJywgJy1waCcsICc3LjAnLCAnLXRuJywgJzgnLCAnLW1hJywgJzIwMCcsICctaW1hZScsICc8aW5maWxlLm1hZT4nLCAnLW9tYWUnLCAnPG91dGZpbGUubWFlPic=

>  <r_epik_Ionization_Penalty>  (217) 
0.00776387

>  <r_epik_Ionization_Penalty_Charging>  (217) 
0.00776084

>  <r_epik_Ionization_Penalty_Neutral>  (217) 
3.02708e-06

>  <r_epik_State_Penalty>  (217) 
0.00581457

>  <r_epik_Charging_Adjusted_Penalty>  (217) 
0.0135754

>  <i_epik_Tot_Q>  (217) 
-1

>  <i_epik_Tot_abs_Q>  (217) 
1

>  <s_lp_Force_Field>  (217) 
OPLS3e

>  <r_lp_Energy>  (217) 
95.5911

>  <b_lp_Chiralities_Consistent>  (217) 
1

>  <s_lp_Variant>  (217) 
58:0-1

>  <s_i_glide_gridfile>  (217) 
pfpi4k_grid

>  <i_i_glide_lignum>  (217) 
4

>  <i_i_glide_rotatable_bonds>  (217) 
3

>  <r_i_docking_score>  (217) 
-3.5459

>  <r_i_glide_ligand_efficiency>  (217) 
-0.110809

>  <r_i_glide_ligand_efficiency_sa>  (217) 
-0.351798

>  <r_i_glide_ligand_efficiency_ln>  (217) 
-0.794024

>  <r_i_glide_gscore>  (217) 
-3.5459

>  <r_i_glide_lipo>  (217) 
-0.541362

>  <r_i_glide_hbond>  (217) 
-0.250269

>  <r_i_glide_metal>  (217) 
-0

>  <r_i_glide_rewards>  (217) 
-0.470535

>  <r_i_glide_evdw>  (217) 
-32.7537

>  <r_i_glide_ecoul>  (217) 
-4.98975

>  <r_i_glide_erotb>  (217) 
0.10241

>  <r_i_glide_esite>  (217) 
0

>  <r_i_glide_emodel>  (217) 
-45.4082

>  <r_i_glide_energy>  (217) 
-37.7434

>  <r_i_glide_einternal>  (217) 
4.32922

>  <r_i_glide_intrahb_reward>  (217) 
-0

>  <i_i_glide_confnum>  (217) 
5

>  <i_i_glide_posenum>  (217) 
16

>  <r_i_glide_eff_state_penalty>  (217) 
0

>  <ligand_id>  (217) 
58

>  <original_smiles>  (217) 
C=C(C)C1CCC2(C(=O)O)CCC3(C)C(CCC4C5(C)CCC(O)C(C)C5CCC43C)C12

>  <smiles>  (217) 
[H]OC1([H])C([H])([H])C([H])([H])C2(C([H])([H])[H])C([H])(C([H])([H])C([H])([H])C3(C([H])([H])[H])C2([H])C([H])([H])C([H])([H])C2([H])C4([H])C([H])(C(=C([H])[H])C([H])([H])[H])C([H])([H])C([H])([H])C4(C(=O)[O-])C([H])([H])C([H])([H])C23C([H])([H])[H])C1([H])C([H])([H])[H]

$$$$
58:0:2
     RDKit          3D

 77 81  0  0  1  0  0  0  0  0999 V2000
    2.1344   -1.5086    3.1154 C   0  0  0  0  0  0  0  0  0  0  0  0
    3.1870   -0.7371    2.7946 C   0  0  0  0  0  0  0  0  0  0  0  0
    3.3308    0.6438    3.4102 C   0  0  0  0  0  0  0  0  0  0  0  0
    4.3150   -1.1239    1.8187 C   0  0  2  0  0  0  0  0  0  0  0  0
    4.2303   -0.2537    0.5418 C   0  0  0  0  0  0  0  0  0  0  0  0
    4.2338   -1.1944   -0.6742 C   0  0  0  0  0  0  0  0  0  0  0  0
    4.9196   -2.4666   -0.1703 C   0  0  2  0  0  0  0  0  0  0  0  0
    6.4548   -2.2241   -0.3113 C   0  0  0  0  0  0  0  0  0  0  0  0
    7.1223   -1.9373    0.7026 O   0  0  0  0  0  0  0  0  0  0  0  0
    6.9425   -2.2587   -1.4621 O   0  0  0  0  0  0  0  0  0  0  0  0
    4.5097   -3.7512   -0.9082 C   0  0  0  0  0  0  0  0  0  0  0  0
    5.0319   -5.0174   -0.1848 C   0  0  0  0  0  0  0  0  0  0  0  0
    4.7830   -5.1593    1.3681 C   0  0  1  0  0  0  0  0  0  0  0  0
    6.0055   -6.0273    1.8082 C   0  0  0  0  0  0  0  0  0  0  0  0
    4.9731   -3.7563    2.0682 C   0  0  2  0  0  0  0  0  0  0  0  0
    4.6906   -3.7571    3.5871 C   0  0  0  0  0  0  0  0  0  0  0  0
    3.9522   -4.9818    4.1318 C   0  0  0  0  0  0  0  0  0  0  0  0
    2.8528   -5.5511    3.2012 C   0  0  2  0  0  0  0  0  0  0  0  0
    1.9877   -6.6701    3.9445 C   0  0  1  0  0  0  0  0  0  0  0  0
    2.8601   -7.5050    4.9331 C   0  0  0  0  0  0  0  0  0  0  0  0
    0.8709   -5.9610    4.7625 C   0  0  0  0  0  0  0  0  0  0  0  0
   -0.1069   -6.9314    5.4540 C   0  0  0  0  0  0  0  0  0  0  0  0
   -0.7646   -7.9133    4.4697 C   0  0  1  0  0  0  0  0  0  0  0  0
   -1.7021   -7.2147    3.6699 O   0  0  0  0  0  0  0  0  0  0  0  0
    0.2764   -8.6319    3.5809 C   0  0  1  0  0  0  0  0  0  0  0  0
   -0.4159   -9.5537    2.5598 C   0  0  0  0  0  0  0  0  0  0  0  0
    1.2560   -7.6083    2.9320 C   0  0  2  0  0  0  0  0  0  0  0  0
    2.2117   -8.2309    1.8864 C   0  0  0  0  0  0  0  0  0  0  0  0
    3.5069   -7.4306    1.6247 C   0  0  0  0  0  0  0  0  0  0  0  0
    3.3782   -5.8835    1.7365 C   0  0  2  0  0  0  0  0  0  0  0  0
    2.2824   -5.4546    0.7100 C   0  0  0  0  0  0  0  0  0  0  0  0
    4.3386   -2.5751    1.2641 C   0  0  1  0  0  0  0  0  0  0  0  0
    1.3911   -1.1605    3.8173 H   0  0  0  0  0  0  0  0  0  0  0  0
    1.9789   -2.4933    2.7027 H   0  0  0  0  0  0  0  0  0  0  0  0
    4.2730    0.7204    3.9515 H   0  0  0  0  0  0  0  0  0  0  0  0
    2.5186    0.8531    4.1073 H   0  0  0  0  0  0  0  0  0  0  0  0
    3.3113    1.4168    2.6409 H   0  0  0  0  0  0  0  0  0  0  0  0
    5.2672   -0.9197    2.3106 H   0  0  0  0  0  0  0  0  0  0  0  0
    3.3327    0.3577    0.5141 H   0  0  0  0  0  0  0  0  0  0  0  0
    5.0878    0.4175    0.5009 H   0  0  0  0  0  0  0  0  0  0  0  0
    3.2087   -1.4151   -0.9751 H   0  0  0  0  0  0  0  0  0  0  0  0
    4.7231   -0.7446   -1.5404 H   0  0  0  0  0  0  0  0  0  0  0  0
    3.4284   -3.7787   -1.0161 H   0  0  0  0  0  0  0  0  0  0  0  0
    4.8715   -3.7374   -1.9363 H   0  0  0  0  0  0  0  0  0  0  0  0
    4.6770   -5.8982   -0.7143 H   0  0  0  0  0  0  0  0  0  0  0  0
    6.1044   -5.0205   -0.3693 H   0  0  0  0  0  0  0  0  0  0  0  0
    5.9969   -6.3140    2.8541 H   0  0  0  0  0  0  0  0  0  0  0  0
    6.9458   -5.4984    1.6493 H   0  0  0  0  0  0  0  0  0  0  0  0
    6.0888   -6.9422    1.2212 H   0  0  0  0  0  0  0  0  0  0  0  0
    6.0415   -3.5628    2.0493 H   0  0  0  0  0  0  0  0  0  0  0  0
    5.6472   -3.6858    4.1119 H   0  0  0  0  0  0  0  0  0  0  0  0
    4.1624   -2.8651    3.8979 H   0  0  0  0  0  0  0  0  0  0  0  0
    4.6906   -5.7456    4.3697 H   0  0  0  0  0  0  0  0  0  0  0  0
    3.5227   -4.6962    5.0947 H   0  0  0  0  0  0  0  0  0  0  0  0
    2.1801   -4.7055    3.0578 H   0  0  0  0  0  0  0  0  0  0  0  0
    2.3309   -8.3402    5.3825 H   0  0  0  0  0  0  0  0  0  0  0  0
    3.1914   -6.9031    5.7775 H   0  0  0  0  0  0  0  0  0  0  0  0
    3.7507   -7.9227    4.4683 H   0  0  0  0  0  0  0  0  0  0  0  0
    1.3057   -5.2995    5.5129 H   0  0  0  0  0  0  0  0  0  0  0  0
    0.2869   -5.3201    4.0980 H   0  0  0  0  0  0  0  0  0  0  0  0
    0.4154   -7.5002    6.2270 H   0  0  0  0  0  0  0  0  0  0  0  0
   -0.8752   -6.3547    5.9716 H   0  0  0  0  0  0  0  0  0  0  0  0
   -1.3253   -8.6577    5.0374 H   0  0  0  0  0  0  0  0  0  0  0  0
   -2.1653   -7.8677    3.1640 H   0  0  0  0  0  0  0  0  0  0  0  0
    0.8450   -9.3034    4.2179 H   0  0  0  0  0  0  0  0  0  0  0  0
   -0.9330   -8.9914    1.7795 H   0  0  0  0  0  0  0  0  0  0  0  0
   -1.1410  -10.2083    3.0442 H   0  0  0  0  0  0  0  0  0  0  0  0
    0.3116  -10.2078    2.0799 H   0  0  0  0  0  0  0  0  0  0  0  0
    0.5674   -6.9715    2.3872 H   0  0  0  0  0  0  0  0  0  0  0  0
    2.4814   -9.2476    2.1729 H   0  0  0  0  0  0  0  0  0  0  0  0
    1.6652   -8.3191    0.9466 H   0  0  0  0  0  0  0  0  0  0  0  0
    4.2424   -7.7787    2.3480 H   0  0  0  0  0  0  0  0  0  0  0  0
    3.9052   -7.7097    0.6464 H   0  0  0  0  0  0  0  0  0  0  0  0
    1.3098   -5.8880    0.8857 H   0  0  0  0  0  0  0  0  0  0  0  0
    2.5199   -5.7612   -0.3078 H   0  0  0  0  0  0  0  0  0  0  0  0
    2.0955   -4.3888    0.7119 H   0  0  0  0  0  0  0  0  0  0  0  0
    3.2949   -2.8099    1.1142 H   0  0  0  0  0  0  0  0  0  0  0  0
  1  2  2  0
  1 33  1  0
  1 34  1  0
  2  3  1  0
  2  4  1  0
  3 35  1  0
  3 36  1  0
  3 37  1  0
  4 32  1  0
  4  5  1  0
  4 38  1  1
  5  6  1  0
  5 39  1  0
  5 40  1  0
  6  7  1  0
  6 41  1  0
  6 42  1  0
  7 32  1  0
  7  8  1  1
  7 11  1  0
  8  9  2  0
  8 10  1  0
 11 12  1  0
 11 43  1  0
 11 44  1  0
 12 13  1  0
 12 45  1  0
 12 46  1  0
 13 30  1  0
 13 14  1  1
 13 15  1  0
 14 47  1  0
 14 48  1  0
 14 49  1  0
 15 16  1  0
 15 32  1  0
 15 50  1  1
 16 17  1  0
 16 51  1  0
 16 52  1  0
 17 18  1  0
 17 53  1  0
 17 54  1  0
 18 30  1  0
 18 19  1  0
 18 55  1  6
 19 27  1  0
 19 20  1  1
 19 21  1  0
 20 56  1  0
 20 57  1  0
 20 58  1  0
 21 22  1  0
 21 59  1  0
 21 60  1  0
 22 23  1  0
 22 61  1  0
 22 62  1  0
 23 24  1  0
 23 25  1  0
 23 63  1  1
 24 64  1  0
 25 26  1  0
 25 27  1  0
 25 65  1  1
 26 66  1  0
 26 67  1  0
 26 68  1  0
 27 28  1  0
 27 69  1  6
 28 29  1  0
 28 70  1  0
 28 71  1  0
 29 30  1  0
 29 72  1  0
 29 73  1  0
 30 31  1  6
 31 74  1  0
 31 75  1  0
 31 76  1  0
 32 77  1  6
M  CHG  1  10  -1
M  END
>  <i_m_ct_stereo_status>  (218) 
1

>  <s_m_source_file>  (218) 
/var/tmp/pbs.5076255.sched01/tmppdndq9e4/92von5zo7h.sdf

>  <i_m_source_file_index>  (218) 
4

>  <i_lp_mmshare_version>  (218) 
48012

>  <i_f3d_flags>  (218) 
0

>  <s_epik_input>  (218) 
W0NIMl09QyhbQ0gzXSlbQ0BIXShbQ0gyXVtDSDJdMSlbQ0BASF0oW0NAXTEyQyg9TylbT0hdKVtDQEBIXTNbQ0BdKFtDSDNdKShbQ0gyXVtDSDJdMilbQ0BdNChbQ0gzXSlbQ0BIXShbQ0gyXVtDSDJdMylbQ0BdNShbQ0gzXSlbQ0BASF0oW0NIMl1bQ0gyXTQpW0NASF0oW0NIM10pW0NASF0oW09IXSlbQ0gyXVtDSDJdNQ==

>  <s_epik_cmdline>  (218) 
J2VwaWtfcHl0aG9uJywgJy1waHQnLCAnMi4wJywgJy1waCcsICc3LjAnLCAnLXRuJywgJzgnLCAnLW1hJywgJzIwMCcsICctaW1hZScsICc8aW5maWxlLm1hZT4nLCAnLW9tYWUnLCAnPG91dGZpbGUubWFlPic=

>  <r_epik_Ionization_Penalty>  (218) 
0.00776387

>  <r_epik_Ionization_Penalty_Charging>  (218) 
0.00776084

>  <r_epik_Ionization_Penalty_Neutral>  (218) 
3.02708e-06

>  <r_epik_State_Penalty>  (218) 
0.00581457

>  <r_epik_Charging_Adjusted_Penalty>  (218) 
0.0135754

>  <i_epik_Tot_Q>  (218) 
-1

>  <i_epik_Tot_abs_Q>  (218) 
1

>  <s_lp_Force_Field>  (218) 
OPLS3e

>  <r_lp_Energy>  (218) 
95.5911

>  <b_lp_Chiralities_Consistent>  (218) 
1

>  <s_lp_Variant>  (218) 
58:0-1

>  <s_i_glide_gridfile>  (218) 
pfpi4k_grid

>  <i_i_glide_lignum>  (218) 
4

>  <i_i_glide_rotatable_bonds>  (218) 
3

>  <r_i_docking_score>  (218) 
-3.06697

>  <r_i_glide_ligand_efficiency>  (218) 
-0.0958429

>  <r_i_glide_ligand_efficiency_sa>  (218) 
-0.304282

>  <r_i_glide_ligand_efficiency_ln>  (218) 
-0.686779

>  <r_i_glide_gscore>  (218) 
-3.06697

>  <r_i_glide_lipo>  (218) 
-0.437848

>  <r_i_glide_hbond>  (218) 
-0.213664

>  <r_i_glide_metal>  (218) 
-0

>  <r_i_glide_rewards>  (218) 
-0.397733

>  <r_i_glide_evdw>  (218) 
-32.9368

>  <r_i_glide_ecoul>  (218) 
-3.00897

>  <r_i_glide_erotb>  (218) 
0.10241

>  <r_i_glide_esite>  (218) 
-0.0219508

>  <r_i_glide_emodel>  (218) 
-44.0216

>  <r_i_glide_energy>  (218) 
-35.9458

>  <r_i_glide_einternal>  (218) 
1.16381

>  <r_i_glide_intrahb_reward>  (218) 
-0

>  <i_i_glide_confnum>  (218) 
1

>  <i_i_glide_posenum>  (218) 
39

>  <r_i_glide_eff_state_penalty>  (218) 
0

>  <ligand_id>  (218) 
58

>  <original_smiles>  (218) 
C=C(C)C1CCC2(C(=O)O)CCC3(C)C(CCC4C5(C)CCC(O)C(C)C5CCC43C)C12

>  <smiles>  (218) 
[H]OC1([H])C([H])([H])C([H])([H])C2(C([H])([H])[H])C([H])(C([H])([H])C([H])([H])C3(C([H])([H])[H])C2([H])C([H])([H])C([H])([H])C2([H])C4([H])C([H])(C(=C([H])[H])C([H])([H])[H])C([H])([H])C([H])([H])C4(C(=O)[O-])C([H])([H])C([H])([H])C23C([H])([H])[H])C1([H])C([H])([H])[H]

$$$$
59:0:0
     RDKit          3D

 30 32  0  0  1  0  0  0  0  0999 V2000
    2.8073   -5.4554    0.1071 N   0  0  0  0  0  0  0  0  0  0  0  0
    3.3753   -4.5271    0.8807 C   0  0  0  0  0  0  0  0  0  0  0  0
    3.1845   -4.5218    2.0960 O   0  0  0  0  0  0  0  0  0  0  0  0
    4.2718   -3.4590    0.2120 C   0  0  2  0  0  0  0  0  0  0  0  0
    5.7271   -3.5722    0.7546 C   0  0  0  0  0  0  0  0  0  0  0  0
    6.6241   -2.4911    0.1017 C   0  0  1  0  0  0  0  0  0  0  0  0
    6.6356   -2.6963   -1.4283 C   0  0  0  0  0  0  0  0  0  0  0  0
    5.2043   -2.5434   -1.9728 C   0  0  2  0  0  0  0  0  0  0  0  0
    4.6482   -1.1471   -1.6338 C   0  0  0  0  0  0  0  0  0  0  0  0
    4.6379   -0.9637   -0.1011 C   0  0  2  0  0  0  0  0  0  0  0  0
    6.0678   -1.0985    0.4636 C   0  0  0  0  0  0  0  0  0  0  0  0
    3.7369   -2.0395    0.5468 C   0  0  0  0  0  0  0  0  0  0  0  0
    4.3057   -3.6182   -1.3366 C   0  0  0  0  0  0  0  0  0  0  0  0
    2.2674   -6.1930    0.5370 H   0  0  0  0  0  0  0  0  0  0  0  0
    2.9936   -5.4757   -0.8921 H   0  0  0  0  0  0  0  0  0  0  0  0
    5.7490   -3.4535    1.8424 H   0  0  0  0  0  0  0  0  0  0  0  0
    6.1380   -4.5633    0.5531 H   0  0  0  0  0  0  0  0  0  0  0  0
    7.6389   -2.5860    0.4869 H   0  0  0  0  0  0  0  0  0  0  0  0
    7.3015   -1.9927   -1.9178 H   0  0  0  0  0  0  0  0  0  0  0  0
    7.0184   -3.6882   -1.6646 H   0  0  0  0  0  0  0  0  0  0  0  0
    5.2099   -2.6822   -3.0527 H   0  0  0  0  0  0  0  0  0  0  0  0
    5.2525   -0.3744   -2.1077 H   0  0  0  0  0  0  0  0  0  0  0  0
    3.6362   -1.0381   -2.0302 H   0  0  0  0  0  0  0  0  0  0  0  0
    4.2441    0.0222    0.1385 H   0  0  0  0  0  0  0  0  0  0  0  0
    6.0572   -0.9644    1.5464 H   0  0  0  0  0  0  0  0  0  0  0  0
    6.7065   -0.3070    0.0823 H   0  0  0  0  0  0  0  0  0  0  0  0
    2.7109   -1.9243    0.1910 H   0  0  0  0  0  0  0  0  0  0  0  0
    3.7015   -1.8802    1.6275 H   0  0  0  0  0  0  0  0  0  0  0  0
    4.6829   -4.6027   -1.6186 H   0  0  0  0  0  0  0  0  0  0  0  0
    3.3001   -3.5320   -1.7526 H   0  0  0  0  0  0  0  0  0  0  0  0
  1  2  1  0
  1 14  1  0
  1 15  1  0
  2  3  2  0
  4  2  1  1
  4 12  1  0
  4 13  1  0
  4  5  1  0
  5  6  1  0
  5 16  1  0
  5 17  1  0
  6 11  1  0
  6  7  1  0
  6 18  1  1
  7  8  1  0
  7 19  1  0
  7 20  1  0
  8  9  1  0
  8 13  1  0
  8 21  1  6
  9 10  1  0
  9 22  1  0
  9 23  1  0
 10 11  1  0
 10 12  1  0
 10 24  1  6
 11 25  1  0
 11 26  1  0
 12 27  1  0
 12 28  1  0
 13 29  1  0
 13 30  1  0
M  END
>  <i_m_ct_stereo_status>  (219) 
1

>  <s_m_source_file>  (219) 
/var/tmp/pbs.5076255.sched01/tmppdndq9e4/92von5zo7h.sdf

>  <i_m_source_file_index>  (219) 
5

>  <i_lp_mmshare_version>  (219) 
48012

>  <i_f3d_flags>  (219) 
0

>  <s_epik_input>  (219) 
W05IMl1DKD1PKUMxMltDSDJdW0NASF0zW0NIMl1bQ0BASF0oW0NIMl0yKVtDSDJdW0NASF0oW0NIMl0zKVtDSDJdMQ==

>  <s_epik_cmdline>  (219) 
J2VwaWtfcHl0aG9uJywgJy1waHQnLCAnMi4wJywgJy1waCcsICc3LjAnLCAnLXRuJywgJzgnLCAnLW1hJywgJzIwMCcsICctaW1hZScsICc8aW5maWxlLm1hZT4nLCAnLW9tYWUnLCAnPG91dGZpbGUubWFlPic=

>  <r_lp_tautomer_probability>  (219) 
1

>  <r_epik_Ionization_Penalty>  (219) 
8.15034e-08

>  <r_epik_Ionization_Penalty_Charging>  (219) 
0

>  <r_epik_Ionization_Penalty_Neutral>  (219) 
8.15034e-08

>  <r_epik_State_Penalty>  (219) 
-0

>  <r_epik_Charging_Adjusted_Penalty>  (219) 
0

>  <i_epik_Tot_Q>  (219) 
0

>  <i_epik_Tot_abs_Q>  (219) 
0

>  <s_lp_Force_Field>  (219) 
OPLS3e

>  <r_lp_Energy>  (219) 
1.98625

>  <b_lp_Chiralities_Consistent>  (219) 
1

>  <s_lp_Variant>  (219) 
59:0-1

>  <s_i_glide_gridfile>  (219) 
pfpi4k_grid

>  <i_i_glide_lignum>  (219) 
5

>  <i_i_glide_rotatable_bonds>  (219) 
1

>  <r_i_docking_score>  (219) 
-4.20705

>  <r_i_glide_ligand_efficiency>  (219) 
-0.323619

>  <r_i_glide_ligand_efficiency_sa>  (219) 
-0.760937

>  <r_i_glide_ligand_efficiency_ln>  (219) 
-1.18011

>  <r_i_glide_gscore>  (219) 
-4.20705

>  <r_i_glide_lipo>  (219) 
-0.282903

>  <r_i_glide_hbond>  (219) 
-0.32

>  <r_i_glide_metal>  (219) 
-0

>  <r_i_glide_rewards>  (219) 
-2.18687

>  <r_i_glide_evdw>  (219) 
-18

>  <r_i_glide_ecoul>  (219) 
-3.10635

>  <r_i_glide_erotb>  (219) 
0

>  <r_i_glide_esite>  (219) 
-0.0513181

>  <r_i_glide_emodel>  (219) 
-27.3586

>  <r_i_glide_energy>  (219) 
-21.1064

>  <r_i_glide_einternal>  (219) 
0.0900279

>  <r_i_glide_intrahb_reward>  (219) 
-0

>  <i_i_glide_confnum>  (219) 
2

>  <i_i_glide_posenum>  (219) 
1

>  <r_i_glide_eff_state_penalty>  (219) 
0

>  <ligand_id>  (219) 
59

>  <original_smiles>  (219) 
NC(=O)C12CC3CC(CC(C3)C1)C2

>  <smiles>  (219) 
[H]N([H])C(=O)C12C([H])([H])C3([H])C([H])([H])C([H])(C([H])([H])C([H])(C3([H])[H])C1([H])[H])C2([H])[H]

$$$$
59:0:1
     RDKit          3D

 30 32  0  0  1  0  0  0  0  0999 V2000
    1.7817   -0.7385    1.6820 N   0  0  0  0  0  0  0  0  0  0  0  0
    2.9183   -1.2081    2.1868 C   0  0  0  0  0  0  0  0  0  0  0  0
    3.1645   -1.0968    3.3884 O   0  0  0  0  0  0  0  0  0  0  0  0
    3.9174   -1.8876    1.2203 C   0  0  2  0  0  0  0  0  0  0  0  0
    5.1315   -2.4906    1.9957 C   0  0  0  0  0  0  0  0  0  0  0  0
    6.1144   -3.1566    1.0084 C   0  0  1  0  0  0  0  0  0  0  0  0
    5.3881   -4.2913    0.2586 C   0  0  0  0  0  0  0  0  0  0  0  0
    4.2104   -3.6994   -0.5369 C   0  0  2  0  0  0  0  0  0  0  0  0
    4.7286   -2.6512   -1.5404 C   0  0  0  0  0  0  0  0  0  0  0  0
    5.4449   -1.5179   -0.7737 C   0  0  2  0  0  0  0  0  0  0  0  0
    6.6351   -2.0985    0.0180 C   0  0  0  0  0  0  0  0  0  0  0  0
    4.4616   -0.8476    0.2072 C   0  0  0  0  0  0  0  0  0  0  0  0
    3.2154   -3.0369    0.4388 C   0  0  0  0  0  0  0  0  0  0  0  0
    1.1305   -0.2818    2.2989 H   0  0  0  0  0  0  0  0  0  0  0  0
    1.5490   -0.8311    0.6833 H   0  0  0  0  0  0  0  0  0  0  0  0
    5.6597   -1.7159    2.5570 H   0  0  0  0  0  0  0  0  0  0  0  0
    4.7950   -3.2289    2.7260 H   0  0  0  0  0  0  0  0  0  0  0  0
    6.9529   -3.5735    1.5676 H   0  0  0  0  0  0  0  0  0  0  0  0
    6.0727   -4.8089   -0.4101 H   0  0  0  0  0  0  0  0  0  0  0  0
    5.0217   -5.0325    0.9672 H   0  0  0  0  0  0  0  0  0  0  0  0
    3.7072   -4.4957   -1.0807 H   0  0  0  0  0  0  0  0  0  0  0  0
    5.4093   -3.1224   -2.2531 H   0  0  0  0  0  0  0  0  0  0  0  0
    3.8997   -2.2469   -2.1258 H   0  0  0  0  0  0  0  0  0  0  0  0
    5.7976   -0.7751   -1.4848 H   0  0  0  0  0  0  0  0  0  0  0  0
    7.1435   -1.3004    0.5582 H   0  0  0  0  0  0  0  0  0  0  0  0
    7.3683   -2.5417   -0.6557 H   0  0  0  0  0  0  0  0  0  0  0  0
    3.6406   -0.4122   -0.3577 H   0  0  0  0  0  0  0  0  0  0  0  0
    4.9519   -0.0191    0.7194 H   0  0  0  0  0  0  0  0  0  0  0  0
    2.8144   -3.7774    1.1311 H   0  0  0  0  0  0  0  0  0  0  0  0
    2.3663   -2.6613   -0.1355 H   0  0  0  0  0  0  0  0  0  0  0  0
  1  2  1  0
  1 14  1  0
  1 15  1  0
  2  3  2  0
  4  2  1  1
  4 12  1  0
  4 13  1  0
  4  5  1  0
  5  6  1  0
  5 16  1  0
  5 17  1  0
  6 11  1  0
  6  7  1  0
  6 18  1  1
  7  8  1  0
  7 19  1  0
  7 20  1  0
  8  9  1  0
  8 13  1  0
  8 21  1  6
  9 10  1  0
  9 22  1  0
  9 23  1  0
 10 11  1  0
 10 12  1  0
 10 24  1  6
 11 25  1  0
 11 26  1  0
 12 27  1  0
 12 28  1  0
 13 29  1  0
 13 30  1  0
M  END
>  <i_m_ct_stereo_status>  (220) 
1

>  <s_m_source_file>  (220) 
/var/tmp/pbs.5076255.sched01/tmppdndq9e4/92von5zo7h.sdf

>  <i_m_source_file_index>  (220) 
5

>  <i_lp_mmshare_version>  (220) 
48012

>  <i_f3d_flags>  (220) 
0

>  <s_epik_input>  (220) 
W05IMl1DKD1PKUMxMltDSDJdW0NASF0zW0NIMl1bQ0BASF0oW0NIMl0yKVtDSDJdW0NASF0oW0NIMl0zKVtDSDJdMQ==

>  <s_epik_cmdline>  (220) 
J2VwaWtfcHl0aG9uJywgJy1waHQnLCAnMi4wJywgJy1waCcsICc3LjAnLCAnLXRuJywgJzgnLCAnLW1hJywgJzIwMCcsICctaW1hZScsICc8aW5maWxlLm1hZT4nLCAnLW9tYWUnLCAnPG91dGZpbGUubWFlPic=

>  <r_lp_tautomer_probability>  (220) 
1

>  <r_epik_Ionization_Penalty>  (220) 
8.15034e-08

>  <r_epik_Ionization_Penalty_Charging>  (220) 
0

>  <r_epik_Ionization_Penalty_Neutral>  (220) 
8.15034e-08

>  <r_epik_State_Penalty>  (220) 
-0

>  <r_epik_Charging_Adjusted_Penalty>  (220) 
0

>  <i_epik_Tot_Q>  (220) 
0

>  <i_epik_Tot_abs_Q>  (220) 
0

>  <s_lp_Force_Field>  (220) 
OPLS3e

>  <r_lp_Energy>  (220) 
1.98625

>  <b_lp_Chiralities_Consistent>  (220) 
1

>  <s_lp_Variant>  (220) 
59:0-1

>  <s_i_glide_gridfile>  (220) 
pfpi4k_grid

>  <i_i_glide_lignum>  (220) 
5

>  <i_i_glide_rotatable_bonds>  (220) 
1

>  <r_i_docking_score>  (220) 
-4.13134

>  <r_i_glide_ligand_efficiency>  (220) 
-0.317796

>  <r_i_glide_ligand_efficiency_sa>  (220) 
-0.747244

>  <r_i_glide_ligand_efficiency_ln>  (220) 
-1.15888

>  <r_i_glide_gscore>  (220) 
-4.13134

>  <r_i_glide_lipo>  (220) 
-0.241982

>  <r_i_glide_hbond>  (220) 
-0.16

>  <r_i_glide_metal>  (220) 
-0

>  <r_i_glide_rewards>  (220) 
-2.18687

>  <r_i_glide_evdw>  (220) 
-15.0105

>  <r_i_glide_ecoul>  (220) 
-4.54003

>  <r_i_glide_erotb>  (220) 
0

>  <r_i_glide_esite>  (220) 
-0.110956

>  <r_i_glide_emodel>  (220) 
-25.7287

>  <r_i_glide_energy>  (220) 
-19.5506

>  <r_i_glide_einternal>  (220) 
0.124664

>  <r_i_glide_intrahb_reward>  (220) 
-0

>  <i_i_glide_confnum>  (220) 
2

>  <i_i_glide_posenum>  (220) 
8

>  <r_i_glide_eff_state_penalty>  (220) 
0

>  <ligand_id>  (220) 
59

>  <original_smiles>  (220) 
NC(=O)C12CC3CC(CC(C3)C1)C2

>  <smiles>  (220) 
[H]N([H])C(=O)C12C([H])([H])C3([H])C([H])([H])C([H])(C([H])([H])C([H])(C3([H])[H])C1([H])[H])C2([H])[H]

$$$$
59:0:2
     RDKit          3D

 30 32  0  0  1  0  0  0  0  0999 V2000
    2.5975   -0.1811    1.2790 N   0  0  0  0  0  0  0  0  0  0  0  0
    3.8409   -0.6444    1.3968 C   0  0  0  0  0  0  0  0  0  0  0  0
    4.5868   -0.2362    2.2841 O   0  0  0  0  0  0  0  0  0  0  0  0
    4.3056   -1.7153    0.3879 C   0  0  2  0  0  0  0  0  0  0  0  0
    5.6852   -2.3101    0.8087 C   0  0  0  0  0  0  0  0  0  0  0  0
    6.1379   -3.3776   -0.2105 C   0  0  1  0  0  0  0  0  0  0  0  0
    5.0929   -4.5090   -0.2514 C   0  0  0  0  0  0  0  0  0  0  0  0
    3.7403   -3.9262   -0.6948 C   0  0  2  0  0  0  0  0  0  0  0  0
    3.8782   -3.2844   -2.0927 C   0  0  0  0  0  0  0  0  0  0  0  0
    4.9192   -2.1525   -2.0366 C   0  0  2  0  0  0  0  0  0  0  0  0
    6.2820   -2.7245   -1.5981 C   0  0  0  0  0  0  0  0  0  0  0  0
    4.4546   -1.0851   -1.0241 C   0  0  0  0  0  0  0  0  0  0  0  0
    3.2726   -2.8713    0.3209 C   0  0  0  0  0  0  0  0  0  0  0  0
    2.2587    0.5129    1.9248 H   0  0  0  0  0  0  0  0  0  0  0  0
    1.9804   -0.5373    0.5487 H   0  0  0  0  0  0  0  0  0  0  0  0
    6.4473   -1.5297    0.8756 H   0  0  0  0  0  0  0  0  0  0  0  0
    5.6201   -2.7606    1.8019 H   0  0  0  0  0  0  0  0  0  0  0  0
    7.0984   -3.7861    0.1023 H   0  0  0  0  0  0  0  0  0  0  0  0
    5.4008   -5.2957   -0.9386 H   0  0  0  0  0  0  0  0  0  0  0  0
    4.9962   -4.9694    0.7317 H   0  0  0  0  0  0  0  0  0  0  0  0
    3.0018   -4.7252   -0.7235 H   0  0  0  0  0  0  0  0  0  0  0  0
    4.1914   -4.0362   -2.8191 H   0  0  0  0  0  0  0  0  0  0  0  0
    2.9121   -2.9030   -2.4309 H   0  0  0  0  0  0  0  0  0  0  0  0
    5.0115   -1.6969   -3.0217 H   0  0  0  0  0  0  0  0  0  0  0  0
    7.0226   -1.9305   -1.5590 H   0  0  0  0  0  0  0  0  0  0  0  0
    6.6419   -3.4529   -2.3244 H   0  0  0  0  0  0  0  0  0  0  0  0
    3.5067   -0.6622   -1.3646 H   0  0  0  0  0  0  0  0  0  0  0  0
    5.1682   -0.2616   -1.0011 H   0  0  0  0  0  0  0  0  0  0  0  0
    3.1381   -3.3257    1.3020 H   0  0  0  0  0  0  0  0  0  0  0  0
    2.2886   -2.5181    0.0111 H   0  0  0  0  0  0  0  0  0  0  0  0
  1  2  1  0
  1 14  1  0
  1 15  1  0
  2  3  2  0
  4  2  1  1
  4 12  1  0
  4 13  1  0
  4  5  1  0
  5  6  1  0
  5 16  1  0
  5 17  1  0
  6 11  1  0
  6  7  1  0
  6 18  1  1
  7  8  1  0
  7 19  1  0
  7 20  1  0
  8  9  1  0
  8 13  1  0
  8 21  1  6
  9 10  1  0
  9 22  1  0
  9 23  1  0
 10 11  1  0
 10 12  1  0
 10 24  1  6
 11 25  1  0
 11 26  1  0
 12 27  1  0
 12 28  1  0
 13 29  1  0
 13 30  1  0
M  END
>  <i_m_ct_stereo_status>  (221) 
1

>  <s_m_source_file>  (221) 
/var/tmp/pbs.5076255.sched01/tmppdndq9e4/92von5zo7h.sdf

>  <i_m_source_file_index>  (221) 
5

>  <i_lp_mmshare_version>  (221) 
48012

>  <i_f3d_flags>  (221) 
0

>  <s_epik_input>  (221) 
W05IMl1DKD1PKUMxMltDSDJdW0NASF0zW0NIMl1bQ0BASF0oW0NIMl0yKVtDSDJdW0NASF0oW0NIMl0zKVtDSDJdMQ==

>  <s_epik_cmdline>  (221) 
J2VwaWtfcHl0aG9uJywgJy1waHQnLCAnMi4wJywgJy1waCcsICc3LjAnLCAnLXRuJywgJzgnLCAnLW1hJywgJzIwMCcsICctaW1hZScsICc8aW5maWxlLm1hZT4nLCAnLW9tYWUnLCAnPG91dGZpbGUubWFlPic=

>  <r_lp_tautomer_probability>  (221) 
1

>  <r_epik_Ionization_Penalty>  (221) 
8.15034e-08

>  <r_epik_Ionization_Penalty_Charging>  (221) 
0

>  <r_epik_Ionization_Penalty_Neutral>  (221) 
8.15034e-08

>  <r_epik_State_Penalty>  (221) 
-0

>  <r_epik_Charging_Adjusted_Penalty>  (221) 
0

>  <i_epik_Tot_Q>  (221) 
0

>  <i_epik_Tot_abs_Q>  (221) 
0

>  <s_lp_Force_Field>  (221) 
OPLS3e

>  <r_lp_Energy>  (221) 
1.98625

>  <b_lp_Chiralities_Consistent>  (221) 
1

>  <s_lp_Variant>  (221) 
59:0-1

>  <s_i_glide_gridfile>  (221) 
pfpi4k_grid

>  <i_i_glide_lignum>  (221) 
5

>  <i_i_glide_rotatable_bonds>  (221) 
1

>  <r_i_docking_score>  (221) 
-4.09177

>  <r_i_glide_ligand_efficiency>  (221) 
-0.314751

>  <r_i_glide_ligand_efficiency_sa>  (221) 
-0.740085

>  <r_i_glide_ligand_efficiency_ln>  (221) 
-1.14778

>  <r_i_glide_gscore>  (221) 
-4.09177

>  <r_i_glide_lipo>  (221) 
-0.199562

>  <r_i_glide_hbond>  (221) 
-0.16

>  <r_i_glide_metal>  (221) 
-0

>  <r_i_glide_rewards>  (221) 
-2.21119

>  <r_i_glide_evdw>  (221) 
-18.3631

>  <r_i_glide_ecoul>  (221) 
-3.63478

>  <r_i_glide_erotb>  (221) 
0

>  <r_i_glide_esite>  (221) 
-0.0576401

>  <r_i_glide_emodel>  (221) 
-28.1127

>  <r_i_glide_energy>  (221) 
-21.9979

>  <r_i_glide_einternal>  (221) 
0.124184

>  <r_i_glide_intrahb_reward>  (221) 
-0

>  <i_i_glide_confnum>  (221) 
2

>  <i_i_glide_posenum>  (221) 
23

>  <r_i_glide_eff_state_penalty>  (221) 
0

>  <ligand_id>  (221) 
59

>  <original_smiles>  (221) 
NC(=O)C12CC3CC(CC(C3)C1)C2

>  <smiles>  (221) 
[H]N([H])C(=O)C12C([H])([H])C3([H])C([H])([H])C([H])(C([H])([H])C([H])(C3([H])[H])C1([H])[H])C2([H])[H]

$$$$
60:0:0
     RDKit          3D

 85 91  0  0  1  0  0  0  0  0999 V2000
    5.7121  -11.3497    2.8899 C   0  0  0  0  0  0  0  0  0  0  0  0
    5.4136  -10.5017    3.8911 C   0  0  0  0  0  0  0  0  0  0  0  0
    6.4438   -9.4837    4.3521 C   0  0  0  0  0  0  0  0  0  0  0  0
    5.8872   -8.0606    4.2603 C   0  0  0  0  0  0  0  0  0  0  0  0
    4.5690   -7.9072    5.0601 C   0  0  2  0  0  0  0  0  0  0  0  0
    3.5038   -8.9532    4.5894 C   0  0  2  0  0  0  0  0  0  0  0  0
    3.1911   -8.6805    3.2343 O   0  0  0  0  0  0  0  0  0  0  0  0
    2.1887   -8.7644    5.3937 C   0  0  0  0  0  0  0  0  0  0  0  0
    1.6912   -7.3060    5.4251 C   0  0  0  0  0  0  0  0  0  0  0  0
    2.7220   -6.3034    6.0193 C   0  0  2  0  0  0  0  0  0  0  0  0
    2.9496   -6.6990    7.5080 C   0  0  0  0  0  0  0  0  0  0  0  0
    2.1998   -4.8049    6.0435 C   0  0  2  0  0  0  0  0  0  0  0  0
    0.8866   -4.5946    6.8602 C   0  0  0  0  0  0  0  0  0  0  0  0
    0.2149   -3.2264    6.6682 C   0  0  0  0  0  0  0  0  0  0  0  0
   -0.9888   -3.0828    6.8833 O   0  0  0  0  0  0  0  0  0  0  0  0
    1.1110   -2.0549    6.2415 C   0  0  2  0  0  0  0  0  0  0  0  0
    1.8347   -1.5100    7.4939 C   0  0  0  0  0  0  0  0  0  0  0  0
    0.3035   -1.0084    5.5060 C   0  0  0  0  0  0  0  0  0  0  0  0
   -0.3684    0.1199    5.8101 C   0  0  0  0  0  0  0  0  0  0  0  0
   -0.7750    0.6752    7.1632 C   0  0  0  0  0  0  0  0  0  0  0  0
   -0.6934    0.8786    4.5253 C   0  0  1  0  0  0  0  0  0  0  0  0
   -0.5874    2.3953    4.5503 C   0  0  0  0  0  0  0  0  0  0  0  0
    0.1948    3.2225    3.6830 C   0  0  0  0  0  0  0  0  0  0  0  0
   -0.0292    4.5169    4.0461 C   0  0  0  0  0  0  0  0  0  0  0  0
   -0.9278    4.5761    5.0614 O   0  0  0  0  0  0  0  0  0  0  0  0
   -1.2532    3.2871    5.3542 C   0  0  0  0  0  0  0  0  0  0  0  0
    0.2389    0.2067    3.4790 C   0  0  0  0  0  0  0  0  0  0  0  0
    0.5302   -1.1805    4.0586 C   0  0  1  0  0  0  0  0  0  0  0  0
    1.8550   -1.6649    3.9500 O   0  0  0  0  0  0  0  0  0  0  0  0
    2.1156   -2.4778    5.1046 C   0  0  2  0  0  0  0  0  0  0  0  0
    2.1980   -3.9989    4.7045 C   0  0  2  0  0  0  0  0  0  0  0  0
    1.0407   -4.3978    3.7414 C   0  0  0  0  0  0  0  0  0  0  0  0
    3.5390   -4.2164    3.9624 C   0  0  0  0  0  0  0  0  0  0  0  0
    3.9443   -5.6914    3.8275 C   0  0  0  0  0  0  0  0  0  0  0  0
    4.0597   -6.4226    5.1887 C   0  0  2  0  0  0  0  0  0  0  0  0
    5.0763   -5.7292    5.8949 O   0  0  0  0  0  0  0  0  0  0  0  0
    4.0579  -10.4420    4.6344 C   0  0  0  0  0  0  0  0  0  0  0  0
    3.0350  -11.4393    4.0148 C   0  0  0  0  0  0  0  0  0  0  0  0
    4.2965  -10.9413    6.0856 C   0  0  0  0  0  0  0  0  0  0  0  0
    5.0136  -12.0800    2.5130 H   0  0  0  0  0  0  0  0  0  0  0  0
    6.6800  -11.3258    2.4156 H   0  0  0  0  0  0  0  0  0  0  0  0
    6.7409   -9.7120    5.3750 H   0  0  0  0  0  0  0  0  0  0  0  0
    7.3451   -9.5620    3.7428 H   0  0  0  0  0  0  0  0  0  0  0  0
    6.6408   -7.3577    4.6179 H   0  0  0  0  0  0  0  0  0  0  0  0
    5.7182   -7.8319    3.2073 H   0  0  0  0  0  0  0  0  0  0  0  0
    4.8346   -8.1942    6.0725 H   0  0  0  0  0  0  0  0  0  0  0  0
    2.6304   -9.3744    2.9207 H   0  0  0  0  0  0  0  0  0  0  0  0
    1.3927   -9.3813    4.9753 H   0  0  0  0  0  0  0  0  0  0  0  0
    2.3125   -9.1120    6.4188 H   0  0  0  0  0  0  0  0  0  0  0  0
    1.4390   -7.0451    4.4068 H   0  0  0  0  0  0  0  0  0  0  0  0
    0.7547   -7.2801    5.9799 H   0  0  0  0  0  0  0  0  0  0  0  0
    3.5404   -5.9551    8.0433 H   0  0  0  0  0  0  0  0  0  0  0  0
    3.4606   -7.6491    7.6328 H   0  0  0  0  0  0  0  0  0  0  0  0
    2.0021   -6.7941    8.0374 H   0  0  0  0  0  0  0  0  0  0  0  0
    2.9619   -4.2906    6.6311 H   0  0  0  0  0  0  0  0  0  0  0  0
    0.1480   -5.3506    6.6031 H   0  0  0  0  0  0  0  0  0  0  0  0
    1.1038   -4.7103    7.9205 H   0  0  0  0  0  0  0  0  0  0  0  0
    1.1502   -1.2697    8.3035 H   0  0  0  0  0  0  0  0  0  0  0  0
    2.4152   -0.6147    7.2769 H   0  0  0  0  0  0  0  0  0  0  0  0
    2.5263   -2.2481    7.8955 H   0  0  0  0  0  0  0  0  0  0  0  0
   -1.8363    0.9387    7.1401 H   0  0  0  0  0  0  0  0  0  0  0  0
   -0.2170    1.5836    7.3930 H   0  0  0  0  0  0  0  0  0  0  0  0
   -0.6214   -0.0327    7.9763 H   0  0  0  0  0  0  0  0  0  0  0  0
   -1.7332    0.6410    4.2868 H   0  0  0  0  0  0  0  0  0  0  0  0
    0.8438    2.9280    2.8733 H   0  0  0  0  0  0  0  0  0  0  0  0
    0.3450    5.4584    3.6676 H   0  0  0  0  0  0  0  0  0  0  0  0
   -1.9784    3.1889    6.1474 H   0  0  0  0  0  0  0  0  0  0  0  0
   -0.1838    0.1818    2.4747 H   0  0  0  0  0  0  0  0  0  0  0  0
    1.1945    0.7307    3.4191 H   0  0  0  0  0  0  0  0  0  0  0  0
   -0.1930   -1.9157    3.6992 H   0  0  0  0  0  0  0  0  0  0  0  0
    3.1060   -2.1802    5.4468 H   0  0  0  0  0  0  0  0  0  0  0  0
    0.9466   -3.6871    2.9219 H   0  0  0  0  0  0  0  0  0  0  0  0
    0.0744   -4.4608    4.2363 H   0  0  0  0  0  0  0  0  0  0  0  0
    1.2060   -5.3488    3.2457 H   0  0  0  0  0  0  0  0  0  0  0  0
    3.4773   -3.7730    2.9688 H   0  0  0  0  0  0  0  0  0  0  0  0
    4.3488   -3.6866    4.4674 H   0  0  0  0  0  0  0  0  0  0  0  0
    3.2423   -6.1940    3.1703 H   0  0  0  0  0  0  0  0  0  0  0  0
    4.8991   -5.7166    3.3066 H   0  0  0  0  0  0  0  0  0  0  0  0
    5.1771   -6.1414    6.7394 H   0  0  0  0  0  0  0  0  0  0  0  0
    2.0865  -11.4402    4.5515 H   0  0  0  0  0  0  0  0  0  0  0  0
    3.4008  -12.4667    4.0601 H   0  0  0  0  0  0  0  0  0  0  0  0
    2.8281  -11.2244    2.9664 H   0  0  0  0  0  0  0  0  0  0  0  0
    3.3686  -11.0405    6.6497 H   0  0  0  0  0  0  0  0  0  0  0  0
    4.9582  -10.2907    6.6564 H   0  0  0  0  0  0  0  0  0  0  0  0
    4.7596  -11.9313    6.0835 H   0  0  0  0  0  0  0  0  0  0  0  0
  1  2  2  0
  1 40  1  0
  1 41  1  0
  2 37  1  0
  2  3  1  0
  3  4  1  0
  3 42  1  0
  3 43  1  0
  4  5  1  0
  4 44  1  0
  4 45  1  0
  5 35  1  0
  5  6  1  0
  5 46  1  1
  6  7  1  6
  6  8  1  0
  6 37  1  0
  7 47  1  0
  8  9  1  0
  8 48  1  0
  8 49  1  0
  9 10  1  0
  9 50  1  0
  9 51  1  0
 10 35  1  0
 10 11  1  1
 10 12  1  0
 11 52  1  0
 11 53  1  0
 11 54  1  0
 12 31  1  0
 12 13  1  0
 12 55  1  1
 13 14  1  0
 13 56  1  0
 13 57  1  0
 14 15  2  0
 14 16  1  0
 16 30  1  0
 16 17  1  1
 16 18  1  0
 17 58  1  0
 17 59  1  0
 17 60  1  0
 18 28  1  0
 18 19  2  0
 19 20  1  0
 19 21  1  0
 20 61  1  0
 20 62  1  0
 20 63  1  0
 21 22  1  0
 21 27  1  0
 21 64  1  6
 22 26  2  0
 22 23  1  0
 23 24  2  0
 23 65  1  0
 24 25  1  0
 24 66  1  0
 25 26  1  0
 26 67  1  0
 27 28  1  0
 27 68  1  0
 27 69  1  0
 28 29  1  0
 28 70  1  6
 29 30  1  0
 30 31  1  0
 30 71  1  1
 31 32  1  6
 31 33  1  0
 32 72  1  0
 32 73  1  0
 32 74  1  0
 33 34  1  0
 33 75  1  0
 33 76  1  0
 34 35  1  0
 34 77  1  0
 34 78  1  0
 35 36  1  1
 36 79  1  0
 37 38  1  0
 37 39  1  0
 38 80  1  0
 38 81  1  0
 38 82  1  0
 39 83  1  0
 39 84  1  0
 39 85  1  0
M  END
>  <i_m_ct_stereo_status>  (222) 
1

>  <s_m_source_file>  (222) 
/var/tmp/pbs.5076255.sched01/tmppdndq9e4/92von5zo7h.sdf

>  <i_m_source_file_index>  (222) 
6

>  <i_lp_mmshare_version>  (222) 
48012

>  <i_f3d_flags>  (222) 
0

>  <s_epik_input>  (222) 
W0NIM11DMShbQ0gzXSlDKD1bQ0gyXSlbQ0gyXVtDSDJdW0NASF0oW0NAQF0xMltPSF0pW0NAXTMoW09IXSlbQ0BdKFtDSDNdKShbQ0gyXVtDSDJdMilbQ0BIXTRbQ0BdKFtDSDNdKShbQ0gyXVtDSDJdMylbQ0BASF01W0NAXShbQ0gzXSkoQyg9TylbQ0gyXTQpQz02W0NASF0oTzUpW0NIMl1bQ0BASF0oQzZbQ0gzXSljN1tjSF1bY0hdb1tjSF03

>  <s_epik_cmdline>  (222) 
J2VwaWtfcHl0aG9uJywgJy1waHQnLCAnMi4wJywgJy1waCcsICc3LjAnLCAnLXRuJywgJzgnLCAnLW1hJywgJzIwMCcsICctaW1hZScsICc8aW5maWxlLm1hZT4nLCAnLW9tYWUnLCAnPG91dGZpbGUubWFlPic=

>  <r_lp_tautomer_probability>  (222) 
1

>  <r_epik_Ionization_Penalty>  (222) 
4.83339e-06

>  <r_epik_Ionization_Penalty_Charging>  (222) 
0

>  <r_epik_Ionization_Penalty_Neutral>  (222) 
4.83339e-06

>  <r_epik_State_Penalty>  (222) 
-0

>  <r_epik_Charging_Adjusted_Penalty>  (222) 
0

>  <i_epik_Tot_Q>  (222) 
0

>  <i_epik_Tot_abs_Q>  (222) 
0

>  <s_lp_Force_Field>  (222) 
OPLS3e

>  <r_lp_Energy>  (222) 
66.7113

>  <b_lp_Chiralities_Consistent>  (222) 
1

>  <s_lp_Variant>  (222) 
60:0-1

>  <s_i_glide_gridfile>  (222) 
pfpi4k_grid

>  <i_i_glide_lignum>  (222) 
6

>  <i_i_glide_rotatable_bonds>  (222) 
3

>  <r_i_docking_score>  (222) 
-1.81066

>  <r_i_glide_ligand_efficiency>  (222) 
-0.0464271

>  <r_i_glide_ligand_efficiency_sa>  (222) 
-0.157444

>  <r_i_glide_ligand_efficiency_ln>  (222) 
-0.388256

>  <r_i_glide_gscore>  (222) 
-1.81066

>  <r_i_glide_lipo>  (222) 
-0.000363034

>  <r_i_glide_hbond>  (222) 
0

>  <r_i_glide_metal>  (222) 
-0

>  <r_i_glide_rewards>  (222) 
0

>  <r_i_glide_evdw>  (222) 
-26.217

>  <r_i_glide_ecoul>  (222) 
-3.7074

>  <r_i_glide_erotb>  (222) 
0.0721852

>  <r_i_glide_esite>  (222) 
-0.0155191

>  <r_i_glide_emodel>  (222) 
-32.7039

>  <r_i_glide_energy>  (222) 
-29.9244

>  <r_i_glide_einternal>  (222) 
1.15532

>  <r_i_glide_intrahb_reward>  (222) 
-0

>  <i_i_glide_confnum>  (222) 
6

>  <i_i_glide_posenum>  (222) 
25

>  <r_i_glide_eff_state_penalty>  (222) 
0

>  <ligand_id>  (222) 
60

>  <original_smiles>  (222) 
C=C1CCC2C(O)(CCC3(C)C4CC(=O)C5(C)C6=C(C)C(c7ccoc7)CC6OC5C4(C)CCC23O)C1(C)C

>  <smiles>  (222) 
[H]OC12C([H])([H])C([H])([H])C3(C([H])([H])[H])C4([H])C([H])([H])C(=O)C5(C([H])([H])[H])C6=C(C([H])([H])[H])C([H])(c7c([H])oc([H])c7[H])C([H])([H])C6([H])OC5([H])C4(C([H])([H])[H])C([H])([H])C([H])([H])C3(O[H])C1([H])C([H])([H])C([H])([H])C(=C([H])[H])C2(C([H])([H])[H])C([H])([H])[H]

$$$$
60:0:1
     RDKit          3D

 85 91  0  0  1  0  0  0  0  0999 V2000
    5.5189  -11.4592    2.8949 C   0  0  0  0  0  0  0  0  0  0  0  0
    5.3801  -10.5495    3.8790 C   0  0  0  0  0  0  0  0  0  0  0  0
    6.4516   -9.4918    4.0844 C   0  0  0  0  0  0  0  0  0  0  0  0
    5.8563   -8.0837    4.0035 C   0  0  0  0  0  0  0  0  0  0  0  0
    4.6948   -7.8924    5.0121 C   0  0  2  0  0  0  0  0  0  0  0  0
    3.5876   -8.9800    4.8018 C   0  0  2  0  0  0  0  0  0  0  0  0
    3.0400   -8.7975    3.5075 O   0  0  0  0  0  0  0  0  0  0  0  0
    2.4288   -8.7537    5.8093 C   0  0  0  0  0  0  0  0  0  0  0  0
    1.9108   -7.3024    5.8360 C   0  0  0  0  0  0  0  0  0  0  0  0
    3.0053   -6.2519    6.1775 C   0  0  2  0  0  0  0  0  0  0  0  0
    3.4969   -6.5484    7.6251 C   0  0  0  0  0  0  0  0  0  0  0  0
    2.4646   -4.7613    6.2010 C   0  0  2  0  0  0  0  0  0  0  0  0
    1.3102   -4.5150    7.2232 C   0  0  0  0  0  0  0  0  0  0  0  0
    0.5804   -3.1737    7.0682 C   0  0  0  0  0  0  0  0  0  0  0  0
   -0.5797   -3.0408    7.4745 O   0  0  0  0  0  0  0  0  0  0  0  0
    1.3605   -2.0193    6.4198 C   0  0  2  0  0  0  0  0  0  0  0  0
    2.2822   -1.3855    7.4876 C   0  0  0  0  0  0  0  0  0  0  0  0
    0.4147   -1.0294    5.7748 C   0  0  0  0  0  0  0  0  0  0  0  0
   -0.2211    0.1040    6.1241 C   0  0  0  0  0  0  0  0  0  0  0  0
   -0.4007    0.7339    7.4963 C   0  0  0  0  0  0  0  0  0  0  0  0
   -0.7780    0.7798    4.8725 C   0  0  1  0  0  0  0  0  0  0  0  0
   -0.7101    2.2974    4.7796 C   0  0  0  0  0  0  0  0  0  0  0  0
   -0.2140    3.0675    3.6801 C   0  0  0  0  0  0  0  0  0  0  0  0
   -0.3486    4.3842    4.0132 C   0  0  0  0  0  0  0  0  0  0  0  0
   -0.9329    4.5079    5.2312 O   0  0  0  0  0  0  0  0  0  0  0  0
   -1.1452    3.2392    5.6774 C   0  0  0  0  0  0  0  0  0  0  0  0
   -0.0228    0.0587    3.7222 C   0  0  0  0  0  0  0  0  0  0  0  0
    0.3923   -1.2882    4.3225 C   0  0  1  0  0  0  0  0  0  0  0  0
    1.6862   -1.7685    4.0128 O   0  0  0  0  0  0  0  0  0  0  0  0
    2.1617   -2.5028    5.1511 C   0  0  2  0  0  0  0  0  0  0  0  0
    2.2083   -4.0444    4.8360 C   0  0  2  0  0  0  0  0  0  0  0  0
    0.9100   -4.5182    4.1173 C   0  0  0  0  0  0  0  0  0  0  0  0
    3.4044   -4.2927    3.8839 C   0  0  0  0  0  0  0  0  0  0  0  0
    3.8144   -5.7689    3.7711 C   0  0  0  0  0  0  0  0  0  0  0  0
    4.1802   -6.4094    5.1361 C   0  0  2  0  0  0  0  0  0  0  0  0
    5.2860   -5.6637    5.6197 O   0  0  0  0  0  0  0  0  0  0  0  0
    4.1735  -10.4559    4.8413 C   0  0  0  0  0  0  0  0  0  0  0  0
    3.0794  -11.5022    4.4748 C   0  0  0  0  0  0  0  0  0  0  0  0
    4.6736  -10.8570    6.2560 C   0  0  0  0  0  0  0  0  0  0  0  0
    4.7835  -12.2208    2.6927 H   0  0  0  0  0  0  0  0  0  0  0  0
    6.3858  -11.4533    2.2540 H   0  0  0  0  0  0  0  0  0  0  0  0
    6.9277   -9.6487    5.0517 H   0  0  0  0  0  0  0  0  0  0  0  0
    7.2338   -9.6003    3.3324 H   0  0  0  0  0  0  0  0  0  0  0  0
    6.6509   -7.3568    4.1756 H   0  0  0  0  0  0  0  0  0  0  0  0
    5.4986   -7.9290    2.9839 H   0  0  0  0  0  0  0  0  0  0  0  0
    5.1398   -8.1059    5.9791 H   0  0  0  0  0  0  0  0  0  0  0  0
    2.4356   -9.5085    3.3471 H   0  0  0  0  0  0  0  0  0  0  0  0
    1.5866   -9.4070    5.5781 H   0  0  0  0  0  0  0  0  0  0  0  0
    2.7381   -9.0303    6.8178 H   0  0  0  0  0  0  0  0  0  0  0  0
    1.4786   -7.1122    4.8638 H   0  0  0  0  0  0  0  0  0  0  0  0
    1.0861   -7.2508    6.5451 H   0  0  0  0  0  0  0  0  0  0  0  0
    4.1611   -5.7664    7.9960 H   0  0  0  0  0  0  0  0  0  0  0  0
    4.0465   -7.4811    7.7157 H   0  0  0  0  0  0  0  0  0  0  0  0
    2.6603   -6.6184    8.3203 H   0  0  0  0  0  0  0  0  0  0  0  0
    3.3062   -4.2024    6.6126 H   0  0  0  0  0  0  0  0  0  0  0  0
    0.5553   -5.2954    7.1468 H   0  0  0  0  0  0  0  0  0  0  0  0
    1.7124   -4.5591    8.2339 H   0  0  0  0  0  0  0  0  0  0  0  0
    1.7447   -1.0996    8.3879 H   0  0  0  0  0  0  0  0  0  0  0  0
    2.7955   -0.5006    7.1168 H   0  0  0  0  0  0  0  0  0  0  0  0
    3.0499   -2.0874    7.8065 H   0  0  0  0  0  0  0  0  0  0  0  0
   -1.4526    0.9923    7.6366 H   0  0  0  0  0  0  0  0  0  0  0  0
    0.1781    1.6552    7.5759 H   0  0  0  0  0  0  0  0  0  0  0  0
   -0.1140    0.0737    8.3140 H   0  0  0  0  0  0  0  0  0  0  0  0
   -1.8369    0.5135    4.8288 H   0  0  0  0  0  0  0  0  0  0  0  0
    0.1967    2.7245    2.7461 H   0  0  0  0  0  0  0  0  0  0  0  0
   -0.0956    5.2989    3.4954 H   0  0  0  0  0  0  0  0  0  0  0  0
   -1.6131    3.1921    6.6492 H   0  0  0  0  0  0  0  0  0  0  0  0
   -0.6135   -0.0317    2.8129 H   0  0  0  0  0  0  0  0  0  0  0  0
    0.8922    0.5974    3.4637 H   0  0  0  0  0  0  0  0  0  0  0  0
   -0.3673   -2.0512    4.1389 H   0  0  0  0  0  0  0  0  0  0  0  0
    3.1886   -2.1707    5.2947 H   0  0  0  0  0  0  0  0  0  0  0  0
    0.6517   -3.8636    3.2858 H   0  0  0  0  0  0  0  0  0  0  0  0
    0.0450   -4.5625    4.7755 H   0  0  0  0  0  0  0  0  0  0  0  0
    1.0091   -5.4970    3.6603 H   0  0  0  0  0  0  0  0  0  0  0  0
    3.1596   -3.9158    2.8914 H   0  0  0  0  0  0  0  0  0  0  0  0
    4.2771   -3.7216    4.2048 H   0  0  0  0  0  0  0  0  0  0  0  0
    3.0184   -6.3219    3.2834 H   0  0  0  0  0  0  0  0  0  0  0  0
    4.6580   -5.8198    3.0865 H   0  0  0  0  0  0  0  0  0  0  0  0
    6.0012   -5.7728    5.0103 H   0  0  0  0  0  0  0  0  0  0  0  0
    2.2385  -11.4801    5.1668 H   0  0  0  0  0  0  0  0  0  0  0  0
    3.4683  -12.5210    4.5195 H   0  0  0  0  0  0  0  0  0  0  0  0
    2.6884  -11.3582    3.4670 H   0  0  0  0  0  0  0  0  0  0  0  0
    3.8589  -10.9290    6.9781 H   0  0  0  0  0  0  0  0  0  0  0  0
    5.4095  -10.1629    6.6591 H   0  0  0  0  0  0  0  0  0  0  0  0
    5.1519  -11.8398    6.2332 H   0  0  0  0  0  0  0  0  0  0  0  0
  1  2  2  0
  1 40  1  0
  1 41  1  0
  2 37  1  0
  2  3  1  0
  3  4  1  0
  3 42  1  0
  3 43  1  0
  4  5  1  0
  4 44  1  0
  4 45  1  0
  5 35  1  0
  5  6  1  0
  5 46  1  1
  6  7  1  6
  6  8  1  0
  6 37  1  0
  7 47  1  0
  8  9  1  0
  8 48  1  0
  8 49  1  0
  9 10  1  0
  9 50  1  0
  9 51  1  0
 10 35  1  0
 10 11  1  1
 10 12  1  0
 11 52  1  0
 11 53  1  0
 11 54  1  0
 12 31  1  0
 12 13  1  0
 12 55  1  1
 13 14  1  0
 13 56  1  0
 13 57  1  0
 14 15  2  0
 14 16  1  0
 16 30  1  0
 16 17  1  1
 16 18  1  0
 17 58  1  0
 17 59  1  0
 17 60  1  0
 18 28  1  0
 18 19  2  0
 19 20  1  0
 19 21  1  0
 20 61  1  0
 20 62  1  0
 20 63  1  0
 21 22  1  0
 21 27  1  0
 21 64  1  6
 22 26  2  0
 22 23  1  0
 23 24  2  0
 23 65  1  0
 24 25  1  0
 24 66  1  0
 25 26  1  0
 26 67  1  0
 27 28  1  0
 27 68  1  0
 27 69  1  0
 28 29  1  0
 28 70  1  1
 29 30  1  0
 30 31  1  0
 30 71  1  1
 31 32  1  6
 31 33  1  0
 32 72  1  0
 32 73  1  0
 32 74  1  0
 33 34  1  0
 33 75  1  0
 33 76  1  0
 34 35  1  0
 34 77  1  0
 34 78  1  0
 35 36  1  1
 36 79  1  0
 37 38  1  0
 37 39  1  0
 38 80  1  0
 38 81  1  0
 38 82  1  0
 39 83  1  0
 39 84  1  0
 39 85  1  0
M  END
>  <i_m_ct_stereo_status>  (223) 
1

>  <s_m_source_file>  (223) 
/var/tmp/pbs.5076255.sched01/tmppdndq9e4/92von5zo7h.sdf

>  <i_m_source_file_index>  (223) 
6

>  <i_lp_mmshare_version>  (223) 
48012

>  <i_f3d_flags>  (223) 
0

>  <s_epik_input>  (223) 
W0NIM11DMShbQ0gzXSlDKD1bQ0gyXSlbQ0gyXVtDSDJdW0NASF0oW0NAQF0xMltPSF0pW0NAXTMoW09IXSlbQ0BdKFtDSDNdKShbQ0gyXVtDSDJdMilbQ0BIXTRbQ0BdKFtDSDNdKShbQ0gyXVtDSDJdMylbQ0BASF01W0NAXShbQ0gzXSkoQyg9TylbQ0gyXTQpQz02W0NASF0oTzUpW0NIMl1bQ0BASF0oQzZbQ0gzXSljN1tjSF1bY0hdb1tjSF03

>  <s_epik_cmdline>  (223) 
J2VwaWtfcHl0aG9uJywgJy1waHQnLCAnMi4wJywgJy1waCcsICc3LjAnLCAnLXRuJywgJzgnLCAnLW1hJywgJzIwMCcsICctaW1hZScsICc8aW5maWxlLm1hZT4nLCAnLW9tYWUnLCAnPG91dGZpbGUubWFlPic=

>  <r_lp_tautomer_probability>  (223) 
1

>  <r_epik_Ionization_Penalty>  (223) 
4.83339e-06

>  <r_epik_Ionization_Penalty_Charging>  (223) 
0

>  <r_epik_Ionization_Penalty_Neutral>  (223) 
4.83339e-06

>  <r_epik_State_Penalty>  (223) 
-0

>  <r_epik_Charging_Adjusted_Penalty>  (223) 
0

>  <i_epik_Tot_Q>  (223) 
0

>  <i_epik_Tot_abs_Q>  (223) 
0

>  <s_lp_Force_Field>  (223) 
OPLS3e

>  <r_lp_Energy>  (223) 
66.7113

>  <b_lp_Chiralities_Consistent>  (223) 
1

>  <s_lp_Variant>  (223) 
60:0-1

>  <s_i_glide_gridfile>  (223) 
pfpi4k_grid

>  <i_i_glide_lignum>  (223) 
6

>  <i_i_glide_rotatable_bonds>  (223) 
3

>  <r_i_docking_score>  (223) 
-1.79268

>  <r_i_glide_ligand_efficiency>  (223) 
-0.0459661

>  <r_i_glide_ligand_efficiency_sa>  (223) 
-0.155881

>  <r_i_glide_ligand_efficiency_ln>  (223) 
-0.384401

>  <r_i_glide_gscore>  (223) 
-1.79268

>  <r_i_glide_lipo>  (223) 
-0.00394169

>  <r_i_glide_hbond>  (223) 
-0.0350256

>  <r_i_glide_metal>  (223) 
-0

>  <r_i_glide_rewards>  (223) 
0

>  <r_i_glide_evdw>  (223) 
-24.8274

>  <r_i_glide_ecoul>  (223) 
-3.81134

>  <r_i_glide_erotb>  (223) 
0.0721852

>  <r_i_glide_esite>  (223) 
-0.0128256

>  <r_i_glide_emodel>  (223) 
-31.4231

>  <r_i_glide_energy>  (223) 
-28.6387

>  <r_i_glide_einternal>  (223) 
1.07478

>  <r_i_glide_intrahb_reward>  (223) 
-0

>  <i_i_glide_confnum>  (223) 
6

>  <i_i_glide_posenum>  (223) 
1

>  <r_i_glide_eff_state_penalty>  (223) 
0

>  <ligand_id>  (223) 
60

>  <original_smiles>  (223) 
C=C1CCC2C(O)(CCC3(C)C4CC(=O)C5(C)C6=C(C)C(c7ccoc7)CC6OC5C4(C)CCC23O)C1(C)C

>  <smiles>  (223) 
[H]OC12C([H])([H])C([H])([H])C3(C([H])([H])[H])C4([H])C([H])([H])C(=O)C5(C([H])([H])[H])C6=C(C([H])([H])[H])C([H])(c7c([H])oc([H])c7[H])C([H])([H])C6([H])OC5([H])C4(C([H])([H])[H])C([H])([H])C([H])([H])C3(O[H])C1([H])C([H])([H])C([H])([H])C(=C([H])[H])C2(C([H])([H])[H])C([H])([H])[H]

$$$$
60:0:2
     RDKit          3D

 85 91  0  0  1  0  0  0  0  0999 V2000
    4.4863   -7.8357    5.7179 C   0  0  0  0  0  0  0  0  0  0  0  0
    4.8063   -6.5522    5.4470 C   0  0  0  0  0  0  0  0  0  0  0  0
    5.0647   -6.1349    4.0107 C   0  0  0  0  0  0  0  0  0  0  0  0
    4.1357   -4.9904    3.5906 C   0  0  0  0  0  0  0  0  0  0  0  0
    4.2471   -3.7811    4.5559 C   0  0  2  0  0  0  0  0  0  0  0  0
    3.9813   -4.2130    6.0380 C   0  0  2  0  0  0  0  0  0  0  0  0
    2.6410   -4.6755    6.1153 O   0  0  0  0  0  0  0  0  0  0  0  0
    4.0872   -2.9769    6.9732 C   0  0  0  0  0  0  0  0  0  0  0  0
    3.2589   -1.7683    6.4917 C   0  0  0  0  0  0  0  0  0  0  0  0
    3.6295   -1.2770    5.0635 C   0  0  2  0  0  0  0  0  0  0  0  0
    5.0991   -0.7739    5.1273 C   0  0  0  0  0  0  0  0  0  0  0  0
    2.7753   -0.0417    4.5763 C   0  0  2  0  0  0  0  0  0  0  0  0
    2.8904    1.2093    5.4996 C   0  0  0  0  0  0  0  0  0  0  0  0
    1.8680    2.3169    5.2138 C   0  0  0  0  0  0  0  0  0  0  0  0
    1.5370    3.1133    6.0961 O   0  0  0  0  0  0  0  0  0  0  0  0
    1.2759    2.3845    3.8028 C   0  0  2  0  0  0  0  0  0  0  0  0
    2.2856    3.1246    2.8957 C   0  0  0  0  0  0  0  0  0  0  0  0
   -0.0863    3.0444    3.8162 C   0  0  0  0  0  0  0  0  0  0  0  0
   -0.5630    4.2949    3.7109 C   0  0  0  0  0  0  0  0  0  0  0  0
    0.2055    5.6161    3.7610 C   0  0  0  0  0  0  0  0  0  0  0  0
   -2.0779    4.2206    3.4492 C   0  0  1  0  0  0  0  0  0  0  0  0
   -2.7694    5.1832    2.4797 C   0  0  0  0  0  0  0  0  0  0  0  0
   -4.1655    5.1458    2.0946 C   0  0  0  0  0  0  0  0  0  0  0  0
   -4.3898    6.1557    1.1689 C   0  0  0  0  0  0  0  0  0  0  0  0
   -3.2442    6.8391    0.9659 O   0  0  0  0  0  0  0  0  0  0  0  0
   -2.2563    6.2039    1.6938 C   0  0  0  0  0  0  0  0  0  0  0  0
   -2.3257    2.7062    3.1445 C   0  0  0  0  0  0  0  0  0  0  0  0
   -1.1094    1.9774    3.7296 C   0  0  1  0  0  0  0  0  0  0  0  0
   -0.5097    0.9406    2.9666 O   0  0  0  0  0  0  0  0  0  0  0  0
    0.9018    0.9566    3.2483 C   0  0  2  0  0  0  0  0  0  0  0  0
    1.3126   -0.2966    4.1008 C   0  0  2  0  0  0  0  0  0  0  0  0
    0.3032   -0.5412    5.2618 C   0  0  0  0  0  0  0  0  0  0  0  0
    1.2901   -1.5138    3.1589 C   0  0  0  0  0  0  0  0  0  0  0  0
    1.9991   -2.7507    3.7196 C   0  0  0  0  0  0  0  0  0  0  0  0
    3.4848   -2.4902    4.0727 C   0  0  2  0  0  0  0  0  0  0  0  0
    4.1118   -2.1249    2.8539 O   0  0  0  0  0  0  0  0  0  0  0  0
    4.9073   -5.4218    6.4927 C   0  0  0  0  0  0  0  0  0  0  0  0
    4.5061   -5.9303    7.9049 C   0  0  0  0  0  0  0  0  0  0  0  0
    6.4024   -5.0212    6.6013 C   0  0  0  0  0  0  0  0  0  0  0  0
    4.2872   -8.1910    6.7167 H   0  0  0  0  0  0  0  0  0  0  0  0
    4.4316   -8.5750    4.9273 H   0  0  0  0  0  0  0  0  0  0  0  0
    6.1064   -5.8315    3.9166 H   0  0  0  0  0  0  0  0  0  0  0  0
    4.9218   -6.9856    3.3388 H   0  0  0  0  0  0  0  0  0  0  0  0
    4.3731   -4.7016    2.5613 H   0  0  0  0  0  0  0  0  0  0  0  0
    3.1169   -5.3786    3.6004 H   0  0  0  0  0  0  0  0  0  0  0  0
    5.2953   -3.5028    4.5105 H   0  0  0  0  0  0  0  0  0  0  0  0
    2.5100   -4.9862    6.9938 H   0  0  0  0  0  0  0  0  0  0  0  0
    3.7478   -3.2360    7.9761 H   0  0  0  0  0  0  0  0  0  0  0  0
    5.1260   -2.6643    7.0782 H   0  0  0  0  0  0  0  0  0  0  0  0
    2.2209   -2.0742    6.5342 H   0  0  0  0  0  0  0  0  0  0  0  0
    3.3708   -0.9686    7.2270 H   0  0  0  0  0  0  0  0  0  0  0  0
    5.4028   -0.2832    4.2007 H   0  0  0  0  0  0  0  0  0  0  0  0
    5.8046   -1.5842    5.2921 H   0  0  0  0  0  0  0  0  0  0  0  0
    5.2484   -0.0624    5.9436 H   0  0  0  0  0  0  0  0  0  0  0  0
    3.2867    0.2706    3.6626 H   0  0  0  0  0  0  0  0  0  0  0  0
    2.7679    0.9422    6.5478 H   0  0  0  0  0  0  0  0  0  0  0  0
    3.8795    1.6558    5.3972 H   0  0  0  0  0  0  0  0  0  0  0  0
    2.6043    4.0881    3.2896 H   0  0  0  0  0  0  0  0  0  0  0  0
    1.9074    3.3012    1.8908 H   0  0  0  0  0  0  0  0  0  0  0  0
    3.1972    2.5436    2.7904 H   0  0  0  0  0  0  0  0  0  0  0  0
   -0.3642    6.3199    4.3734 H   0  0  0  0  0  0  0  0  0  0  0  0
    0.3215    6.0396    2.7550 H   0  0  0  0  0  0  0  0  0  0  0  0
    1.1939    5.5000    4.2266 H   0  0  0  0  0  0  0  0  0  0  0  0
   -2.5413    4.3958    4.4308 H   0  0  0  0  0  0  0  0  0  0  0  0
   -4.9347    4.4455    2.3910 H   0  0  0  0  0  0  0  0  0  0  0  0
   -5.2316    6.5111    0.5790 H   0  0  0  0  0  0  0  0  0  0  0  0
   -1.2888    6.6639    1.5014 H   0  0  0  0  0  0  0  0  0  0  0  0
   -3.2811    2.3194    3.5219 H   0  0  0  0  0  0  0  0  0  0  0  0
   -2.3207    2.5482    2.0722 H   0  0  0  0  0  0  0  0  0  0  0  0
   -1.3100    1.6406    4.7500 H   0  0  0  0  0  0  0  0  0  0  0  0
    1.3903    0.8793    2.2755 H   0  0  0  0  0  0  0  0  0  0  0  0
   -0.7298   -0.5099    4.9152 H   0  0  0  0  0  0  0  0  0  0  0  0
    0.3960    0.1747    6.0768 H   0  0  0  0  0  0  0  0  0  0  0  0
    0.4036   -1.5240    5.7009 H   0  0  0  0  0  0  0  0  0  0  0  0
    0.2571   -1.7777    2.9549 H   0  0  0  0  0  0  0  0  0  0  0  0
    1.7302   -1.2738    2.1880 H   0  0  0  0  0  0  0  0  0  0  0  0
    1.4556   -3.1169    4.5883 H   0  0  0  0  0  0  0  0  0  0  0  0
    1.9172   -3.5401    2.9748 H   0  0  0  0  0  0  0  0  0  0  0  0
    3.9662   -2.8152    2.2290 H   0  0  0  0  0  0  0  0  0  0  0  0
    4.6053   -5.1548    8.6627 H   0  0  0  0  0  0  0  0  0  0  0  0
    5.1460   -6.7516    8.2312 H   0  0  0  0  0  0  0  0  0  0  0  0
    3.4814   -6.3004    7.9373 H   0  0  0  0  0  0  0  0  0  0  0  0
    6.5760   -4.2985    7.4007 H   0  0  0  0  0  0  0  0  0  0  0  0
    6.7903   -4.5928    5.6787 H   0  0  0  0  0  0  0  0  0  0  0  0
    7.0200   -5.8954    6.8241 H   0  0  0  0  0  0  0  0  0  0  0  0
  1  2  2  0
  1 40  1  0
  1 41  1  0
  2 37  1  0
  2  3  1  0
  3  4  1  0
  3 42  1  0
  3 43  1  0
  4  5  1  0
  4 44  1  0
  4 45  1  0
  5 35  1  0
  5  6  1  0
  5 46  1  1
  6  7  1  6
  6  8  1  0
  6 37  1  0
  7 47  1  0
  8  9  1  0
  8 48  1  0
  8 49  1  0
  9 10  1  0
  9 50  1  0
  9 51  1  0
 10 35  1  0
 10 11  1  1
 10 12  1  0
 11 52  1  0
 11 53  1  0
 11 54  1  0
 12 31  1  0
 12 13  1  0
 12 55  1  6
 13 14  1  0
 13 56  1  0
 13 57  1  0
 14 15  2  0
 14 16  1  0
 16 30  1  0
 16 17  1  6
 16 18  1  0
 17 58  1  0
 17 59  1  0
 17 60  1  0
 18 28  1  0
 18 19  2  0
 19 20  1  0
 19 21  1  0
 20 61  1  0
 20 62  1  0
 20 63  1  0
 21 22  1  0
 21 27  1  0
 21 64  1  1
 22 26  2  0
 22 23  1  0
 23 24  2  0
 23 65  1  0
 24 25  1  0
 24 66  1  0
 25 26  1  0
 26 67  1  0
 27 28  1  0
 27 68  1  0
 27 69  1  0
 28 29  1  0
 28 70  1  1
 29 30  1  0
 30 31  1  0
 30 71  1  6
 31 32  1  1
 31 33  1  0
 32 72  1  0
 32 73  1  0
 32 74  1  0
 33 34  1  0
 33 75  1  0
 33 76  1  0
 34 35  1  0
 34 77  1  0
 34 78  1  0
 35 36  1  6
 36 79  1  0
 37 38  1  0
 37 39  1  0
 38 80  1  0
 38 81  1  0
 38 82  1  0
 39 83  1  0
 39 84  1  0
 39 85  1  0
M  END
>  <i_m_ct_stereo_status>  (224) 
1

>  <s_m_source_file>  (224) 
/var/tmp/pbs.5076255.sched01/tmppdndq9e4/92von5zo7h.sdf

>  <i_m_source_file_index>  (224) 
6

>  <i_lp_mmshare_version>  (224) 
48012

>  <i_f3d_flags>  (224) 
0

>  <s_epik_input>  (224) 
W0NIM11DMShbQ0gzXSlDKD1bQ0gyXSlbQ0gyXVtDSDJdW0NASF0oW0NAQF0xMltPSF0pW0NAXTMoW09IXSlbQ0BdKFtDSDNdKShbQ0gyXVtDSDJdMilbQ0BIXTRbQ0BdKFtDSDNdKShbQ0gyXVtDSDJdMylbQ0BASF01W0NAXShbQ0gzXSkoQyg9TylbQ0gyXTQpQz02W0NASF0oTzUpW0NIMl1bQ0BASF0oQzZbQ0gzXSljN1tjSF1bY0hdb1tjSF03

>  <s_epik_cmdline>  (224) 
J2VwaWtfcHl0aG9uJywgJy1waHQnLCAnMi4wJywgJy1waCcsICc3LjAnLCAnLXRuJywgJzgnLCAnLW1hJywgJzIwMCcsICctaW1hZScsICc8aW5maWxlLm1hZT4nLCAnLW9tYWUnLCAnPG91dGZpbGUubWFlPic=

>  <r_lp_tautomer_probability>  (224) 
1

>  <r_epik_Ionization_Penalty>  (224) 
4.83339e-06

>  <r_epik_Ionization_Penalty_Charging>  (224) 
0

>  <r_epik_Ionization_Penalty_Neutral>  (224) 
4.83339e-06

>  <r_epik_State_Penalty>  (224) 
-0

>  <r_epik_Charging_Adjusted_Penalty>  (224) 
0

>  <i_epik_Tot_Q>  (224) 
0

>  <i_epik_Tot_abs_Q>  (224) 
0

>  <s_lp_Force_Field>  (224) 
OPLS3e

>  <r_lp_Energy>  (224) 
66.7113

>  <b_lp_Chiralities_Consistent>  (224) 
1

>  <s_lp_Variant>  (224) 
60:0-1

>  <s_i_glide_gridfile>  (224) 
pfpi4k_grid

>  <i_i_glide_lignum>  (224) 
6

>  <i_i_glide_rotatable_bonds>  (224) 
3

>  <r_i_docking_score>  (224) 
-1.36217

>  <r_i_glide_ligand_efficiency>  (224) 
-0.0349274

>  <r_i_glide_ligand_efficiency_sa>  (224) 
-0.118446

>  <r_i_glide_ligand_efficiency_ln>  (224) 
-0.292087

>  <r_i_glide_gscore>  (224) 
-1.36217

>  <r_i_glide_lipo>  (224) 
-0.1577

>  <r_i_glide_hbond>  (224) 
0

>  <r_i_glide_metal>  (224) 
-0

>  <r_i_glide_rewards>  (224) 
0

>  <r_i_glide_evdw>  (224) 
-18.7355

>  <r_i_glide_ecoul>  (224) 
-2.25822

>  <r_i_glide_erotb>  (224) 
0.0721852

>  <r_i_glide_esite>  (224) 
-0.0011434

>  <r_i_glide_emodel>  (224) 
-22.6939

>  <r_i_glide_energy>  (224) 
-20.9937

>  <r_i_glide_einternal>  (224) 
0.96236

>  <r_i_glide_intrahb_reward>  (224) 
-0

>  <i_i_glide_confnum>  (224) 
6

>  <i_i_glide_posenum>  (224) 
2

>  <r_i_glide_eff_state_penalty>  (224) 
0

>  <ligand_id>  (224) 
60

>  <original_smiles>  (224) 
C=C1CCC2C(O)(CCC3(C)C4CC(=O)C5(C)C6=C(C)C(c7ccoc7)CC6OC5C4(C)CCC23O)C1(C)C

>  <smiles>  (224) 
[H]OC12C([H])([H])C([H])([H])C3(C([H])([H])[H])C4([H])C([H])([H])C(=O)C5(C([H])([H])[H])C6=C(C([H])([H])[H])C([H])(c7c([H])oc([H])c7[H])C([H])([H])C6([H])OC5([H])C4(C([H])([H])[H])C([H])([H])C([H])([H])C3(O[H])C1([H])C([H])([H])C([H])([H])C(=C([H])[H])C2(C([H])([H])[H])C([H])([H])[H]

$$$$
61:0:0
     RDKit          3D

 30 32  0  0  1  0  0  0  0  0999 V2000
    6.9977   -1.7336    0.4830 C   0  0  0  0  0  0  0  0  0  0  0  0
    5.5944   -1.0869    0.5029 C   0  0  0  0  0  0  0  0  0  0  0  0
    5.2225   -0.3167    1.7993 C   0  0  0  0  0  0  0  0  0  0  0  0
    4.5332   -2.0006   -0.0047 N   0  0  0  0  0  0  0  0  0  0  0  0
    4.0820   -3.0505    0.8545 C   0  0  0  0  0  0  0  0  0  0  0  0
    4.6350   -3.3181    2.1393 C   0  0  0  0  0  0  0  0  0  0  0  0
    4.0700   -4.3124    2.9632 C   0  0  0  0  0  0  0  0  0  0  0  0
    3.0650   -5.1207    2.5788 N   0  0  0  0  0  0  0  0  0  0  0  0
    2.5934   -4.9415    1.3333 C   0  0  0  0  0  0  0  0  0  0  0  0
    3.0277   -3.9226    0.4650 C   0  0  0  0  0  0  0  0  0  0  0  0
    2.2189   -3.8237   -1.0720 S   0  0  0  0  0  0  0  0  0  0  0  0
    3.0443   -2.5477   -1.9221 C   0  0  0  0  0  0  0  0  0  0  0  0
    2.6074   -2.2755   -3.2322 C   0  0  0  0  0  0  0  0  0  0  0  0
    3.1649   -1.1985   -3.9348 C   0  0  0  0  0  0  0  0  0  0  0  0
    4.1629   -0.4589   -3.2926 C   0  0  0  0  0  0  0  0  0  0  0  0
    4.6212   -0.7582   -2.0628 N   0  0  0  0  0  0  0  0  0  0  0  0
    4.0712   -1.7651   -1.3357 C   0  0  0  0  0  0  0  0  0  0  0  0
    7.7808   -0.9719    0.5428 H   0  0  0  0  0  0  0  0  0  0  0  0
    7.1723   -2.2892   -0.4349 H   0  0  0  0  0  0  0  0  0  0  0  0
    7.1547   -2.4202    1.3074 H   0  0  0  0  0  0  0  0  0  0  0  0
    5.7235   -0.2537   -0.1777 H   0  0  0  0  0  0  0  0  0  0  0  0
    5.8590    0.5395    1.8528 H   0  0  0  0  0  0  0  0  0  0  0  0
    5.3968   -0.8016    2.7532 H   0  0  0  0  0  0  0  0  0  0  0  0
    4.1913    0.0576    1.7484 H   0  0  0  0  0  0  0  0  0  0  0  0
    5.4819   -2.7996    2.5363 H   0  0  0  0  0  0  0  0  0  0  0  0
    4.4476   -4.4726    3.9603 H   0  0  0  0  0  0  0  0  0  0  0  0
    1.8060   -5.6170    1.0294 H   0  0  0  0  0  0  0  0  0  0  0  0
    1.8068   -2.8491   -3.6718 H   0  0  0  0  0  0  0  0  0  0  0  0
    2.8114   -0.9231   -4.9171 H   0  0  0  0  0  0  0  0  0  0  0  0
    4.6031    0.3972   -3.7837 H   0  0  0  0  0  0  0  0  0  0  0  0
  1  2  1  0
  1 18  1  0
  1 19  1  0
  1 20  1  0
  2  3  1  0
  2  4  1  0
  2 21  1  0
  3 22  1  0
  3 23  1  0
  3 24  1  0
  4 17  1  0
  4  5  1  0
  5 10  2  0
  5  6  1  0
  6  7  2  0
  6 25  1  0
  7  8  1  0
  7 26  1  0
  8  9  2  0
  9 10  1  0
  9 27  1  0
 10 11  1  0
 11 12  1  0
 12 17  2  0
 12 13  1  0
 13 14  2  0
 13 28  1  0
 14 15  1  0
 14 29  1  0
 15 16  2  0
 15 30  1  0
 16 17  1  0
M  END
>  <i_m_ct_stereo_status>  (225) 
1

>  <s_m_source_file>  (225) 
/var/tmp/pbs.5076255.sched01/tmppdndq9e4/92von5zo7h.sdf

>  <i_m_source_file_index>  (225) 
7

>  <i_lp_mmshare_version>  (225) 
48012

>  <i_f3d_flags>  (225) 
0

>  <s_epik_input>  (225) 
W2NIXTFbY0hdW2NIXW5jKE4yW0NIXShbQ0gzXSlbQ0gzXSljMVNjKGMyMylbY0hdbltjSF1bY0hdMw==

>  <s_epik_cmdline>  (225) 
J2VwaWtfcHl0aG9uJywgJy1waHQnLCAnMi4wJywgJy1waCcsICc3LjAnLCAnLXRuJywgJzgnLCAnLW1hJywgJzIwMCcsICctaW1hZScsICc8aW5maWxlLm1hZT4nLCAnLW9tYWUnLCAnPG91dGZpbGUubWFlPic=

>  <r_lp_tautomer_probability>  (225) 
1

>  <r_epik_Ionization_Penalty>  (225) 
0.05919

>  <r_epik_Ionization_Penalty_Charging>  (225) 
0

>  <r_epik_Ionization_Penalty_Neutral>  (225) 
0.05919

>  <r_epik_State_Penalty>  (225) 
0.0470549

>  <r_epik_Charging_Adjusted_Penalty>  (225) 
0.0470549

>  <i_epik_Tot_Q>  (225) 
0

>  <i_epik_Tot_abs_Q>  (225) 
0

>  <s_lp_Force_Field>  (225) 
OPLS3e

>  <r_lp_Energy>  (225) 
51.0182

>  <b_lp_Chiralities_Consistent>  (225) 
1

>  <s_lp_Variant>  (225) 
61:0-1

>  <s_i_glide_gridfile>  (225) 
pfpi4k_grid

>  <i_i_glide_lignum>  (225) 
7

>  <i_i_glide_rotatable_bonds>  (225) 
1

>  <r_i_docking_score>  (225) 
-3.27613

>  <r_i_glide_ligand_efficiency>  (225) 
-0.192713

>  <r_i_glide_ligand_efficiency_sa>  (225) 
-0.49552

>  <r_i_glide_ligand_efficiency_ln>  (225) 
-0.854668

>  <r_i_glide_gscore>  (225) 
-3.27613

>  <r_i_glide_lipo>  (225) 
-0.730721

>  <r_i_glide_hbond>  (225) 
0

>  <r_i_glide_metal>  (225) 
-0

>  <r_i_glide_rewards>  (225) 
-1.75003

>  <r_i_glide_evdw>  (225) 
-20.133

>  <r_i_glide_ecoul>  (225) 
1.48955

>  <r_i_glide_erotb>  (225) 
0

>  <r_i_glide_esite>  (225) 
-0.0121519

>  <r_i_glide_emodel>  (225) 
-22.255

>  <r_i_glide_energy>  (225) 
-18.6435

>  <r_i_glide_einternal>  (225) 
0.652246

>  <r_i_glide_intrahb_reward>  (225) 
-0

>  <i_i_glide_confnum>  (225) 
2

>  <i_i_glide_posenum>  (225) 
1

>  <r_i_glide_eff_state_penalty>  (225) 
0

>  <ligand_id>  (225) 
61

>  <original_smiles>  (225) 
CC(C)N1c2ccncc2Sc2cccnc21

>  <smiles>  (225) 
[H]c1nc2c(c([H])c1[H])Sc1c([H])nc([H])c([H])c1N2C([H])(C([H])([H])[H])C([H])([H])[H]

$$$$
61:0:1
     RDKit          3D

 30 32  0  0  1  0  0  0  0  0999 V2000
    5.7829   -0.7264    1.5331 C   0  0  0  0  0  0  0  0  0  0  0  0
    6.1016   -2.2030    1.2264 C   0  0  0  0  0  0  0  0  0  0  0  0
    7.3495   -2.4203    0.3416 C   0  0  0  0  0  0  0  0  0  0  0  0
    4.9073   -2.9957    0.8152 N   0  0  0  0  0  0  0  0  0  0  0  0
    4.4123   -3.9838    1.7322 C   0  0  0  0  0  0  0  0  0  0  0  0
    4.9817   -4.2558    3.0146 C   0  0  0  0  0  0  0  0  0  0  0  0
    4.4437   -5.2525    3.8496 C   0  0  0  0  0  0  0  0  0  0  0  0
    3.3746   -5.9948    3.5292 N   0  0  0  0  0  0  0  0  0  0  0  0
    2.8162   -5.7549    2.3338 C   0  0  0  0  0  0  0  0  0  0  0  0
    3.2808   -4.7857    1.4232 C   0  0  0  0  0  0  0  0  0  0  0  0
    2.3804   -4.6539   -0.0644 S   0  0  0  0  0  0  0  0  0  0  0  0
    3.1934   -3.3800   -0.9498 C   0  0  0  0  0  0  0  0  0  0  0  0
    2.6746   -3.0532   -2.2192 C   0  0  0  0  0  0  0  0  0  0  0  0
    3.2965   -2.0545   -2.9878 C   0  0  0  0  0  0  0  0  0  0  0  0
    4.4070   -1.4098   -2.4288 C   0  0  0  0  0  0  0  0  0  0  0  0
    4.9049   -1.7189   -1.2156 N   0  0  0  0  0  0  0  0  0  0  0  0
    4.3293   -2.6911   -0.4550 C   0  0  0  0  0  0  0  0  0  0  0  0
    6.5683   -0.2992    2.1530 H   0  0  0  0  0  0  0  0  0  0  0  0
    4.8561   -0.6273    2.1004 H   0  0  0  0  0  0  0  0  0  0  0  0
    5.6996   -0.1128    0.6355 H   0  0  0  0  0  0  0  0  0  0  0  0
    6.4792   -2.5451    2.1718 H   0  0  0  0  0  0  0  0  0  0  0  0
    8.2542   -2.1023    0.8583 H   0  0  0  0  0  0  0  0  0  0  0  0
    7.3184   -1.8619   -0.5898 H   0  0  0  0  0  0  0  0  0  0  0  0
    7.4639   -3.4770    0.0971 H   0  0  0  0  0  0  0  0  0  0  0  0
    5.8222   -3.7497    3.4435 H   0  0  0  0  0  0  0  0  0  0  0  0
    4.8863   -5.4542    4.8133 H   0  0  0  0  0  0  0  0  0  0  0  0
    1.9528   -6.3600    2.0935 H   0  0  0  0  0  0  0  0  0  0  0  0
    1.8131   -3.5748   -2.6076 H   0  0  0  0  0  0  0  0  0  0  0  0
    2.9207   -1.7846   -3.9645 H   0  0  0  0  0  0  0  0  0  0  0  0
    4.9291   -0.6305   -2.9690 H   0  0  0  0  0  0  0  0  0  0  0  0
  1  2  1  0
  1 18  1  0
  1 19  1  0
  1 20  1  0
  2  3  1  0
  2  4  1  0
  2 21  1  0
  3 22  1  0
  3 23  1  0
  3 24  1  0
  4 17  1  0
  4  5  1  0
  5 10  2  0
  5  6  1  0
  6  7  2  0
  6 25  1  0
  7  8  1  0
  7 26  1  0
  8  9  2  0
  9 10  1  0
  9 27  1  0
 10 11  1  0
 11 12  1  0
 12 17  2  0
 12 13  1  0
 13 14  2  0
 13 28  1  0
 14 15  1  0
 14 29  1  0
 15 16  2  0
 15 30  1  0
 16 17  1  0
M  END
>  <i_m_ct_stereo_status>  (226) 
1

>  <s_m_source_file>  (226) 
/var/tmp/pbs.5076255.sched01/tmppdndq9e4/92von5zo7h.sdf

>  <i_m_source_file_index>  (226) 
7

>  <i_lp_mmshare_version>  (226) 
48012

>  <i_f3d_flags>  (226) 
0

>  <s_epik_input>  (226) 
W2NIXTFbY0hdW2NIXW5jKE4yW0NIXShbQ0gzXSlbQ0gzXSljMVNjKGMyMylbY0hdbltjSF1bY0hdMw==

>  <s_epik_cmdline>  (226) 
J2VwaWtfcHl0aG9uJywgJy1waHQnLCAnMi4wJywgJy1waCcsICc3LjAnLCAnLXRuJywgJzgnLCAnLW1hJywgJzIwMCcsICctaW1hZScsICc8aW5maWxlLm1hZT4nLCAnLW9tYWUnLCAnPG91dGZpbGUubWFlPic=

>  <r_lp_tautomer_probability>  (226) 
1

>  <r_epik_Ionization_Penalty>  (226) 
0.05919

>  <r_epik_Ionization_Penalty_Charging>  (226) 
0

>  <r_epik_Ionization_Penalty_Neutral>  (226) 
0.05919

>  <r_epik_State_Penalty>  (226) 
0.0470549

>  <r_epik_Charging_Adjusted_Penalty>  (226) 
0.0470549

>  <i_epik_Tot_Q>  (226) 
0

>  <i_epik_Tot_abs_Q>  (226) 
0

>  <s_lp_Force_Field>  (226) 
OPLS3e

>  <r_lp_Energy>  (226) 
51.0182

>  <b_lp_Chiralities_Consistent>  (226) 
1

>  <s_lp_Variant>  (226) 
61:0-1

>  <s_i_glide_gridfile>  (226) 
pfpi4k_grid

>  <i_i_glide_lignum>  (226) 
7

>  <i_i_glide_rotatable_bonds>  (226) 
1

>  <r_i_docking_score>  (226) 
-3.21863

>  <r_i_glide_ligand_efficiency>  (226) 
-0.189331

>  <r_i_glide_ligand_efficiency_sa>  (226) 
-0.486824

>  <r_i_glide_ligand_efficiency_ln>  (226) 
-0.83967

>  <r_i_glide_gscore>  (226) 
-3.21863

>  <r_i_glide_lipo>  (226) 
-0.49344

>  <r_i_glide_hbond>  (226) 
0

>  <r_i_glide_metal>  (226) 
-0

>  <r_i_glide_rewards>  (226) 
-1.78719

>  <r_i_glide_evdw>  (226) 
-18.529

>  <r_i_glide_ecoul>  (226) 
-0.0770533

>  <r_i_glide_erotb>  (226) 
0

>  <r_i_glide_esite>  (226) 
0

>  <r_i_glide_emodel>  (226) 
-22.2838

>  <r_i_glide_energy>  (226) 
-18.606

>  <r_i_glide_einternal>  (226) 
0.831021

>  <r_i_glide_intrahb_reward>  (226) 
-0

>  <i_i_glide_confnum>  (226) 
2

>  <i_i_glide_posenum>  (226) 
7

>  <r_i_glide_eff_state_penalty>  (226) 
0

>  <ligand_id>  (226) 
61

>  <original_smiles>  (226) 
CC(C)N1c2ccncc2Sc2cccnc21

>  <smiles>  (226) 
[H]c1nc2c(c([H])c1[H])Sc1c([H])nc([H])c([H])c1N2C([H])(C([H])([H])[H])C([H])([H])[H]

$$$$
61:0:2
     RDKit          3D

 30 32  0  0  1  0  0  0  0  0999 V2000
    6.9586   -1.3307    0.8395 C   0  0  0  0  0  0  0  0  0  0  0  0
    6.9622   -2.7385    0.2296 C   0  0  0  0  0  0  0  0  0  0  0  0
    7.8334   -2.8685   -1.0431 C   0  0  0  0  0  0  0  0  0  0  0  0
    5.5931   -3.3264    0.1451 N   0  0  0  0  0  0  0  0  0  0  0  0
    5.2453   -4.3486    1.0888 C   0  0  0  0  0  0  0  0  0  0  0  0
    6.1285   -4.8533    2.0942 C   0  0  0  0  0  0  0  0  0  0  0  0
    5.7187   -5.8559    2.9943 C   0  0  0  0  0  0  0  0  0  0  0  0
    4.5038   -6.4198    2.9540 N   0  0  0  0  0  0  0  0  0  0  0  0
    3.6489   -5.9690    2.0212 C   0  0  0  0  0  0  0  0  0  0  0  0
    3.9499   -4.9425    1.1028 C   0  0  0  0  0  0  0  0  0  0  0  0
    2.6421   -4.4507    0.0514 S   0  0  0  0  0  0  0  0  0  0  0  0
    3.3955   -3.2880   -1.0234 C   0  0  0  0  0  0  0  0  0  0  0  0
    2.6141   -2.8008   -2.0868 C   0  0  0  0  0  0  0  0  0  0  0  0
    3.1187   -1.7890   -2.9194 C   0  0  0  0  0  0  0  0  0  0  0  0
    4.3989   -1.3011   -2.6364 C   0  0  0  0  0  0  0  0  0  0  0  0
    5.1646   -1.7859   -1.6378 N   0  0  0  0  0  0  0  0  0  0  0  0
    4.7129   -2.7946   -0.8420 C   0  0  0  0  0  0  0  0  0  0  0  0
    7.9642   -1.0444    1.1577 H   0  0  0  0  0  0  0  0  0  0  0  0
    6.3127   -1.2778    1.7193 H   0  0  0  0  0  0  0  0  0  0  0  0
    6.6198   -0.5681    0.1377 H   0  0  0  0  0  0  0  0  0  0  0  0
    7.5737   -3.3142    0.9006 H   0  0  0  0  0  0  0  0  0  0  0  0
    8.8920   -2.7468   -0.8035 H   0  0  0  0  0  0  0  0  0  0  0  0
    7.6068   -2.1604   -1.8347 H   0  0  0  0  0  0  0  0  0  0  0  0
    7.7199   -3.8512   -1.4771 H   0  0  0  0  0  0  0  0  0  0  0  0
    7.1324   -4.5202    2.2628 H   0  0  0  0  0  0  0  0  0  0  0  0
    6.3893   -6.2151    3.7622 H   0  0  0  0  0  0  0  0  0  0  0  0
    2.6810   -6.4413    2.0241 H   0  0  0  0  0  0  0  0  0  0  0  0
    1.6101   -3.1630   -2.2326 H   0  0  0  0  0  0  0  0  0  0  0  0
    2.5205   -1.3648   -3.7173 H   0  0  0  0  0  0  0  0  0  0  0  0
    4.8250   -0.5096   -3.2349 H   0  0  0  0  0  0  0  0  0  0  0  0
  1  2  1  0
  1 18  1  0
  1 19  1  0
  1 20  1  0
  2  3  1  0
  2  4  1  0
  2 21  1  0
  3 22  1  0
  3 23  1  0
  3 24  1  0
  4 17  1  0
  4  5  1  0
  5 10  2  0
  5  6  1  0
  6  7  2  0
  6 25  1  0
  7  8  1  0
  7 26  1  0
  8  9  2  0
  9 10  1  0
  9 27  1  0
 10 11  1  0
 11 12  1  0
 12 17  2  0
 12 13  1  0
 13 14  2  0
 13 28  1  0
 14 15  1  0
 14 29  1  0
 15 16  2  0
 15 30  1  0
 16 17  1  0
M  END
>  <i_m_ct_stereo_status>  (227) 
1

>  <s_m_source_file>  (227) 
/var/tmp/pbs.5076255.sched01/tmppdndq9e4/92von5zo7h.sdf

>  <i_m_source_file_index>  (227) 
7

>  <i_lp_mmshare_version>  (227) 
48012

>  <i_f3d_flags>  (227) 
0

>  <s_epik_input>  (227) 
W2NIXTFbY0hdW2NIXW5jKE4yW0NIXShbQ0gzXSlbQ0gzXSljMVNjKGMyMylbY0hdbltjSF1bY0hdMw==

>  <s_epik_cmdline>  (227) 
J2VwaWtfcHl0aG9uJywgJy1waHQnLCAnMi4wJywgJy1waCcsICc3LjAnLCAnLXRuJywgJzgnLCAnLW1hJywgJzIwMCcsICctaW1hZScsICc8aW5maWxlLm1hZT4nLCAnLW9tYWUnLCAnPG91dGZpbGUubWFlPic=

>  <r_lp_tautomer_probability>  (227) 
1

>  <r_epik_Ionization_Penalty>  (227) 
0.05919

>  <r_epik_Ionization_Penalty_Charging>  (227) 
0

>  <r_epik_Ionization_Penalty_Neutral>  (227) 
0.05919

>  <r_epik_State_Penalty>  (227) 
0.0470549

>  <r_epik_Charging_Adjusted_Penalty>  (227) 
0.0470549

>  <i_epik_Tot_Q>  (227) 
0

>  <i_epik_Tot_abs_Q>  (227) 
0

>  <s_lp_Force_Field>  (227) 
OPLS3e

>  <r_lp_Energy>  (227) 
51.0182

>  <b_lp_Chiralities_Consistent>  (227) 
1

>  <s_lp_Variant>  (227) 
61:0-1

>  <s_i_glide_gridfile>  (227) 
pfpi4k_grid

>  <i_i_glide_lignum>  (227) 
7

>  <i_i_glide_rotatable_bonds>  (227) 
1

>  <r_i_docking_score>  (227) 
-3.19574

>  <r_i_glide_ligand_efficiency>  (227) 
-0.187985

>  <r_i_glide_ligand_efficiency_sa>  (227) 
-0.483362

>  <r_i_glide_ligand_efficiency_ln>  (227) 
-0.833698

>  <r_i_glide_gscore>  (227) 
-3.19574

>  <r_i_glide_lipo>  (227) 
-0.282955

>  <r_i_glide_hbond>  (227) 
0

>  <r_i_glide_metal>  (227) 
-0

>  <r_i_glide_rewards>  (227) 
-1.82485

>  <r_i_glide_evdw>  (227) 
-21.3811

>  <r_i_glide_ecoul>  (227) 
-0.12589

>  <r_i_glide_erotb>  (227) 
0

>  <r_i_glide_esite>  (227) 
0

>  <r_i_glide_emodel>  (227) 
-24.813

>  <r_i_glide_energy>  (227) 
-21.507

>  <r_i_glide_einternal>  (227) 
1.33342

>  <r_i_glide_intrahb_reward>  (227) 
-0

>  <i_i_glide_confnum>  (227) 
1

>  <i_i_glide_posenum>  (227) 
37

>  <r_i_glide_eff_state_penalty>  (227) 
0

>  <ligand_id>  (227) 
61

>  <original_smiles>  (227) 
CC(C)N1c2ccncc2Sc2cccnc21

>  <smiles>  (227) 
[H]c1nc2c(c([H])c1[H])Sc1c([H])nc([H])c([H])c1N2C([H])(C([H])([H])[H])C([H])([H])[H]

$$$$
61:1:0
     RDKit          3D

 31 33  0  0  1  0  0  0  0  0999 V2000
  -10.6858   -5.4413   -7.8186 C   0  0  0  0  0  0  0  0  0  0  0  0
   -9.2565   -5.1587   -7.3299 C   0  0  0  0  0  0  0  0  0  0  0  0
   -8.6319   -3.9408   -7.9822 C   0  0  0  0  0  0  0  0  0  0  0  0
   -8.2881   -6.2850   -7.2512 N   0  0  0  0  0  0  0  0  0  0  0  0
   -7.4288   -6.2784   -6.1305 C   0  0  0  0  0  0  0  0  0  0  0  0
   -7.4587   -5.2462   -5.1330 C   0  0  0  0  0  0  0  0  0  0  0  0
   -6.6120   -5.2994   -4.0204 C   0  0  0  0  0  0  0  0  0  0  0  0
   -5.7804   -6.3287   -3.9013 N   0  0  0  0  0  0  0  0  0  0  0  0
   -5.6559   -7.3088   -4.7950 C   0  0  0  0  0  0  0  0  0  0  0  0
   -6.4768   -7.3175   -5.9230 C   0  0  0  0  0  0  0  0  0  0  0  0
   -6.2501   -8.6836   -6.9861 S   0  0  0  0  0  0  0  0  0  0  0  0
   -7.3915   -8.3788   -8.2732 C   0  0  0  0  0  0  0  0  0  0  0  0
   -7.4547   -9.3505   -9.2752 C   0  0  0  0  0  0  0  0  0  0  0  0
   -8.3723   -9.1719  -10.3169 C   0  0  0  0  0  0  0  0  0  0  0  0
   -9.1274   -7.9857  -10.3285 C   0  0  0  0  0  0  0  0  0  0  0  0
   -9.0172   -7.0245   -9.3897 N   0  0  0  0  0  0  0  0  0  0  0  0
   -8.2176   -7.2239   -8.3191 C   0  0  0  0  0  0  0  0  0  0  0  0
  -11.3598   -4.6548   -7.4534 H   0  0  0  0  0  0  0  0  0  0  0  0
  -11.0484   -6.3875   -7.4309 H   0  0  0  0  0  0  0  0  0  0  0  0
  -10.8035   -5.4451   -8.9061 H   0  0  0  0  0  0  0  0  0  0  0  0
   -9.5237   -4.8872   -6.3242 H   0  0  0  0  0  0  0  0  0  0  0  0
   -9.3068   -3.0884   -7.8619 H   0  0  0  0  0  0  0  0  0  0  0  0
   -8.4683   -4.1205   -9.0430 H   0  0  0  0  0  0  0  0  0  0  0  0
   -7.6757   -3.6438   -7.5476 H   0  0  0  0  0  0  0  0  0  0  0  0
   -8.1110   -4.3881   -5.1309 H   0  0  0  0  0  0  0  0  0  0  0  0
   -6.6090   -4.5960   -3.2021 H   0  0  0  0  0  0  0  0  0  0  0  0
   -4.9341   -8.0775   -4.5795 H   0  0  0  0  0  0  0  0  0  0  0  0
   -6.7837  -10.2156   -9.2626 H   0  0  0  0  0  0  0  0  0  0  0  0
   -8.4638   -9.9156  -11.0968 H   0  0  0  0  0  0  0  0  0  0  0  0
   -9.8604   -7.8184  -11.0910 H   0  0  0  0  0  0  0  0  0  0  0  0
   -5.1956   -6.3841   -3.0605 H   0  0  0  0  0  0  0  0  0  0  0  0
  1  2  1  0
  1 18  1  0
  1 19  1  0
  1 20  1  0
  2  3  1  0
  2  4  1  0
  2 21  1  0
  3 22  1  0
  3 23  1  0
  3 24  1  0
  4 17  1  0
  4  5  1  0
  5 10  2  0
  5  6  1  0
  6  7  2  0
  6 25  1  0
  7  8  1  0
  7 26  1  0
  8  9  2  0
  8 31  1  0
  9 10  1  0
  9 27  1  0
 10 11  1  0
 11 12  1  0
 12 17  2  0
 12 13  1  0
 13 14  2  0
 13 28  1  0
 14 15  1  0
 14 29  1  0
 15 16  2  0
 15 30  1  0
 16 17  1  0
M  CHG  1   8   1
M  END
>  <i_m_ct_stereo_status>  (228) 
1

>  <s_m_source_file>  (228) 
/var/tmp/pbs.5076255.sched01/tmppdndq9e4/92von5zo7h.sdf

>  <i_m_source_file_index>  (228) 
8

>  <i_lp_mmshare_version>  (228) 
48012

>  <i_f3d_flags>  (228) 
0

>  <s_epik_input>  (228) 
W2NIXTFbY0hdW2NIXW5jKE4yW0NIXShbQ0gzXSlbQ0gzXSljMVNjKGMyMylbY0hdbltjSF1bY0hdMw==

>  <s_epik_cmdline>  (228) 
J2VwaWtfcHl0aG9uJywgJy1waHQnLCAnMi4wJywgJy1waCcsICc3LjAnLCAnLXRuJywgJzgnLCAnLW1hJywgJzIwMCcsICctaW1hZScsICc8aW5maWxlLm1hZT4nLCAnLW9tYWUnLCAnPG91dGZpbGUubWFlPic=

>  <r_lp_tautomer_probability>  (228) 
1

>  <r_epik_Ionization_Penalty>  (228) 
1.4392

>  <r_epik_Ionization_Penalty_Charging>  (228) 
1.43892

>  <r_epik_Ionization_Penalty_Neutral>  (228) 
0.000288751

>  <r_epik_State_Penalty>  (228) 
1.52415

>  <r_epik_Charging_Adjusted_Penalty>  (228) 
2.96306

>  <i_epik_Tot_Q>  (228) 
1

>  <i_epik_Tot_abs_Q>  (228) 
1

>  <s_lp_Force_Field>  (228) 
OPLS3e

>  <r_lp_Energy>  (228) 
55.8363

>  <b_lp_Chiralities_Consistent>  (228) 
1

>  <s_lp_Variant>  (228) 
61:0-2

>  <s_i_glide_gridfile>  (228) 
pfpi4k_grid

>  <i_i_glide_lignum>  (228) 
8

>  <i_i_glide_rotatable_bonds>  (228) 
1

>  <r_i_docking_score>  (228) 
-6.08515

>  <r_i_glide_ligand_efficiency>  (228) 
-0.35795

>  <r_i_glide_ligand_efficiency_sa>  (228) 
-0.92039

>  <r_i_glide_ligand_efficiency_ln>  (228) 
-1.58748

>  <r_i_glide_gscore>  (228) 
-6.08515

>  <r_i_glide_lipo>  (228) 
-2.51792

>  <r_i_glide_hbond>  (228) 
0

>  <r_i_glide_metal>  (228) 
-0

>  <r_i_glide_rewards>  (228) 
-2.289

>  <r_i_glide_evdw>  (228) 
-22.9649

>  <r_i_glide_ecoul>  (228) 
-0.866552

>  <r_i_glide_erotb>  (228) 
0

>  <r_i_glide_esite>  (228) 
0

>  <r_i_glide_emodel>  (228) 
-30.8889

>  <r_i_glide_energy>  (228) 
-23.8315

>  <r_i_glide_einternal>  (228) 
8.23325

>  <r_i_glide_intrahb_reward>  (228) 
-0

>  <i_i_glide_confnum>  (228) 
1

>  <i_i_glide_posenum>  (228) 
4

>  <r_i_glide_eff_state_penalty>  (228) 
0

>  <ligand_id>  (228) 
61

>  <original_smiles>  (228) 
CC(C)N1c2ccncc2Sc2cccnc21

>  <smiles>  (228) 
[H]c1nc2c(c([H])c1[H])Sc1c(c([H])c([H])[n+]([H])c1[H])N2C([H])(C([H])([H])[H])C([H])([H])[H]

$$$$
61:1:1
     RDKit          3D

 31 33  0  0  1  0  0  0  0  0999 V2000
  -10.7075   -7.8108   -8.5713 C   0  0  0  0  0  0  0  0  0  0  0  0
   -9.5131   -6.8388   -8.7045 C   0  0  0  0  0  0  0  0  0  0  0  0
   -9.0510   -6.5940  -10.1569 C   0  0  0  0  0  0  0  0  0  0  0  0
   -8.3914   -7.1018   -7.7528 N   0  0  0  0  0  0  0  0  0  0  0  0
   -8.1259   -6.1264   -6.7366 C   0  0  0  0  0  0  0  0  0  0  0  0
   -8.8727   -4.9126   -6.5802 C   0  0  0  0  0  0  0  0  0  0  0  0
   -8.5730   -3.9941   -5.5562 C   0  0  0  0  0  0  0  0  0  0  0  0
   -7.5671   -4.2485   -4.7039 N   0  0  0  0  0  0  0  0  0  0  0  0
   -6.8224   -5.3594   -4.7820 C   0  0  0  0  0  0  0  0  0  0  0  0
   -7.0774   -6.3130   -5.7873 C   0  0  0  0  0  0  0  0  0  0  0  0
   -6.0158   -7.7036   -5.7573 S   0  0  0  0  0  0  0  0  0  0  0  0
   -6.5934   -8.6960   -7.0682 C   0  0  0  0  0  0  0  0  0  0  0  0
   -5.9233   -9.9197   -7.2703 C   0  0  0  0  0  0  0  0  0  0  0  0
   -6.3309  -10.7602   -8.3190 C   0  0  0  0  0  0  0  0  0  0  0  0
   -7.4034  -10.3320   -9.1172 C   0  0  0  0  0  0  0  0  0  0  0  0
   -8.0391   -9.1621   -8.9190 N   0  0  0  0  0  0  0  0  0  0  0  0
   -7.6715   -8.3268   -7.9130 C   0  0  0  0  0  0  0  0  0  0  0  0
  -11.6053   -7.3831   -9.0208 H   0  0  0  0  0  0  0  0  0  0  0  0
  -10.9423   -8.0063   -7.5245 H   0  0  0  0  0  0  0  0  0  0  0  0
  -10.5384   -8.7674   -9.0623 H   0  0  0  0  0  0  0  0  0  0  0  0
  -10.0039   -5.9074   -8.4904 H   0  0  0  0  0  0  0  0  0  0  0  0
   -9.8283   -6.0833  -10.7268 H   0  0  0  0  0  0  0  0  0  0  0  0
   -8.8236   -7.5154  -10.6904 H   0  0  0  0  0  0  0  0  0  0  0  0
   -8.1610   -5.9640  -10.1812 H   0  0  0  0  0  0  0  0  0  0  0  0
   -9.6992   -4.6049   -7.1883 H   0  0  0  0  0  0  0  0  0  0  0  0
   -9.1087   -3.0655   -5.4053 H   0  0  0  0  0  0  0  0  0  0  0  0
   -6.0419   -5.4605   -4.0407 H   0  0  0  0  0  0  0  0  0  0  0  0
   -5.0981  -10.2034   -6.6337 H   0  0  0  0  0  0  0  0  0  0  0  0
   -5.8355  -11.7000   -8.5114 H   0  0  0  0  0  0  0  0  0  0  0  0
   -7.7533  -10.9312   -9.9468 H   0  0  0  0  0  0  0  0  0  0  0  0
   -7.3610   -3.5670   -3.9693 H   0  0  0  0  0  0  0  0  0  0  0  0
  1  2  1  0
  1 18  1  0
  1 19  1  0
  1 20  1  0
  2  3  1  0
  2  4  1  0
  2 21  1  0
  3 22  1  0
  3 23  1  0
  3 24  1  0
  4 17  1  0
  4  5  1  0
  5 10  2  0
  5  6  1  0
  6  7  2  0
  6 25  1  0
  7  8  1  0
  7 26  1  0
  8  9  2  0
  8 31  1  0
  9 10  1  0
  9 27  1  0
 10 11  1  0
 11 12  1  0
 12 17  2  0
 12 13  1  0
 13 14  2  0
 13 28  1  0
 14 15  1  0
 14 29  1  0
 15 16  2  0
 15 30  1  0
 16 17  1  0
M  CHG  1   8   1
M  END
>  <i_m_ct_stereo_status>  (229) 
1

>  <s_m_source_file>  (229) 
/var/tmp/pbs.5076255.sched01/tmppdndq9e4/92von5zo7h.sdf

>  <i_m_source_file_index>  (229) 
8

>  <i_lp_mmshare_version>  (229) 
48012

>  <i_f3d_flags>  (229) 
0

>  <s_epik_input>  (229) 
W2NIXTFbY0hdW2NIXW5jKE4yW0NIXShbQ0gzXSlbQ0gzXSljMVNjKGMyMylbY0hdbltjSF1bY0hdMw==

>  <s_epik_cmdline>  (229) 
J2VwaWtfcHl0aG9uJywgJy1waHQnLCAnMi4wJywgJy1waCcsICc3LjAnLCAnLXRuJywgJzgnLCAnLW1hJywgJzIwMCcsICctaW1hZScsICc8aW5maWxlLm1hZT4nLCAnLW9tYWUnLCAnPG91dGZpbGUubWFlPic=

>  <r_lp_tautomer_probability>  (229) 
1

>  <r_epik_Ionization_Penalty>  (229) 
1.4392

>  <r_epik_Ionization_Penalty_Charging>  (229) 
1.43892

>  <r_epik_Ionization_Penalty_Neutral>  (229) 
0.000288751

>  <r_epik_State_Penalty>  (229) 
1.52415

>  <r_epik_Charging_Adjusted_Penalty>  (229) 
2.96306

>  <i_epik_Tot_Q>  (229) 
1

>  <i_epik_Tot_abs_Q>  (229) 
1

>  <s_lp_Force_Field>  (229) 
OPLS3e

>  <r_lp_Energy>  (229) 
55.8363

>  <b_lp_Chiralities_Consistent>  (229) 
1

>  <s_lp_Variant>  (229) 
61:0-2

>  <s_i_glide_gridfile>  (229) 
pfpi4k_grid

>  <i_i_glide_lignum>  (229) 
8

>  <i_i_glide_rotatable_bonds>  (229) 
1

>  <r_i_docking_score>  (229) 
-6.08116

>  <r_i_glide_ligand_efficiency>  (229) 
-0.357715

>  <r_i_glide_ligand_efficiency_sa>  (229) 
-0.919786

>  <r_i_glide_ligand_efficiency_ln>  (229) 
-1.58644

>  <r_i_glide_gscore>  (229) 
-6.08116

>  <r_i_glide_lipo>  (229) 
-2.51411

>  <r_i_glide_hbond>  (229) 
0

>  <r_i_glide_metal>  (229) 
-0

>  <r_i_glide_rewards>  (229) 
-2.25714

>  <r_i_glide_evdw>  (229) 
-26.638

>  <r_i_glide_ecoul>  (229) 
0.146634

>  <r_i_glide_erotb>  (229) 
0

>  <r_i_glide_esite>  (229) 
0

>  <r_i_glide_emodel>  (229) 
-38.2076

>  <r_i_glide_energy>  (229) 
-26.4914

>  <r_i_glide_einternal>  (229) 
0.809314

>  <r_i_glide_intrahb_reward>  (229) 
-0

>  <i_i_glide_confnum>  (229) 
2

>  <i_i_glide_posenum>  (229) 
17

>  <r_i_glide_eff_state_penalty>  (229) 
0

>  <ligand_id>  (229) 
61

>  <original_smiles>  (229) 
CC(C)N1c2ccncc2Sc2cccnc21

>  <smiles>  (229) 
[H]c1nc2c(c([H])c1[H])Sc1c(c([H])c([H])[n+]([H])c1[H])N2C([H])(C([H])([H])[H])C([H])([H])[H]

$$$$
61:1:2
     RDKit          3D

 31 33  0  0  1  0  0  0  0  0999 V2000
    3.2467    3.7785    4.9502 C   0  0  0  0  0  0  0  0  0  0  0  0
    2.4311    2.7604    5.7875 C   0  0  0  0  0  0  0  0  0  0  0  0
    3.0798    1.3607    5.9342 C   0  0  0  0  0  0  0  0  0  0  0  0
    0.9692    2.7291    5.4704 N   0  0  0  0  0  0  0  0  0  0  0  0
    0.5671    2.2497    4.1857 C   0  0  0  0  0  0  0  0  0  0  0  0
    1.4912    1.7837    3.2008 C   0  0  0  0  0  0  0  0  0  0  0  0
    1.0555    1.3071    1.9519 C   0  0  0  0  0  0  0  0  0  0  0  0
   -0.2551    1.2744    1.6765 N   0  0  0  0  0  0  0  0  0  0  0  0
   -1.1842    1.7047    2.5420 C   0  0  0  0  0  0  0  0  0  0  0  0
   -0.8051    2.1937    3.8062 C   0  0  0  0  0  0  0  0  0  0  0  0
   -2.1239    2.7075    4.8315 S   0  0  0  0  0  0  0  0  0  0  0  0
   -1.3401    3.1943    6.3102 C   0  0  0  0  0  0  0  0  0  0  0  0
   -2.1835    3.6366    7.3503 C   0  0  0  0  0  0  0  0  0  0  0  0
   -1.6223    4.0803    8.5571 C   0  0  0  0  0  0  0  0  0  0  0  0
   -0.2218    4.0418    8.6721 C   0  0  0  0  0  0  0  0  0  0  0  0
    0.5821    3.6046    7.6788 N   0  0  0  0  0  0  0  0  0  0  0  0
    0.0715    3.1776    6.4930 C   0  0  0  0  0  0  0  0  0  0  0  0
    4.1858    4.0090    5.4516 H   0  0  0  0  0  0  0  0  0  0  0  0
    2.6942    4.7116    4.8375 H   0  0  0  0  0  0  0  0  0  0  0  0
    3.5291    3.4530    3.9515 H   0  0  0  0  0  0  0  0  0  0  0  0
    2.5877    3.1586    6.7870 H   0  0  0  0  0  0  0  0  0  0  0  0
    4.0131    1.4346    6.4911 H   0  0  0  0  0  0  0  0  0  0  0  0
    3.3362    0.8676    4.9996 H   0  0  0  0  0  0  0  0  0  0  0  0
    2.4261    0.6841    6.4859 H   0  0  0  0  0  0  0  0  0  0  0  0
    2.5498    1.7739    3.3422 H   0  0  0  0  0  0  0  0  0  0  0  0
    1.7131    0.9705    1.1563 H   0  0  0  0  0  0  0  0  0  0  0  0
   -2.2072    1.6602    2.1927 H   0  0  0  0  0  0  0  0  0  0  0  0
   -3.2508    3.6465    7.2150 H   0  0  0  0  0  0  0  0  0  0  0  0
   -2.2386    4.4378    9.3713 H   0  0  0  0  0  0  0  0  0  0  0  0
    0.2677    4.3686    9.5796 H   0  0  0  0  0  0  0  0  0  0  0  0
   -0.5541    0.9570    0.7331 H   0  0  0  0  0  0  0  0  0  0  0  0
  1  2  1  0
  1 18  1  0
  1 19  1  0
  1 20  1  0
  2  3  1  0
  2  4  1  0
  2 21  1  0
  3 22  1  0
  3 23  1  0
  3 24  1  0
  4 17  1  0
  4  5  1  0
  5 10  2  0
  5  6  1  0
  6  7  2  0
  6 25  1  0
  7  8  1  0
  7 26  1  0
  8  9  2  0
  8 31  1  0
  9 10  1  0
  9 27  1  0
 10 11  1  0
 11 12  1  0
 12 17  2  0
 12 13  1  0
 13 14  2  0
 13 28  1  0
 14 15  1  0
 14 29  1  0
 15 16  2  0
 15 30  1  0
 16 17  1  0
M  CHG  1   8   1
M  END
>  <i_m_ct_stereo_status>  (230) 
1

>  <s_m_source_file>  (230) 
/var/tmp/pbs.5076255.sched01/tmppdndq9e4/92von5zo7h.sdf

>  <i_m_source_file_index>  (230) 
8

>  <i_lp_mmshare_version>  (230) 
48012

>  <i_f3d_flags>  (230) 
0

>  <s_epik_input>  (230) 
W2NIXTFbY0hdW2NIXW5jKE4yW0NIXShbQ0gzXSlbQ0gzXSljMVNjKGMyMylbY0hdbltjSF1bY0hdMw==

>  <s_epik_cmdline>  (230) 
J2VwaWtfcHl0aG9uJywgJy1waHQnLCAnMi4wJywgJy1waCcsICc3LjAnLCAnLXRuJywgJzgnLCAnLW1hJywgJzIwMCcsICctaW1hZScsICc8aW5maWxlLm1hZT4nLCAnLW9tYWUnLCAnPG91dGZpbGUubWFlPic=

>  <r_lp_tautomer_probability>  (230) 
1

>  <r_epik_Ionization_Penalty>  (230) 
1.4392

>  <r_epik_Ionization_Penalty_Charging>  (230) 
1.43892

>  <r_epik_Ionization_Penalty_Neutral>  (230) 
0.000288751

>  <r_epik_State_Penalty>  (230) 
1.52415

>  <r_epik_Charging_Adjusted_Penalty>  (230) 
2.96306

>  <i_epik_Tot_Q>  (230) 
1

>  <i_epik_Tot_abs_Q>  (230) 
1

>  <s_lp_Force_Field>  (230) 
OPLS3e

>  <r_lp_Energy>  (230) 
55.8363

>  <b_lp_Chiralities_Consistent>  (230) 
1

>  <s_lp_Variant>  (230) 
61:0-2

>  <s_i_glide_gridfile>  (230) 
pfpi4k_grid

>  <i_i_glide_lignum>  (230) 
8

>  <i_i_glide_rotatable_bonds>  (230) 
1

>  <r_i_docking_score>  (230) 
-3.80437

>  <r_i_glide_ligand_efficiency>  (230) 
-0.223786

>  <r_i_glide_ligand_efficiency_sa>  (230) 
-0.575418

>  <r_i_glide_ligand_efficiency_ln>  (230) 
-0.992475

>  <r_i_glide_gscore>  (230) 
-3.80437

>  <r_i_glide_lipo>  (230) 
-0.109158

>  <r_i_glide_hbond>  (230) 
-0.2

>  <r_i_glide_metal>  (230) 
-0

>  <r_i_glide_rewards>  (230) 
-1.74316

>  <r_i_glide_evdw>  (230) 
-15.8249

>  <r_i_glide_ecoul>  (230) 
-5.78285

>  <r_i_glide_erotb>  (230) 
0

>  <r_i_glide_esite>  (230) 
-0.0933779

>  <r_i_glide_emodel>  (230) 
-29.0836

>  <r_i_glide_energy>  (230) 
-21.6077

>  <r_i_glide_einternal>  (230) 
0.00698852

>  <r_i_glide_intrahb_reward>  (230) 
-0

>  <i_i_glide_confnum>  (230) 
1

>  <i_i_glide_posenum>  (230) 
16

>  <r_i_glide_eff_state_penalty>  (230) 
0

>  <ligand_id>  (230) 
61

>  <original_smiles>  (230) 
CC(C)N1c2ccncc2Sc2cccnc21

>  <smiles>  (230) 
[H]c1nc2c(c([H])c1[H])Sc1c(c([H])c([H])[n+]([H])c1[H])N2C([H])(C([H])([H])[H])C([H])([H])[H]

$$$$
62:0:0
     RDKit          3D

 65 72  0  0  1  0  0  0  0  0999 V2000
    2.4652   -3.4587    5.6917 C   0  0  0  0  0  0  0  0  0  0  0  0
    3.8020   -4.1328    5.2858 C   0  0  0  0  0  0  0  0  0  0  0  0
    4.8334   -3.9384    5.9588 O   0  0  0  0  0  0  0  0  0  0  0  0
    3.8499   -4.9393    4.1674 O   0  0  0  0  0  0  0  0  0  0  0  0
    2.7766   -5.2947    3.2744 C   0  0  1  0  0  0  0  0  0  0  0  0
    2.2016   -3.9671    2.7692 C   0  0  0  0  0  0  0  0  0  0  0  0
    2.8438   -3.1681    1.8920 C   0  0  0  0  0  0  0  0  0  0  0  0
    4.1834   -3.5379    1.2539 C   0  0  1  0  0  0  0  0  0  0  0  0
    4.6236   -5.0149    1.4874 C   0  0  2  0  0  0  0  0  0  0  0  0
    5.3114   -5.4319    0.1754 C   0  0  0  0  0  0  0  0  0  0  0  0
    5.4937   -4.1379   -0.6075 C   0  0  0  0  0  0  0  0  0  0  0  0
    4.3566   -3.2528   -0.2138 N   0  0  1  0  0  0  0  0  0  0  0  0
    3.1392   -3.3603   -1.0858 C   0  0  0  0  0  0  0  0  0  0  0  0
    3.4116   -3.0065   -2.5469 C   0  0  0  0  0  0  0  0  0  0  0  0
    3.0606   -1.6459   -3.0853 C   0  0  0  0  0  0  0  0  0  0  0  0
    2.2588   -2.8520   -3.5034 C   0  0  0  0  0  0  0  0  0  0  0  0
    3.4631   -5.9539    1.9813 C   0  0  2  0  0  0  0  0  0  0  0  0
    2.5598   -5.9495    0.8870 O   0  0  0  0  0  0  0  0  0  0  0  0
    3.8431   -7.4576    2.1512 C   0  0  0  0  0  0  0  0  0  0  0  0
    2.7833   -8.2689    2.9218 C   0  0  1  0  0  0  0  0  0  0  0  0
    3.1649   -9.5699    3.7002 C   0  0  2  0  0  0  0  0  0  0  0  0
    2.6457  -10.8683    3.1147 C   0  0  0  0  0  0  0  0  0  0  0  0
    1.3236  -10.8255    3.0236 C   0  0  0  0  0  0  0  0  0  0  0  0
    0.8485   -9.4575    3.4037 C   0  0  1  0  0  0  0  0  0  0  0  0
    1.8973   -9.0599    4.4305 C   0  0  2  0  0  0  0  0  0  0  0  0
    2.5296   -7.6555    4.2914 C   0  0  1  0  0  0  0  0  0  0  0  0
    3.5815   -7.4509    5.2198 O   0  0  0  0  0  0  0  0  0  0  0  0
    1.8253   -6.2862    4.1178 C   0  0  2  0  0  0  0  0  0  0  0  0
    0.4216   -6.4477    3.5048 C   0  0  0  0  0  0  0  0  0  0  0  0
    0.3399   -7.3408    2.2579 C   0  0  0  0  0  0  0  0  0  0  0  0
    1.3478   -8.5094    2.2966 C   0  0  1  0  0  0  0  0  0  0  0  0
    1.6475   -4.1468    5.7756 H   0  0  0  0  0  0  0  0  0  0  0  0
    2.2249   -2.6755    4.9426 H   0  0  0  0  0  0  0  0  0  0  0  0
    2.5824   -2.9220    6.6544 H   0  0  0  0  0  0  0  0  0  0  0  0
    1.2372   -3.6667    3.1364 H   0  0  0  0  0  0  0  0  0  0  0  0
    2.4438   -2.2014    1.6168 H   0  0  0  0  0  0  0  0  0  0  0  0
    4.9232   -2.9038    1.7490 H   0  0  0  0  0  0  0  0  0  0  0  0
    5.4099   -4.9939    2.2387 H   0  0  0  0  0  0  0  0  0  0  0  0
    6.2731   -5.9102    0.3398 H   0  0  0  0  0  0  0  0  0  0  0  0
    4.6973   -6.1074   -0.4196 H   0  0  0  0  0  0  0  0  0  0  0  0
    6.4084   -3.6330   -0.2800 H   0  0  0  0  0  0  0  0  0  0  0  0
    5.5904   -4.3272   -1.6731 H   0  0  0  0  0  0  0  0  0  0  0  0
    2.7329   -4.3661   -1.0404 H   0  0  0  0  0  0  0  0  0  0  0  0
    2.3686   -2.6906   -0.6857 H   0  0  0  0  0  0  0  0  0  0  0  0
    4.2451   -3.5381   -3.0102 H   0  0  0  0  0  0  0  0  0  0  0  0
    2.6041   -0.9377   -2.3914 H   0  0  0  0  0  0  0  0  0  0  0  0
    3.7586   -1.2282   -3.8036 H   0  0  0  0  0  0  0  0  0  0  0  0
    2.4120   -3.2206   -4.5121 H   0  0  0  0  0  0  0  0  0  0  0  0
    1.2517   -2.9780   -3.1052 H   0  0  0  0  0  0  0  0  0  0  0  0
    3.0114   -6.2863    0.1321 H   0  0  0  0  0  0  0  0  0  0  0  0
    4.0885   -7.9276    1.1966 H   0  0  0  0  0  0  0  0  0  0  0  0
    4.7658   -7.4667    2.7416 H   0  0  0  0  0  0  0  0  0  0  0  0
    4.0869   -9.6017    4.2853 H   0  0  0  0  0  0  0  0  0  0  0  0
    3.2747  -11.6826    2.7891 H   0  0  0  0  0  0  0  0  0  0  0  0
    0.6898  -11.5883    2.6058 H   0  0  0  0  0  0  0  0  0  0  0  0
   -0.1937   -9.4076    3.7350 H   0  0  0  0  0  0  0  0  0  0  0  0
    1.7855   -9.4676    5.4398 H   0  0  0  0  0  0  0  0  0  0  0  0
    3.9645   -8.2940    5.4033 H   0  0  0  0  0  0  0  0  0  0  0  0
    1.6445   -5.9566    5.1138 H   0  0  0  0  0  0  0  0  0  0  0  0
   -0.2191   -6.8722    4.2711 H   0  0  0  0  0  0  0  0  0  0  0  0
    0.0071   -5.4715    3.3020 H   0  0  0  0  0  0  0  0  0  0  0  0
   -0.6738   -7.7411    2.2036 H   0  0  0  0  0  0  0  0  0  0  0  0
    0.4197   -6.7511    1.3547 H   0  0  0  0  0  0  0  0  0  0  0  0
    1.4118   -8.9797    1.3089 H   0  0  0  0  0  0  0  0  0  0  0  0
    4.6509   -2.2772   -0.2995 H   0  0  0  0  0  0  0  0  0  0  0  0
  1  2  1  0
  1 32  1  0
  1 33  1  0
  1 34  1  0
  2  3  2  0
  2  4  1  0
  5  4  1  1
  5 17  1  0
  5 28  1  0
  5  6  1  0
  6  7  2  0
  6 35  1  0
  7  8  1  0
  7 36  1  0
  8 12  1  0
  8  9  1  0
  8 37  1  1
  9 10  1  0
  9 17  1  0
  9 38  1  1
 10 11  1  0
 10 39  1  0
 10 40  1  0
 11 12  1  0
 11 41  1  0
 11 42  1  0
 12 13  1  0
 12 65  1  1
 13 14  1  0
 13 43  1  0
 13 44  1  0
 14 16  1  0
 14 15  1  0
 14 45  1  0
 15 16  1  0
 15 46  1  0
 15 47  1  0
 16 48  1  0
 16 49  1  0
 17 18  1  6
 17 19  1  0
 18 50  1  0
 20 19  1  6
 19 51  1  0
 19 52  1  0
 20 26  1  0
 20 31  1  0
 20 21  1  0
 21 25  1  0
 21 22  1  0
 21 53  1  1
 22 23  2  0
 22 54  1  0
 23 24  1  0
 23 55  1  0
 24 31  1  0
 24 25  1  0
 24 56  1  1
 25 26  1  0
 25 57  1  1
 26 27  1  1
 26 28  1  0
 27 58  1  0
 28 29  1  0
 28 59  1  1
 29 30  1  0
 29 60  1  0
 29 61  1  0
 30 31  1  0
 30 62  1  0
 30 63  1  0
 31 64  1  6
M  CHG  1  12   1
M  END
>  <i_m_ct_stereo_status>  (231) 
1

>  <s_m_source_file>  (231) 
/var/tmp/pbs.5076255.sched01/tmppdndq9e4/92von5zo7h.sdf

>  <i_m_source_file_index>  (231) 
9

>  <i_lp_mmshare_version>  (231) 
48012

>  <i_f3d_flags>  (231) 
0

>  <s_epik_input>  (231) 
W0NAQF0xMjNbQ0BIXTRbQ0BASF01W0NASF0oW0NIXT1bQ0hdNClbQ0BIXTNbQ0gyXVtDSDJdW0NIXShbQ0BdMjVbT0hdKVtDQEBdNihPQyg9TylbQ0gzXSlbQ0BdKFtPSF0pKFtDSDJdMSlbQ0BASF03W0NASF0oW0NIXT1bQ0hdNilOKFtDSDJdW0NIMl03KVtDSDJdW0NIXThbQ0gyXVtDSDJdOA==

>  <s_epik_cmdline>  (231) 
J2VwaWtfcHl0aG9uJywgJy1waHQnLCAnMi4wJywgJy1waCcsICc3LjAnLCAnLXRuJywgJzgnLCAnLW1hJywgJzIwMCcsICctaW1hZScsICc8aW5maWxlLm1hZT4nLCAnLW9tYWUnLCAnPG91dGZpbGUubWFlPic=

>  <r_epik_Ionization_Penalty>  (231) 
0.00374318

>  <r_epik_Ionization_Penalty_Charging>  (231) 
0.00374235

>  <r_epik_Ionization_Penalty_Neutral>  (231) 
8.27347e-07

>  <r_epik_State_Penalty>  (231) 
0.00266738

>  <r_epik_Charging_Adjusted_Penalty>  (231) 
0.00640973

>  <i_epik_Tot_Q>  (231) 
1

>  <i_epik_Tot_abs_Q>  (231) 
1

>  <s_epik_Chemistry_Notes>  (231) 
This compound has an ester and may undergo hydrolysis at high or low pH.

>  <s_lp_Force_Field>  (231) 
OPLS3e

>  <r_lp_Energy>  (231) 
116.554

>  <b_lp_Chiralities_Consistent>  (231) 
1

>  <s_lp_Variant>  (231) 
62:0-1

>  <s_i_glide_gridfile>  (231) 
pfpi4k_grid

>  <i_i_glide_lignum>  (231) 
9

>  <i_i_glide_rotatable_bonds>  (231) 
6

>  <r_i_docking_score>  (231) 
-3.12283

>  <r_i_glide_ligand_efficiency>  (231) 
-0.100737

>  <r_i_glide_ligand_efficiency_sa>  (231) 
-0.316452

>  <r_i_glide_ligand_efficiency_ln>  (231) 
-0.704294

>  <r_i_glide_gscore>  (231) 
-3.12283

>  <r_i_glide_lipo>  (231) 
-0.685786

>  <r_i_glide_hbond>  (231) 
0

>  <r_i_glide_metal>  (231) 
-0

>  <r_i_glide_rewards>  (231) 
-0.514415

>  <r_i_glide_evdw>  (231) 
-30.4982

>  <r_i_glide_ecoul>  (231) 
-4.85175

>  <r_i_glide_erotb>  (231) 
0.33004

>  <r_i_glide_esite>  (231) 
0

>  <r_i_glide_emodel>  (231) 
-38.9981

>  <r_i_glide_energy>  (231) 
-35.35

>  <r_i_glide_einternal>  (231) 
5.06769

>  <r_i_glide_intrahb_reward>  (231) 
-0

>  <i_i_glide_confnum>  (231) 
4

>  <i_i_glide_posenum>  (231) 
2

>  <r_i_glide_eff_state_penalty>  (231) 
0

>  <ligand_id>  (231) 
62

>  <original_smiles>  (231) 
CC(=O)OC12C=CC3C(CCN3CC3CC3)C1(O)CC13C4C=CC5C4C1(O)C2CCC53

>  <smiles>  (231) 
[H]OC12C([H])([H])C34C5([H])C([H])=C([H])C6([H])C5([H])C3(O[H])C([H])(C([H])([H])C([H])([H])C64[H])C1(OC(=O)C([H])([H])[H])C([H])=C([H])C1([H])C2([H])C([H])([H])C([H])([H])[N+]1([H])C([H])([H])C1([H])C([H])([H])C1([H])[H]

$$$$
62:0:1
     RDKit          3D

 65 72  0  0  1  0  0  0  0  0999 V2000
    6.4090   -9.4067    4.8086 C   0  0  0  0  0  0  0  0  0  0  0  0
    5.4805   -8.2518    5.1471 C   0  0  0  0  0  0  0  0  0  0  0  0
    5.5040   -7.7175    6.2589 O   0  0  0  0  0  0  0  0  0  0  0  0
    4.6711   -7.9191    4.1033 O   0  0  0  0  0  0  0  0  0  0  0  0
    3.6789   -6.8698    4.1325 C   0  0  1  0  0  0  0  0  0  0  0  0
    4.3988   -5.5785    4.5693 C   0  0  0  0  0  0  0  0  0  0  0  0
    5.2306   -4.9081    3.7376 C   0  0  0  0  0  0  0  0  0  0  0  0
    5.5108   -5.3560    2.3020 C   0  0  1  0  0  0  0  0  0  0  0  0
    4.5670   -6.4677    1.7580 C   0  0  2  0  0  0  0  0  0  0  0  0
    4.3735   -6.1221    0.2660 C   0  0  0  0  0  0  0  0  0  0  0  0
    5.3963   -5.0274   -0.0224 C   0  0  0  0  0  0  0  0  0  0  0  0
    5.5920   -4.2949    1.2545 N   0  0  1  0  0  0  0  0  0  0  0  0
    4.6919   -3.1164    1.3946 C   0  0  0  0  0  0  0  0  0  0  0  0
    5.1062   -1.9601    0.4943 C   0  0  0  0  0  0  0  0  0  0  0  0
    5.8102   -0.7539    1.0744 C   0  0  0  0  0  0  0  0  0  0  0  0
    4.3890   -0.6327    0.6034 C   0  0  0  0  0  0  0  0  0  0  0  0
    3.2666   -6.6485    2.6151 C   0  0  2  0  0  0  0  0  0  0  0  0
    2.6076   -5.4092    2.4249 O   0  0  0  0  0  0  0  0  0  0  0  0
    2.2577   -7.6991    2.0671 C   0  0  0  0  0  0  0  0  0  0  0  0
    1.1617   -8.0674    3.0778 C   0  0  1  0  0  0  0  0  0  0  0  0
    0.4149   -9.4317    2.9998 C   0  0  2  0  0  0  0  0  0  0  0  0
   -1.0268   -9.3816    2.5206 C   0  0  0  0  0  0  0  0  0  0  0  0
   -1.7341   -8.5757    3.3090 C   0  0  0  0  0  0  0  0  0  0  0  0
   -0.7979   -7.9358    4.2952 C   0  0  1  0  0  0  0  0  0  0  0  0
    0.2637   -9.0066    4.4785 C   0  0  2  0  0  0  0  0  0  0  0  0
    1.7584   -8.5806    4.3779 C   0  0  1  0  0  0  0  0  0  0  0  0
    2.6338   -9.6990    4.3908 O   0  0  0  0  0  0  0  0  0  0  0  0
    2.4927   -7.3979    5.0745 C   0  0  2  0  0  0  0  0  0  0  0  0
    1.4976   -6.2999    5.5252 C   0  0  0  0  0  0  0  0  0  0  0  0
    0.5004   -5.8536    4.4461 C   0  0  0  0  0  0  0  0  0  0  0  0
    0.0876   -6.9878    3.4848 C   0  0  1  0  0  0  0  0  0  0  0  0
    6.9755   -9.1813    3.9046 H   0  0  0  0  0  0  0  0  0  0  0  0
    5.8270  -10.3129    4.6369 H   0  0  0  0  0  0  0  0  0  0  0  0
    7.1099   -9.5930    5.6237 H   0  0  0  0  0  0  0  0  0  0  0  0
    4.2541   -5.2484    5.5871 H   0  0  0  0  0  0  0  0  0  0  0  0
    5.7631   -4.0370    4.0922 H   0  0  0  0  0  0  0  0  0  0  0  0
    6.5115   -5.7818    2.3345 H   0  0  0  0  0  0  0  0  0  0  0  0
    5.1323   -7.4008    1.7777 H   0  0  0  0  0  0  0  0  0  0  0  0
    4.5312   -6.9900   -0.3795 H   0  0  0  0  0  0  0  0  0  0  0  0
    3.3726   -5.7424    0.0494 H   0  0  0  0  0  0  0  0  0  0  0  0
    6.3456   -5.4963   -0.2773 H   0  0  0  0  0  0  0  0  0  0  0  0
    5.1020   -4.4090   -0.8677 H   0  0  0  0  0  0  0  0  0  0  0  0
    3.6671   -3.3864    1.1533 H   0  0  0  0  0  0  0  0  0  0  0  0
    4.6985   -2.7528    2.4220 H   0  0  0  0  0  0  0  0  0  0  0  0
    5.3607   -2.2314   -0.5354 H   0  0  0  0  0  0  0  0  0  0  0  0
    5.9937   -0.7419    2.1492 H   0  0  0  0  0  0  0  0  0  0  0  0
    6.5801   -0.2833    0.4648 H   0  0  0  0  0  0  0  0  0  0  0  0
    4.2296   -0.0648   -0.3106 H   0  0  0  0  0  0  0  0  0  0  0  0
    3.6094   -0.5239    1.3572 H   0  0  0  0  0  0  0  0  0  0  0  0
    2.5905   -5.2319    1.5002 H   0  0  0  0  0  0  0  0  0  0  0  0
    1.8279   -7.4095    1.1096 H   0  0  0  0  0  0  0  0  0  0  0  0
    2.8290   -8.6069    1.8650 H   0  0  0  0  0  0  0  0  0  0  0  0
    0.9679  -10.3485    2.7919 H   0  0  0  0  0  0  0  0  0  0  0  0
   -1.4168   -9.9322    1.6810 H   0  0  0  0  0  0  0  0  0  0  0  0
   -2.7801   -8.3338    3.2262 H   0  0  0  0  0  0  0  0  0  0  0  0
   -1.2671   -7.5824    5.2151 H   0  0  0  0  0  0  0  0  0  0  0  0
    0.0188   -9.8460    5.1303 H   0  0  0  0  0  0  0  0  0  0  0  0
    2.2777  -10.3140    5.0191 H   0  0  0  0  0  0  0  0  0  0  0  0
    2.9293   -7.7513    6.0094 H   0  0  0  0  0  0  0  0  0  0  0  0
    0.9185   -6.6995    6.3595 H   0  0  0  0  0  0  0  0  0  0  0  0
    2.0098   -5.4269    5.9309 H   0  0  0  0  0  0  0  0  0  0  0  0
   -0.3937   -5.4710    4.9404 H   0  0  0  0  0  0  0  0  0  0  0  0
    0.8638   -4.9844    3.9111 H   0  0  0  0  0  0  0  0  0  0  0  0
   -0.4319   -6.5794    2.6162 H   0  0  0  0  0  0  0  0  0  0  0  0
    6.5357   -3.9275    1.2640 H   0  0  0  0  0  0  0  0  0  0  0  0
  1  2  1  0
  1 32  1  0
  1 33  1  0
  1 34  1  0
  2  3  2  0
  2  4  1  0
  5  4  1  6
  5 17  1  0
  5 28  1  0
  5  6  1  0
  6  7  2  0
  6 35  1  0
  7  8  1  0
  7 36  1  0
  8 12  1  0
  8  9  1  0
  8 37  1  1
  9 10  1  0
  9 17  1  0
  9 38  1  6
 10 11  1  0
 10 39  1  0
 10 40  1  0
 11 12  1  0
 11 41  1  0
 11 42  1  0
 12 13  1  0
 12 65  1  6
 13 14  1  0
 13 43  1  0
 13 44  1  0
 14 16  1  0
 14 15  1  0
 14 45  1  0
 15 16  1  0
 15 46  1  0
 15 47  1  0
 16 48  1  0
 16 49  1  0
 17 18  1  1
 17 19  1  0
 18 50  1  0
 20 19  1  6
 19 51  1  0
 19 52  1  0
 20 26  1  0
 20 31  1  0
 20 21  1  0
 21 25  1  0
 21 22  1  0
 21 53  1  1
 22 23  2  0
 22 54  1  0
 23 24  1  0
 23 55  1  0
 24 31  1  0
 24 25  1  0
 24 56  1  1
 25 26  1  0
 25 57  1  1
 26 27  1  6
 26 28  1  0
 27 58  1  0
 28 29  1  0
 28 59  1  1
 29 30  1  0
 29 60  1  0
 29 61  1  0
 30 31  1  0
 30 62  1  0
 30 63  1  0
 31 64  1  6
M  CHG  1  12   1
M  END
>  <i_m_ct_stereo_status>  (232) 
1

>  <s_m_source_file>  (232) 
/var/tmp/pbs.5076255.sched01/tmppdndq9e4/92von5zo7h.sdf

>  <i_m_source_file_index>  (232) 
9

>  <i_lp_mmshare_version>  (232) 
48012

>  <i_f3d_flags>  (232) 
0

>  <s_epik_input>  (232) 
W0NAQF0xMjNbQ0BIXTRbQ0BASF01W0NASF0oW0NIXT1bQ0hdNClbQ0BIXTNbQ0gyXVtDSDJdW0NIXShbQ0BdMjVbT0hdKVtDQEBdNihPQyg9TylbQ0gzXSlbQ0BdKFtPSF0pKFtDSDJdMSlbQ0BASF03W0NASF0oW0NIXT1bQ0hdNilOKFtDSDJdW0NIMl03KVtDSDJdW0NIXThbQ0gyXVtDSDJdOA==

>  <s_epik_cmdline>  (232) 
J2VwaWtfcHl0aG9uJywgJy1waHQnLCAnMi4wJywgJy1waCcsICc3LjAnLCAnLXRuJywgJzgnLCAnLW1hJywgJzIwMCcsICctaW1hZScsICc8aW5maWxlLm1hZT4nLCAnLW9tYWUnLCAnPG91dGZpbGUubWFlPic=

>  <r_epik_Ionization_Penalty>  (232) 
0.00374318

>  <r_epik_Ionization_Penalty_Charging>  (232) 
0.00374235

>  <r_epik_Ionization_Penalty_Neutral>  (232) 
8.27347e-07

>  <r_epik_State_Penalty>  (232) 
0.00266738

>  <r_epik_Charging_Adjusted_Penalty>  (232) 
0.00640973

>  <i_epik_Tot_Q>  (232) 
1

>  <i_epik_Tot_abs_Q>  (232) 
1

>  <s_epik_Chemistry_Notes>  (232) 
This compound has an ester and may undergo hydrolysis at high or low pH.

>  <s_lp_Force_Field>  (232) 
OPLS3e

>  <r_lp_Energy>  (232) 
116.554

>  <b_lp_Chiralities_Consistent>  (232) 
1

>  <s_lp_Variant>  (232) 
62:0-1

>  <s_i_glide_gridfile>  (232) 
pfpi4k_grid

>  <i_i_glide_lignum>  (232) 
9

>  <i_i_glide_rotatable_bonds>  (232) 
6

>  <r_i_docking_score>  (232) 
-2.45553

>  <r_i_glide_ligand_efficiency>  (232) 
-0.0792106

>  <r_i_glide_ligand_efficiency_sa>  (232) 
-0.248831

>  <r_i_glide_ligand_efficiency_ln>  (232) 
-0.553797

>  <r_i_glide_gscore>  (232) 
-2.45553

>  <r_i_glide_lipo>  (232) 
-0.676711

>  <r_i_glide_hbond>  (232) 
0

>  <r_i_glide_metal>  (232) 
-0

>  <r_i_glide_rewards>  (232) 
-0.514415

>  <r_i_glide_evdw>  (232) 
-28.5494

>  <r_i_glide_ecoul>  (232) 
-1.11314

>  <r_i_glide_erotb>  (232) 
0.33004

>  <r_i_glide_esite>  (232) 
0

>  <r_i_glide_emodel>  (232) 
-34.5077

>  <r_i_glide_energy>  (232) 
-29.6626

>  <r_i_glide_einternal>  (232) 
1.04571

>  <r_i_glide_intrahb_reward>  (232) 
-0

>  <i_i_glide_confnum>  (232) 
1

>  <i_i_glide_posenum>  (232) 
15

>  <r_i_glide_eff_state_penalty>  (232) 
0

>  <ligand_id>  (232) 
62

>  <original_smiles>  (232) 
CC(=O)OC12C=CC3C(CCN3CC3CC3)C1(O)CC13C4C=CC5C4C1(O)C2CCC53

>  <smiles>  (232) 
[H]OC12C([H])([H])C34C5([H])C([H])=C([H])C6([H])C5([H])C3(O[H])C([H])(C([H])([H])C([H])([H])C64[H])C1(OC(=O)C([H])([H])[H])C([H])=C([H])C1([H])C2([H])C([H])([H])C([H])([H])[N+]1([H])C([H])([H])C1([H])C([H])([H])C1([H])[H]

$$$$
62:0:2
     RDKit          3D

 65 72  0  0  1  0  0  0  0  0999 V2000
    8.1400   -6.6309    2.1986 C   0  0  0  0  0  0  0  0  0  0  0  0
    7.0925   -6.2408    3.2291 C   0  0  0  0  0  0  0  0  0  0  0  0
    7.3965   -6.0466    4.4100 O   0  0  0  0  0  0  0  0  0  0  0  0
    5.8481   -6.1312    2.6823 O   0  0  0  0  0  0  0  0  0  0  0  0
    4.6561   -5.7546    3.4079 C   0  0  1  0  0  0  0  0  0  0  0  0
    4.9388   -4.3813    4.0447 C   0  0  0  0  0  0  0  0  0  0  0  0
    4.9779   -3.2464    3.3072 C   0  0  0  0  0  0  0  0  0  0  0  0
    4.7277   -3.2212    1.7961 C   0  0  1  0  0  0  0  0  0  0  0  0
    4.1503   -4.5392    1.2002 C   0  0  2  0  0  0  0  0  0  0  0  0
    3.1897   -4.0748    0.0891 C   0  0  0  0  0  0  0  0  0  0  0  0
    3.4696   -2.5806   -0.0736 C   0  0  0  0  0  0  0  0  0  0  0  0
    3.9174   -2.0934    1.2541 N   0  0  1  0  0  0  0  0  0  0  0  0
    2.7972   -1.5803    2.0929 C   0  0  0  0  0  0  0  0  0  0  0  0
    2.3603   -0.1775    1.6888 C   0  0  0  0  0  0  0  0  0  0  0  0
    2.5999    0.9959    2.6159 C   0  0  0  0  0  0  0  0  0  0  0  0
    1.2026    0.4853    2.4074 C   0  0  0  0  0  0  0  0  0  0  0  0
    3.5531   -5.5022    2.2872 C   0  0  2  0  0  0  0  0  0  0  0  0
    2.4517   -4.7585    2.7772 O   0  0  0  0  0  0  0  0  0  0  0  0
    2.8975   -6.7999    1.7397 C   0  0  0  0  0  0  0  0  0  0  0  0
    2.6122   -7.8436    2.8338 C   0  0  1  0  0  0  0  0  0  0  0  0
    2.5032   -9.3631    2.4981 C   0  0  2  0  0  0  0  0  0  0  0  0
    1.1094   -9.9661    2.5577 C   0  0  0  0  0  0  0  0  0  0  0  0
    0.5950   -9.7923    3.7712 C   0  0  0  0  0  0  0  0  0  0  0  0
    1.5412   -8.9435    4.5720 C   0  0  1  0  0  0  0  0  0  0  0  0
    2.8906   -9.3426    3.9970 C   0  0  2  0  0  0  0  0  0  0  0  0
    3.8768   -8.2121    3.5939 C   0  0  1  0  0  0  0  0  0  0  0  0
    5.0226   -8.7125    2.9193 O   0  0  0  0  0  0  0  0  0  0  0  0
    4.3263   -6.9668    4.4088 C   0  0  2  0  0  0  0  0  0  0  0  0
    3.3104   -6.6162    5.5244 C   0  0  0  0  0  0  0  0  0  0  0  0
    1.8495   -6.5468    5.0597 C   0  0  0  0  0  0  0  0  0  0  0  0
    1.5157   -7.5477    3.9335 C   0  0  1  0  0  0  0  0  0  0  0  0
    8.1165   -5.9344    1.3607 H   0  0  0  0  0  0  0  0  0  0  0  0
    7.9432   -7.6345    1.8207 H   0  0  0  0  0  0  0  0  0  0  0  0
    9.1410   -6.6186    2.6338 H   0  0  0  0  0  0  0  0  0  0  0  0
    5.1650   -4.3589    5.1022 H   0  0  0  0  0  0  0  0  0  0  0  0
    5.2398   -2.3073    3.7733 H   0  0  0  0  0  0  0  0  0  0  0  0
    5.7144   -3.0865    1.3536 H   0  0  0  0  0  0  0  0  0  0  0  0
    4.9705   -5.0502    0.6959 H   0  0  0  0  0  0  0  0  0  0  0  0
    3.3497   -4.6210   -0.8408 H   0  0  0  0  0  0  0  0  0  0  0  0
    2.1451   -4.2141    0.3677 H   0  0  0  0  0  0  0  0  0  0  0  0
    4.2895   -2.4487   -0.7842 H   0  0  0  0  0  0  0  0  0  0  0  0
    2.6157   -2.0408   -0.4800 H   0  0  0  0  0  0  0  0  0  0  0  0
    1.9350   -2.2437    2.0300 H   0  0  0  0  0  0  0  0  0  0  0  0
    3.0894   -1.5354    3.1426 H   0  0  0  0  0  0  0  0  0  0  0  0
    2.3835    0.0256    0.6148 H   0  0  0  0  0  0  0  0  0  0  0  0
    3.0734    0.8007    3.5781 H   0  0  0  0  0  0  0  0  0  0  0  0
    2.8556    1.9479    2.1545 H   0  0  0  0  0  0  0  0  0  0  0  0
    0.5385    1.1173    1.8199 H   0  0  0  0  0  0  0  0  0  0  0  0
    0.7267   -0.0492    3.2293 H   0  0  0  0  0  0  0  0  0  0  0  0
    2.7990   -4.0219    3.2549 H   0  0  0  0  0  0  0  0  0  0  0  0
    2.0075   -6.5916    1.1471 H   0  0  0  0  0  0  0  0  0  0  0  0
    3.6166   -7.2417    1.0470 H   0  0  0  0  0  0  0  0  0  0  0  0
    3.2015   -9.8220    1.7963 H   0  0  0  0  0  0  0  0  0  0  0  0
    0.6043  -10.4574    1.7392 H   0  0  0  0  0  0  0  0  0  0  0  0
   -0.3876  -10.0949    4.1033 H   0  0  0  0  0  0  0  0  0  0  0  0
    1.4402   -9.0447    5.6558 H   0  0  0  0  0  0  0  0  0  0  0  0
    3.3157  -10.2906    4.3294 H   0  0  0  0  0  0  0  0  0  0  0  0
    4.7462   -9.5122    2.4917 H   0  0  0  0  0  0  0  0  0  0  0  0
    5.2279   -7.2239    4.9626 H   0  0  0  0  0  0  0  0  0  0  0  0
    3.3757   -7.3957    6.2863 H   0  0  0  0  0  0  0  0  0  0  0  0
    3.5776   -5.6964    6.0439 H   0  0  0  0  0  0  0  0  0  0  0  0
    1.2083   -6.7604    5.9160 H   0  0  0  0  0  0  0  0  0  0  0  0
    1.5701   -5.5327    4.7956 H   0  0  0  0  0  0  0  0  0  0  0  0
    0.5415   -7.3048    3.5003 H   0  0  0  0  0  0  0  0  0  0  0  0
    4.5309   -1.3060    1.1028 H   0  0  0  0  0  0  0  0  0  0  0  0
  1  2  1  0
  1 32  1  0
  1 33  1  0
  1 34  1  0
  2  3  2  0
  2  4  1  0
  5  4  1  6
  5 17  1  0
  5 28  1  0
  5  6  1  0
  6  7  2  0
  6 35  1  0
  7  8  1  0
  7 36  1  0
  8 12  1  0
  8  9  1  0
  8 37  1  6
  9 10  1  0
  9 17  1  0
  9 38  1  6
 10 11  1  0
 10 39  1  0
 10 40  1  0
 11 12  1  0
 11 41  1  0
 11 42  1  0
 12 13  1  0
 12 65  1  6
 13 14  1  0
 13 43  1  0
 13 44  1  0
 14 16  1  0
 14 15  1  0
 14 45  1  0
 15 16  1  0
 15 46  1  0
 15 47  1  0
 16 48  1  0
 16 49  1  0
 17 18  1  1
 17 19  1  0
 18 50  1  0
 20 19  1  6
 19 51  1  0
 19 52  1  0
 20 26  1  0
 20 31  1  0
 20 21  1  0
 21 25  1  0
 21 22  1  0
 21 53  1  6
 22 23  2  0
 22 54  1  0
 23 24  1  0
 23 55  1  0
 24 31  1  0
 24 25  1  0
 24 56  1  1
 25 26  1  0
 25 57  1  1
 26 27  1  6
 26 28  1  0
 27 58  1  0
 28 29  1  0
 28 59  1  1
 29 30  1  0
 29 60  1  0
 29 61  1  0
 30 31  1  0
 30 62  1  0
 30 63  1  0
 31 64  1  6
M  CHG  1  12   1
M  END
>  <i_m_ct_stereo_status>  (233) 
1

>  <s_m_source_file>  (233) 
/var/tmp/pbs.5076255.sched01/tmppdndq9e4/92von5zo7h.sdf

>  <i_m_source_file_index>  (233) 
9

>  <i_lp_mmshare_version>  (233) 
48012

>  <i_f3d_flags>  (233) 
0

>  <s_epik_input>  (233) 
W0NAQF0xMjNbQ0BIXTRbQ0BASF01W0NASF0oW0NIXT1bQ0hdNClbQ0BIXTNbQ0gyXVtDSDJdW0NIXShbQ0BdMjVbT0hdKVtDQEBdNihPQyg9TylbQ0gzXSlbQ0BdKFtPSF0pKFtDSDJdMSlbQ0BASF03W0NASF0oW0NIXT1bQ0hdNilOKFtDSDJdW0NIMl03KVtDSDJdW0NIXThbQ0gyXVtDSDJdOA==

>  <s_epik_cmdline>  (233) 
J2VwaWtfcHl0aG9uJywgJy1waHQnLCAnMi4wJywgJy1waCcsICc3LjAnLCAnLXRuJywgJzgnLCAnLW1hJywgJzIwMCcsICctaW1hZScsICc8aW5maWxlLm1hZT4nLCAnLW9tYWUnLCAnPG91dGZpbGUubWFlPic=

>  <r_epik_Ionization_Penalty>  (233) 
0.00374318

>  <r_epik_Ionization_Penalty_Charging>  (233) 
0.00374235

>  <r_epik_Ionization_Penalty_Neutral>  (233) 
8.27347e-07

>  <r_epik_State_Penalty>  (233) 
0.00266738

>  <r_epik_Charging_Adjusted_Penalty>  (233) 
0.00640973

>  <i_epik_Tot_Q>  (233) 
1

>  <i_epik_Tot_abs_Q>  (233) 
1

>  <s_epik_Chemistry_Notes>  (233) 
This compound has an ester and may undergo hydrolysis at high or low pH.

>  <s_lp_Force_Field>  (233) 
OPLS3e

>  <r_lp_Energy>  (233) 
116.554

>  <b_lp_Chiralities_Consistent>  (233) 
1

>  <s_lp_Variant>  (233) 
62:0-1

>  <s_i_glide_gridfile>  (233) 
pfpi4k_grid

>  <i_i_glide_lignum>  (233) 
9

>  <i_i_glide_rotatable_bonds>  (233) 
6

>  <r_i_docking_score>  (233) 
-2.40095

>  <r_i_glide_ligand_efficiency>  (233) 
-0.0774499

>  <r_i_glide_ligand_efficiency_sa>  (233) 
-0.2433

>  <r_i_glide_ligand_efficiency_ln>  (233) 
-0.541487

>  <r_i_glide_gscore>  (233) 
-2.40095

>  <r_i_glide_lipo>  (233) 
-0.272669

>  <r_i_glide_hbond>  (233) 
0

>  <r_i_glide_metal>  (233) 
-0

>  <r_i_glide_rewards>  (233) 
-0.523077

>  <r_i_glide_evdw>  (233) 
-25.4431

>  <r_i_glide_ecoul>  (233) 
-4.36943

>  <r_i_glide_erotb>  (233) 
0.33004

>  <r_i_glide_esite>  (233) 
-0.00767185

>  <r_i_glide_emodel>  (233) 
-34.6338

>  <r_i_glide_energy>  (233) 
-29.8125

>  <r_i_glide_einternal>  (233) 
0.662768

>  <r_i_glide_intrahb_reward>  (233) 
-0

>  <i_i_glide_confnum>  (233) 
2

>  <i_i_glide_posenum>  (233) 
3

>  <r_i_glide_eff_state_penalty>  (233) 
0

>  <ligand_id>  (233) 
62

>  <original_smiles>  (233) 
CC(=O)OC12C=CC3C(CCN3CC3CC3)C1(O)CC13C4C=CC5C4C1(O)C2CCC53

>  <smiles>  (233) 
[H]OC12C([H])([H])C34C5([H])C([H])=C([H])C6([H])C5([H])C3(O[H])C([H])(C([H])([H])C([H])([H])C64[H])C1(OC(=O)C([H])([H])[H])C([H])=C([H])C1([H])C2([H])C([H])([H])C([H])([H])[N+]1([H])C([H])([H])C1([H])C([H])([H])C1([H])[H]

$$$$
63:0:0
     RDKit          3D

 29 34  0  0  1  0  0  0  0  0999 V2000
    4.6279   -4.1755   -4.0041 C   0  0  0  0  0  0  0  0  0  0  0  0
    4.4836   -3.0384   -2.9903 C   0  0  2  0  0  0  0  0  0  0  0  0
    4.2084   -1.6812   -3.6246 C   0  0  0  0  0  0  0  0  0  0  0  0
    4.0888   -0.9567   -2.3029 C   0  0  1  0  0  0  0  0  0  0  0  0
    3.2651   -1.7290   -1.3688 C   0  0  0  0  0  0  0  0  0  0  0  0
    3.7940   -1.7650   -0.1342 C   0  0  0  0  0  0  0  0  0  0  0  0
    3.5130   -2.9970    0.4146 N   0  0  0  0  0  0  0  0  0  0  0  0
    3.6169   -3.9063   -0.7153 C   0  0  2  0  0  0  0  0  0  0  0  0
    5.0670   -4.1734   -0.8952 C   0  0  0  0  0  0  0  0  0  0  0  0
    5.5243   -2.9900   -1.8204 C   0  0  1  0  0  0  0  0  0  0  0  0
    6.8713   -2.7142   -1.2154 C   0  0  0  0  0  0  0  0  0  0  0  0
    7.9605   -3.0689   -1.6034 O   0  0  0  0  0  0  0  0  0  0  0  0
    6.5094   -2.0114   -0.0520 O   0  0  0  0  0  0  0  0  0  0  0  0
    5.2765   -1.2259   -0.1728 C   0  0  1  0  0  0  0  0  0  0  0  0
    5.3649   -1.3811   -1.6456 C   0  0  2  0  0  0  0  0  0  0  0  0
    3.2365   -3.1133   -1.9887 C   0  0  2  0  0  0  0  0  0  0  0  0
    3.8019   -4.1436   -4.7126 H   0  0  0  0  0  0  0  0  0  0  0  0
    4.6569   -5.1477   -3.5191 H   0  0  0  0  0  0  0  0  0  0  0  0
    5.5661   -4.0787   -4.5544 H   0  0  0  0  0  0  0  0  0  0  0  0
    5.0079   -1.3132   -4.2859 H   0  0  0  0  0  0  0  0  0  0  0  0
    3.2642   -1.6826   -4.1817 H   0  0  0  0  0  0  0  0  0  0  0  0
    3.9273    0.1197   -2.3393 H   0  0  0  0  0  0  0  0  0  0  0  0
    3.0417   -4.8075   -0.5872 H   0  0  0  0  0  0  0  0  0  0  0  0
    5.5487   -4.2552    0.0941 H   0  0  0  0  0  0  0  0  0  0  0  0
    5.2293   -5.1369   -1.4015 H   0  0  0  0  0  0  0  0  0  0  0  0
    5.3488   -0.1939    0.1781 H   0  0  0  0  0  0  0  0  0  0  0  0
    6.1080   -0.7054   -2.0924 H   0  0  0  0  0  0  0  0  0  0  0  0
    2.2753   -3.3419   -2.4640 H   0  0  0  0  0  0  0  0  0  0  0  0
    2.5332   -2.9982    0.6929 H   0  0  0  0  0  0  0  0  0  0  0  0
  2  1  1  6
  1 17  1  0
  1 18  1  0
  1 19  1  0
  2 10  1  0
  2 16  1  0
  2  3  1  0
  3  4  1  0
  3 20  1  0
  3 21  1  0
  4 15  1  0
  4 22  1  6
  4  5  1  0
  5 16  1  0
  5  6  2  0
  6 14  1  0
  6  7  1  0
  7  8  1  0
  7 29  1  0
  8  9  1  0
  8 16  1  0
  8 23  1  1
 10  9  1  1
  9 24  1  0
  9 25  1  0
 10 15  1  0
 10 11  1  0
 11 12  2  0
 11 13  1  0
 13 14  1  0
 14 15  1  0
 14 26  1  6
 15 27  1  6
 16 28  1  6
M  END
>  <i_m_ct_stereo_status>  (234) 
1

>  <s_m_source_file>  (234) 
/var/tmp/pbs.5076255.sched01/tmppdndq9e4/92von5zo7h.sdf

>  <i_m_source_file_index>  (234) 
10

>  <i_lp_mmshare_version>  (234) 
48012

>  <i_f3d_flags>  (234) 
0

>  <s_epik_input>  (234) 
W0NIM11bQ0BdMShDMjM0KVtDQEBIXTVbQ0BASF02W0NASF0oW0NIMl0xKVtDQEhdNFtDQEhdKE9DMz1PKUM2PU5bQ0BASF01W0NIMl0y

>  <s_epik_cmdline>  (234) 
J2VwaWtfcHl0aG9uJywgJy1waHQnLCAnMi4wJywgJy1waCcsICc3LjAnLCAnLXRuJywgJzgnLCAnLW1hJywgJzIwMCcsICctaW1hZScsICc8aW5maWxlLm1hZT4nLCAnLW9tYWUnLCAnPG91dGZpbGUubWFlPic=

>  <r_lp_tautomer_probability>  (234) 
8e-06

>  <r_epik_Ionization_Penalty>  (234) 
0.0591335

>  <r_epik_Ionization_Penalty_Charging>  (234) 
0.0589362

>  <r_epik_Ionization_Penalty_Neutral>  (234) 
0.000197361

>  <r_epik_State_Penalty>  (234) 
0.41068

>  <r_epik_Charging_Adjusted_Penalty>  (234) 
0.469616

>  <i_epik_Tot_Q>  (234) 
0

>  <i_epik_Tot_abs_Q>  (234) 
0

>  <s_epik_Chemistry_Notes>  (234) 
This compound has an ester and may undergo hydrolysis at high or low pH. This compound has an imine and may undergo hydrolysis.

>  <s_lp_Force_Field>  (234) 
OPLS3e

>  <r_lp_Energy>  (234) 
181.46

>  <b_lp_Chiralities_Consistent>  (234) 
1

>  <s_lp_Variant>  (234) 
63:0-1

>  <s_i_glide_gridfile>  (234) 
pfpi4k_grid

>  <i_i_glide_lignum>  (234) 
10

>  <i_i_glide_rotatable_bonds>  (234) 
0

>  <r_i_docking_score>  (234) 
-3.36201

>  <r_i_glide_ligand_efficiency>  (234) 
-0.210126

>  <r_i_glide_ligand_efficiency_sa>  (234) 
-0.529484

>  <r_i_glide_ligand_efficiency_ln>  (234) 
-0.891168

>  <r_i_glide_gscore>  (234) 
-3.36201

>  <r_i_glide_lipo>  (234) 
-0.395972

>  <r_i_glide_hbond>  (234) 
0

>  <r_i_glide_metal>  (234) 
-0

>  <r_i_glide_rewards>  (234) 
-1.94149

>  <r_i_glide_evdw>  (234) 
-19.3182

>  <r_i_glide_ecoul>  (234) 
-0.116711

>  <r_i_glide_erotb>  (234) 
0

>  <r_i_glide_esite>  (234) 
-0.0411319

>  <r_i_glide_emodel>  (234) 
-23.4039

>  <r_i_glide_energy>  (234) 
-19.4349

>  <r_i_glide_einternal>  (234) 
0

>  <r_i_glide_intrahb_reward>  (234) 
-0

>  <i_i_glide_confnum>  (234) 
1

>  <i_i_glide_posenum>  (234) 
3

>  <r_i_glide_eff_state_penalty>  (234) 
0

>  <ligand_id>  (234) 
63

>  <original_smiles>  (234) 
CC12CC3C4C5=NC(CC16C(=O)OC5C36)C42

>  <smiles>  (234) 
[H]N1C2=C3C4([H])C([H])([H])C5(C([H])([H])[H])C3([H])C1([H])C([H])([H])C51C(=O)OC2([H])C41[H]

$$$$
63:0:1
     RDKit          3D

 29 34  0  0  1  0  0  0  0  0999 V2000
    5.4114   -0.4058    0.8853 C   0  0  0  0  0  0  0  0  0  0  0  0
    4.9012   -1.7013    0.2533 C   0  0  2  0  0  0  0  0  0  0  0  0
    4.2961   -1.5474   -1.1377 C   0  0  0  0  0  0  0  0  0  0  0  0
    4.0451   -3.0374   -1.3337 C   0  0  1  0  0  0  0  0  0  0  0  0
    5.2084   -3.8179   -0.9055 C   0  0  0  0  0  0  0  0  0  0  0  0
    4.8317   -4.8809   -0.1475 C   0  0  0  0  0  0  0  0  0  0  0  0
    5.7492   -5.0671    0.8435 N   0  0  0  0  0  0  0  0  0  0  0  0
    6.1880   -3.7267    1.1980 C   0  0  2  0  0  0  0  0  0  0  0  0
    5.1304   -3.2442    2.1207 C   0  0  0  0  0  0  0  0  0  0  0  0
    4.0591   -2.6422    1.1485 C   0  0  1  0  0  0  0  0  0  0  0  0
    2.8335   -3.0172    1.9003 C   0  0  0  0  0  0  0  0  0  0  0  0
    2.1591   -2.3217    2.6546 O   0  0  0  0  0  0  0  0  0  0  0  0
    2.7731   -4.3981    1.5801 O   0  0  0  0  0  0  0  0  0  0  0  0
    3.3071   -4.7395    0.2593 C   0  0  1  0  0  0  0  0  0  0  0  0
    3.2622   -3.3113   -0.0939 C   0  0  2  0  0  0  0  0  0  0  0  0
    5.9918   -2.8346   -0.0491 C   0  0  2  0  0  0  0  0  0  0  0  0
    6.0340    0.1307    0.1709 H   0  0  0  0  0  0  0  0  0  0  0  0
    6.0112   -0.5811    1.7763 H   0  0  0  0  0  0  0  0  0  0  0  0
    4.5689    0.2380    1.1520 H   0  0  0  0  0  0  0  0  0  0  0  0
    3.3897   -0.9385   -1.1645 H   0  0  0  0  0  0  0  0  0  0  0  0
    5.0227   -1.1590   -1.8584 H   0  0  0  0  0  0  0  0  0  0  0  0
    3.5594   -3.3663   -2.2631 H   0  0  0  0  0  0  0  0  0  0  0  0
    7.1780   -3.6916    1.6164 H   0  0  0  0  0  0  0  0  0  0  0  0
    4.8195   -4.0538    2.7925 H   0  0  0  0  0  0  0  0  0  0  0  0
    5.5243   -2.4623    2.7808 H   0  0  0  0  0  0  0  0  0  0  0  0
    2.6532   -5.3659   -0.3444 H   0  0  0  0  0  0  0  0  0  0  0  0
    2.2446   -2.9673   -0.3199 H   0  0  0  0  0  0  0  0  0  0  0  0
    6.9027   -2.4893   -0.5601 H   0  0  0  0  0  0  0  0  0  0  0  0
    6.5783   -5.5332    0.4579 H   0  0  0  0  0  0  0  0  0  0  0  0
  2  1  1  1
  1 17  1  0
  1 18  1  0
  1 19  1  0
  2 10  1  0
  2 16  1  0
  2  3  1  0
  3  4  1  0
  3 20  1  0
  3 21  1  0
  4 15  1  0
  4 22  1  6
  4  5  1  0
  5 16  1  0
  5  6  2  0
  6 14  1  0
  6  7  1  0
  7  8  1  0
  7 29  1  0
  8  9  1  0
  8 16  1  0
  8 23  1  1
 10  9  1  1
  9 24  1  0
  9 25  1  0
 10 15  1  0
 10 11  1  0
 11 12  2  0
 11 13  1  0
 13 14  1  0
 14 15  1  0
 14 26  1  6
 15 27  1  6
 16 28  1  6
M  END
>  <i_m_ct_stereo_status>  (235) 
1

>  <s_m_source_file>  (235) 
/var/tmp/pbs.5076255.sched01/tmppdndq9e4/92von5zo7h.sdf

>  <i_m_source_file_index>  (235) 
10

>  <i_lp_mmshare_version>  (235) 
48012

>  <i_f3d_flags>  (235) 
0

>  <s_epik_input>  (235) 
W0NIM11bQ0BdMShDMjM0KVtDQEBIXTVbQ0BASF02W0NASF0oW0NIMl0xKVtDQEhdNFtDQEhdKE9DMz1PKUM2PU5bQ0BASF01W0NIMl0y

>  <s_epik_cmdline>  (235) 
J2VwaWtfcHl0aG9uJywgJy1waHQnLCAnMi4wJywgJy1waCcsICc3LjAnLCAnLXRuJywgJzgnLCAnLW1hJywgJzIwMCcsICctaW1hZScsICc8aW5maWxlLm1hZT4nLCAnLW9tYWUnLCAnPG91dGZpbGUubWFlPic=

>  <r_lp_tautomer_probability>  (235) 
8e-06

>  <r_epik_Ionization_Penalty>  (235) 
0.0591335

>  <r_epik_Ionization_Penalty_Charging>  (235) 
0.0589362

>  <r_epik_Ionization_Penalty_Neutral>  (235) 
0.000197361

>  <r_epik_State_Penalty>  (235) 
0.41068

>  <r_epik_Charging_Adjusted_Penalty>  (235) 
0.469616

>  <i_epik_Tot_Q>  (235) 
0

>  <i_epik_Tot_abs_Q>  (235) 
0

>  <s_epik_Chemistry_Notes>  (235) 
This compound has an ester and may undergo hydrolysis at high or low pH. This compound has an imine and may undergo hydrolysis.

>  <s_lp_Force_Field>  (235) 
OPLS3e

>  <r_lp_Energy>  (235) 
181.46

>  <b_lp_Chiralities_Consistent>  (235) 
1

>  <s_lp_Variant>  (235) 
63:0-1

>  <s_i_glide_gridfile>  (235) 
pfpi4k_grid

>  <i_i_glide_lignum>  (235) 
10

>  <i_i_glide_rotatable_bonds>  (235) 
0

>  <r_i_docking_score>  (235) 
-3.19784

>  <r_i_glide_ligand_efficiency>  (235) 
-0.199865

>  <r_i_glide_ligand_efficiency_sa>  (235) 
-0.503628

>  <r_i_glide_ligand_efficiency_ln>  (235) 
-0.847651

>  <r_i_glide_gscore>  (235) 
-3.19784

>  <r_i_glide_lipo>  (235) 
-0.381026

>  <r_i_glide_hbond>  (235) 
0

>  <r_i_glide_metal>  (235) 
-0

>  <r_i_glide_rewards>  (235) 
-1.94149

>  <r_i_glide_evdw>  (235) 
-18.3144

>  <r_i_glide_ecoul>  (235) 
0.313717

>  <r_i_glide_erotb>  (235) 
0

>  <r_i_glide_esite>  (235) 
-0.00665964

>  <r_i_glide_emodel>  (235) 
-21.8248

>  <r_i_glide_energy>  (235) 
-18.0007

>  <r_i_glide_einternal>  (235) 
0

>  <r_i_glide_intrahb_reward>  (235) 
-0

>  <i_i_glide_confnum>  (235) 
1

>  <i_i_glide_posenum>  (235) 
27

>  <r_i_glide_eff_state_penalty>  (235) 
0

>  <ligand_id>  (235) 
63

>  <original_smiles>  (235) 
CC12CC3C4C5=NC(CC16C(=O)OC5C36)C42

>  <smiles>  (235) 
[H]N1C2=C3C4([H])C([H])([H])C5(C([H])([H])[H])C3([H])C1([H])C([H])([H])C51C(=O)OC2([H])C41[H]

$$$$
63:0:2
     RDKit          3D

 29 34  0  0  1  0  0  0  0  0999 V2000
    4.1396   -0.9838   -2.6886 C   0  0  0  0  0  0  0  0  0  0  0  0
    4.0918   -2.0635   -1.6002 C   0  0  2  0  0  0  0  0  0  0  0  0
    2.9667   -3.0792   -1.7564 C   0  0  0  0  0  0  0  0  0  0  0  0
    3.3688   -3.9210   -0.5634 C   0  0  1  0  0  0  0  0  0  0  0  0
    4.8277   -4.1360   -0.5702 C   0  0  0  0  0  0  0  0  0  0  0  0
    5.3546   -3.9606    0.6622 C   0  0  0  0  0  0  0  0  0  0  0  0
    6.6044   -3.3927    0.5059 N   0  0  0  0  0  0  0  0  0  0  0  0
    6.4362   -2.4896   -0.6184 C   0  0  2  0  0  0  0  0  0  0  0  0
    5.8010   -1.2697   -0.0585 C   0  0  0  0  0  0  0  0  0  0  0  0
    4.2710   -1.6028   -0.1191 C   0  0  1  0  0  0  0  0  0  0  0  0
    3.8313   -0.9392    1.1443 C   0  0  0  0  0  0  0  0  0  0  0  0
    3.3191    0.1566    1.2890 O   0  0  0  0  0  0  0  0  0  0  0  0
    4.2832   -1.8780    2.0880 O   0  0  0  0  0  0  0  0  0  0  0  0
    4.2923   -3.2741    1.6124 C   0  0  1  0  0  0  0  0  0  0  0  0
    3.4301   -2.8530    0.4799 C   0  0  2  0  0  0  0  0  0  0  0  0
    5.3381   -3.0742   -1.5312 C   0  0  2  0  0  0  0  0  0  0  0  0
    4.0642   -1.4502   -3.6734 H   0  0  0  0  0  0  0  0  0  0  0  0
    5.0611   -0.4048   -2.6615 H   0  0  0  0  0  0  0  0  0  0  0  0
    3.2982   -0.2934   -2.5772 H   0  0  0  0  0  0  0  0  0  0  0  0
    1.9534   -2.6985   -1.6780 H   0  0  0  0  0  0  0  0  0  0  0  0
    3.0448   -3.6291   -2.6974 H   0  0  0  0  0  0  0  0  0  0  0  0
    2.7534   -4.7861   -0.3162 H   0  0  0  0  0  0  0  0  0  0  0  0
    7.3655   -2.2970   -1.1319 H   0  0  0  0  0  0  0  0  0  0  0  0
    6.2313   -1.0422    0.9298 H   0  0  0  0  0  0  0  0  0  0  0  0
    5.9995   -0.3829   -0.6732 H   0  0  0  0  0  0  0  0  0  0  0  0
    3.8165   -3.9838    2.2850 H   0  0  0  0  0  0  0  0  0  0  0  0
    2.3776   -2.7047    0.7852 H   0  0  0  0  0  0  0  0  0  0  0  0
    5.6539   -3.5026   -2.4902 H   0  0  0  0  0  0  0  0  0  0  0  0
    7.2701   -4.1031    0.2176 H   0  0  0  0  0  0  0  0  0  0  0  0
  2  1  1  6
  1 17  1  0
  1 18  1  0
  1 19  1  0
  2 10  1  0
  2 16  1  0
  2  3  1  0
  3  4  1  0
  3 20  1  0
  3 21  1  0
  4 15  1  0
  4 22  1  1
  4  5  1  0
  5 16  1  0
  5  6  2  0
  6 14  1  0
  6  7  1  0
  7  8  1  0
  7 29  1  0
  8  9  1  0
  8 16  1  0
  8 23  1  6
 10  9  1  1
  9 24  1  0
  9 25  1  0
 10 15  1  0
 10 11  1  0
 11 12  2  0
 11 13  1  0
 13 14  1  0
 14 15  1  0
 14 26  1  1
 15 27  1  1
 16 28  1  6
M  END
>  <i_m_ct_stereo_status>  (236) 
1

>  <s_m_source_file>  (236) 
/var/tmp/pbs.5076255.sched01/tmppdndq9e4/92von5zo7h.sdf

>  <i_m_source_file_index>  (236) 
10

>  <i_lp_mmshare_version>  (236) 
48012

>  <i_f3d_flags>  (236) 
0

>  <s_epik_input>  (236) 
W0NIM11bQ0BdMShDMjM0KVtDQEBIXTVbQ0BASF02W0NASF0oW0NIMl0xKVtDQEhdNFtDQEhdKE9DMz1PKUM2PU5bQ0BASF01W0NIMl0y

>  <s_epik_cmdline>  (236) 
J2VwaWtfcHl0aG9uJywgJy1waHQnLCAnMi4wJywgJy1waCcsICc3LjAnLCAnLXRuJywgJzgnLCAnLW1hJywgJzIwMCcsICctaW1hZScsICc8aW5maWxlLm1hZT4nLCAnLW9tYWUnLCAnPG91dGZpbGUubWFlPic=

>  <r_lp_tautomer_probability>  (236) 
8e-06

>  <r_epik_Ionization_Penalty>  (236) 
0.0591335

>  <r_epik_Ionization_Penalty_Charging>  (236) 
0.0589362

>  <r_epik_Ionization_Penalty_Neutral>  (236) 
0.000197361

>  <r_epik_State_Penalty>  (236) 
0.41068

>  <r_epik_Charging_Adjusted_Penalty>  (236) 
0.469616

>  <i_epik_Tot_Q>  (236) 
0

>  <i_epik_Tot_abs_Q>  (236) 
0

>  <s_epik_Chemistry_Notes>  (236) 
This compound has an ester and may undergo hydrolysis at high or low pH. This compound has an imine and may undergo hydrolysis.

>  <s_lp_Force_Field>  (236) 
OPLS3e

>  <r_lp_Energy>  (236) 
181.46

>  <b_lp_Chiralities_Consistent>  (236) 
1

>  <s_lp_Variant>  (236) 
63:0-1

>  <s_i_glide_gridfile>  (236) 
pfpi4k_grid

>  <i_i_glide_lignum>  (236) 
10

>  <i_i_glide_rotatable_bonds>  (236) 
0

>  <r_i_docking_score>  (236) 
-3.1604

>  <r_i_glide_ligand_efficiency>  (236) 
-0.197525

>  <r_i_glide_ligand_efficiency_sa>  (236) 
-0.497732

>  <r_i_glide_ligand_efficiency_ln>  (236) 
-0.837728

>  <r_i_glide_gscore>  (236) 
-3.1604

>  <r_i_glide_lipo>  (236) 
-0.173402

>  <r_i_glide_hbond>  (236) 
0

>  <r_i_glide_metal>  (236) 
-0

>  <r_i_glide_rewards>  (236) 
-1.94149

>  <r_i_glide_evdw>  (236) 
-21.9862

>  <r_i_glide_ecoul>  (236) 
0.414129

>  <r_i_glide_erotb>  (236) 
0

>  <r_i_glide_esite>  (236) 
-0.00831672

>  <r_i_glide_emodel>  (236) 
-25.3521

>  <r_i_glide_energy>  (236) 
-21.5721

>  <r_i_glide_einternal>  (236) 
0

>  <r_i_glide_intrahb_reward>  (236) 
-0

>  <i_i_glide_confnum>  (236) 
1

>  <i_i_glide_posenum>  (236) 
16

>  <r_i_glide_eff_state_penalty>  (236) 
0

>  <ligand_id>  (236) 
63

>  <original_smiles>  (236) 
CC12CC3C4C5=NC(CC16C(=O)OC5C36)C42

>  <smiles>  (236) 
[H]N1C2=C3C4([H])C([H])([H])C5(C([H])([H])[H])C3([H])C1([H])C([H])([H])C51C(=O)OC2([H])C41[H]

$$$$
63:1:0
     RDKit          3D

 29 34  0  0  1  0  0  0  0  0999 V2000
    7.2769   -1.8705    0.0647 C   0  0  0  0  0  0  0  0  0  0  0  0
    5.9891   -2.7052    0.1680 C   0  0  2  0  0  0  0  0  0  0  0  0
    6.2668   -4.1699    0.4887 C   0  0  0  0  0  0  0  0  0  0  0  0
    4.8054   -4.5258    0.5781 C   0  0  1  0  0  0  0  0  0  0  0  0
    4.0334   -3.5597    1.4408 C   0  0  2  0  0  0  0  0  0  0  0  0
    2.7973   -3.1815    0.6039 C   0  0  0  0  0  0  0  0  0  0  0  0
    2.6138   -1.8540    0.9153 N   0  0  0  0  0  0  0  0  0  0  0  0
    3.9441   -1.2620    0.9078 C   0  0  2  0  0  0  0  0  0  0  0  0
    4.3280   -1.0588   -0.5246 C   0  0  0  0  0  0  0  0  0  0  0  0
    4.9296   -2.4444   -0.9459 C   0  0  1  0  0  0  0  0  0  0  0  0
    4.2239   -2.6784   -2.2703 C   0  0  0  0  0  0  0  0  0  0  0  0
    4.6941   -2.5629   -3.4002 O   0  0  0  0  0  0  0  0  0  0  0  0
    2.9004   -2.9492   -1.8871 O   0  0  0  0  0  0  0  0  0  0  0  0
    2.9596   -3.6268   -0.6855 C   0  0  0  0  0  0  0  0  0  0  0  0
    4.3641   -3.9543   -0.7307 C   0  0  2  0  0  0  0  0  0  0  0  0
    4.9780   -2.3301    1.3577 C   0  0  2  0  0  0  0  0  0  0  0  0
    7.9402   -2.0883    0.8972 H   0  0  0  0  0  0  0  0  0  0  0  0
    7.0656   -0.8000    0.0874 H   0  0  0  0  0  0  0  0  0  0  0  0
    7.8255   -2.1153   -0.8494 H   0  0  0  0  0  0  0  0  0  0  0  0
    6.7994   -4.6953   -0.3104 H   0  0  0  0  0  0  0  0  0  0  0  0
    6.7976   -4.3087    1.4350 H   0  0  0  0  0  0  0  0  0  0  0  0
    4.5742   -5.5826    0.7146 H   0  0  0  0  0  0  0  0  0  0  0  0
    3.9986   -0.3455    1.4822 H   0  0  0  0  0  0  0  0  0  0  0  0
    3.4569   -0.7284   -1.0933 H   0  0  0  0  0  0  0  0  0  0  0  0
    5.0792   -0.2690   -0.6368 H   0  0  0  0  0  0  0  0  0  0  0  0
    4.6265   -4.7497   -1.4641 H   0  0  0  0  0  0  0  0  0  0  0  0
    5.4884   -2.1369    2.2979 H   0  0  0  0  0  0  0  0  0  0  0  0
    3.8165   -3.9089    2.4540 H   0  0  0  0  0  0  0  0  0  0  0  0
    1.8926   -1.3608    0.3559 H   0  0  0  0  0  0  0  0  0  0  0  0
  2  1  1  6
  1 17  1  0
  1 18  1  0
  1 19  1  0
  2 10  1  0
  2 16  1  0
  2  3  1  0
  3  4  1  0
  3 20  1  0
  3 21  1  0
  4 15  1  0
  4 22  1  6
  4  5  1  0
  5 16  1  0
  5 28  1  1
  5  6  1  0
  6 14  2  0
  6  7  1  0
  7  8  1  0
  7 29  1  0
  8  9  1  0
  8 16  1  0
  8 23  1  1
 10  9  1  1
  9 24  1  0
  9 25  1  0
 10 15  1  0
 10 11  1  0
 11 12  2  0
 11 13  1  0
 13 14  1  0
 14 15  1  0
 15 26  1  6
 16 27  1  1
M  END
>  <i_m_ct_stereo_status>  (237) 
1

>  <s_m_source_file>  (237) 
/var/tmp/pbs.5076255.sched01/tmppdndq9e4/92von5zo7h.sdf

>  <i_m_source_file_index>  (237) 
11

>  <i_lp_mmshare_version>  (237) 
48012

>  <i_f3d_flags>  (237) 
0

>  <s_epik_input>  (237) 
W0NIM11bQ0BdMShDMjM0KVtDQEBIXTVbQ0BASF02W0NASF0oW0NIMl0xKVtDQEhdNFtDQEhdKE9DMz1PKUM2PU5bQ0BASF01W0NIMl0y

>  <s_epik_cmdline>  (237) 
J2VwaWtfcHl0aG9uJywgJy1waHQnLCAnMi4wJywgJy1waCcsICc3LjAnLCAnLXRuJywgJzgnLCAnLW1hJywgJzIwMCcsICctaW1hZScsICc8aW5maWxlLm1hZT4nLCAnLW9tYWUnLCAnPG91dGZpbGUubWFlPic=

>  <r_lp_tautomer_probability>  (237) 
8e-06

>  <r_epik_Ionization_Penalty>  (237) 
0.145693

>  <r_epik_Ionization_Penalty_Charging>  (237) 
0.145677

>  <r_epik_Ionization_Penalty_Neutral>  (237) 
1.66162e-05

>  <r_epik_State_Penalty>  (237) 
0.41068

>  <r_epik_Charging_Adjusted_Penalty>  (237) 
0.556357

>  <i_epik_Tot_Q>  (237) 
0

>  <i_epik_Tot_abs_Q>  (237) 
0

>  <s_epik_Chemistry_Notes>  (237) 
This compound has an imine and may undergo hydrolysis.

>  <s_lp_Force_Field>  (237) 
OPLS3e

>  <r_lp_Energy>  (237) 
191.132

>  <b_lp_Chiralities_Consistent>  (237) 
1

>  <s_lp_Variant>  (237) 
63:0-2

>  <s_i_glide_gridfile>  (237) 
pfpi4k_grid

>  <i_i_glide_lignum>  (237) 
11

>  <i_i_glide_rotatable_bonds>  (237) 
0

>  <r_i_docking_score>  (237) 
-4.02835

>  <r_i_glide_ligand_efficiency>  (237) 
-0.251772

>  <r_i_glide_ligand_efficiency_sa>  (237) 
-0.634426

>  <r_i_glide_ligand_efficiency_ln>  (237) 
-1.0678

>  <r_i_glide_gscore>  (237) 
-4.02835

>  <r_i_glide_lipo>  (237) 
-0.234897

>  <r_i_glide_hbond>  (237) 
-0.16

>  <r_i_glide_metal>  (237) 
-0

>  <r_i_glide_rewards>  (237) 
-1.95408

>  <r_i_glide_evdw>  (237) 
-19.3718

>  <r_i_glide_ecoul>  (237) 
-4.35481

>  <r_i_glide_erotb>  (237) 
0

>  <r_i_glide_esite>  (237) 
-0.0575671

>  <r_i_glide_emodel>  (237) 
-29.878

>  <r_i_glide_energy>  (237) 
-23.7266

>  <r_i_glide_einternal>  (237) 
0

>  <r_i_glide_intrahb_reward>  (237) 
-0

>  <i_i_glide_confnum>  (237) 
2

>  <i_i_glide_posenum>  (237) 
1

>  <r_i_glide_eff_state_penalty>  (237) 
0

>  <ligand_id>  (237) 
63

>  <original_smiles>  (237) 
CC12CC3C4C5=NC(CC16C(=O)OC5C36)C42

>  <smiles>  (237) 
[H]N1C2=C3OC(=O)C45C([H])([H])C1([H])C1([H])C2([H])C([H])(C([H])([H])C14C([H])([H])[H])C35[H]

$$$$
63:1:1
     RDKit          3D

 29 34  0  0  1  0  0  0  0  0999 V2000
    5.0048   -5.8133    0.0832 C   0  0  0  0  0  0  0  0  0  0  0  0
    4.5353   -4.3493    0.1320 C   0  0  2  0  0  0  0  0  0  0  0  0
    3.0522   -4.2200    0.4465 C   0  0  0  0  0  0  0  0  0  0  0  0
    3.0910   -2.7213    0.5111 C   0  0  1  0  0  0  0  0  0  0  0  0
    4.2166   -2.2143    1.3622 C   0  0  2  0  0  0  0  0  0  0  0  0
    4.9026   -1.1292    0.5067 C   0  0  0  0  0  0  0  0  0  0  0  0
    6.2316   -1.3261    0.8311 N   0  0  0  0  0  0  0  0  0  0  0  0
    6.4630   -2.7682    0.8675 C   0  0  2  0  0  0  0  0  0  0  0  0
    6.5534   -3.1857   -0.5667 C   0  0  0  0  0  0  0  0  0  0  0  0
    5.0662   -3.4195   -1.0030 C   0  0  1  0  0  0  0  0  0  0  0  0
    5.0231   -2.7279   -2.3522 C   0  0  0  0  0  0  0  0  0  0  0  0
    5.0220   -3.2583   -3.4628 O   0  0  0  0  0  0  0  0  0  0  0  0
    5.1287   -1.3574   -1.9779 O   0  0  0  0  0  0  0  0  0  0  0  0
    4.4403   -1.2008   -0.7782 C   0  0  0  0  0  0  0  0  0  0  0  0
    3.7633   -2.4716   -0.7994 C   0  0  2  0  0  0  0  0  0  0  0  0
    5.1517   -3.4570    1.3140 C   0  0  2  0  0  0  0  0  0  0  0  0
    4.6291   -6.3731    0.9390 H   0  0  0  0  0  0  0  0  0  0  0  0
    6.0902   -5.9082    0.0876 H   0  0  0  0  0  0  0  0  0  0  0  0
    4.6307   -6.3044   -0.8199 H   0  0  0  0  0  0  0  0  0  0  0  0
    2.4113   -4.6068   -0.3488 H   0  0  0  0  0  0  0  0  0  0  0  0
    2.7724   -4.6640    1.4037 H   0  0  0  0  0  0  0  0  0  0  0  0
    2.1434   -2.2016    0.6387 H   0  0  0  0  0  0  0  0  0  0  0  0
    7.3365   -3.0486    1.4548 H   0  0  0  0  0  0  0  0  0  0  0  0
    7.1293   -2.4623   -1.1474 H   0  0  0  0  0  0  0  0  0  0  0  0
    7.1173   -4.1118   -0.6471 H   0  0  0  0  0  0  0  0  0  0  0  0
    2.9331   -2.5055   -1.5320 H   0  0  0  0  0  0  0  0  0  0  0  0
    5.2148   -3.9702    2.2754 H   0  0  0  0  0  0  0  0  0  0  0  0
    3.9278   -1.8925    2.3621 H   0  0  0  0  0  0  0  0  0  0  0  0
    6.9583   -0.7189    0.4819 H   0  0  0  0  0  0  0  0  0  0  0  0
  2  1  1  6
  1 17  1  0
  1 18  1  0
  1 19  1  0
  2 10  1  0
  2 16  1  0
  2  3  1  0
  3  4  1  0
  3 20  1  0
  3 21  1  0
  4 15  1  0
  4 22  1  6
  4  5  1  0
  5 16  1  0
  5 28  1  1
  5  6  1  0
  6 14  2  0
  6  7  1  0
  7  8  1  0
  7 29  1  0
  8  9  1  0
  8 16  1  0
  8 23  1  1
 10  9  1  1
  9 24  1  0
  9 25  1  0
 10 15  1  0
 10 11  1  0
 11 12  2  0
 11 13  1  0
 13 14  1  0
 14 15  1  0
 15 26  1  6
 16 27  1  1
M  END
>  <i_m_ct_stereo_status>  (238) 
1

>  <s_m_source_file>  (238) 
/var/tmp/pbs.5076255.sched01/tmppdndq9e4/92von5zo7h.sdf

>  <i_m_source_file_index>  (238) 
11

>  <i_lp_mmshare_version>  (238) 
48012

>  <i_f3d_flags>  (238) 
0

>  <s_epik_input>  (238) 
W0NIM11bQ0BdMShDMjM0KVtDQEBIXTVbQ0BASF02W0NASF0oW0NIMl0xKVtDQEhdNFtDQEhdKE9DMz1PKUM2PU5bQ0BASF01W0NIMl0y

>  <s_epik_cmdline>  (238) 
J2VwaWtfcHl0aG9uJywgJy1waHQnLCAnMi4wJywgJy1waCcsICc3LjAnLCAnLXRuJywgJzgnLCAnLW1hJywgJzIwMCcsICctaW1hZScsICc8aW5maWxlLm1hZT4nLCAnLW9tYWUnLCAnPG91dGZpbGUubWFlPic=

>  <r_lp_tautomer_probability>  (238) 
8e-06

>  <r_epik_Ionization_Penalty>  (238) 
0.145693

>  <r_epik_Ionization_Penalty_Charging>  (238) 
0.145677

>  <r_epik_Ionization_Penalty_Neutral>  (238) 
1.66162e-05

>  <r_epik_State_Penalty>  (238) 
0.41068

>  <r_epik_Charging_Adjusted_Penalty>  (238) 
0.556357

>  <i_epik_Tot_Q>  (238) 
0

>  <i_epik_Tot_abs_Q>  (238) 
0

>  <s_epik_Chemistry_Notes>  (238) 
This compound has an imine and may undergo hydrolysis.

>  <s_lp_Force_Field>  (238) 
OPLS3e

>  <r_lp_Energy>  (238) 
191.132

>  <b_lp_Chiralities_Consistent>  (238) 
1

>  <s_lp_Variant>  (238) 
63:0-2

>  <s_i_glide_gridfile>  (238) 
pfpi4k_grid

>  <i_i_glide_lignum>  (238) 
11

>  <i_i_glide_rotatable_bonds>  (238) 
0

>  <r_i_docking_score>  (238) 
-3.80498

>  <r_i_glide_ligand_efficiency>  (238) 
-0.237811

>  <r_i_glide_ligand_efficiency_sa>  (238) 
-0.599247

>  <r_i_glide_ligand_efficiency_ln>  (238) 
-1.00859

>  <r_i_glide_gscore>  (238) 
-3.80498

>  <r_i_glide_lipo>  (238) 
-0.426032

>  <r_i_glide_hbond>  (238) 
0

>  <r_i_glide_metal>  (238) 
-0

>  <r_i_glide_rewards>  (238) 
-2.11269

>  <r_i_glide_evdw>  (238) 
-22.3592

>  <r_i_glide_ecoul>  (238) 
-0.988667

>  <r_i_glide_erotb>  (238) 
0

>  <r_i_glide_esite>  (238) 
0

>  <r_i_glide_emodel>  (238) 
-29.0111

>  <r_i_glide_energy>  (238) 
-23.3478

>  <r_i_glide_einternal>  (238) 
0

>  <r_i_glide_intrahb_reward>  (238) 
-0

>  <i_i_glide_confnum>  (238) 
1

>  <i_i_glide_posenum>  (238) 
11

>  <r_i_glide_eff_state_penalty>  (238) 
0

>  <ligand_id>  (238) 
63

>  <original_smiles>  (238) 
CC12CC3C4C5=NC(CC16C(=O)OC5C36)C42

>  <smiles>  (238) 
[H]N1C2=C3OC(=O)C45C([H])([H])C1([H])C1([H])C2([H])C([H])(C([H])([H])C14C([H])([H])[H])C35[H]

$$$$
63:1:2
     RDKit          3D

 29 34  0  0  1  0  0  0  0  0999 V2000
    4.5407   -4.0877    2.3748 C   0  0  0  0  0  0  0  0  0  0  0  0
    4.6689   -2.9484    1.3477 C   0  0  2  0  0  0  0  0  0  0  0  0
    4.3231   -1.5838    1.9312 C   0  0  0  0  0  0  0  0  0  0  0  0
    4.6862   -0.8371    0.6774 C   0  0  1  0  0  0  0  0  0  0  0  0
    6.0251   -1.2500    0.1428 C   0  0  2  0  0  0  0  0  0  0  0  0
    5.7837   -1.5181   -1.3573 C   0  0  0  0  0  0  0  0  0  0  0  0
    6.6249   -2.5869   -1.5920 N   0  0  0  0  0  0  0  0  0  0  0  0
    6.4655   -3.4929   -0.4543 C   0  0  2  0  0  0  0  0  0  0  0  0
    5.1653   -4.2044   -0.6755 C   0  0  0  0  0  0  0  0  0  0  0  0
    4.0910   -3.2395   -0.0706 C   0  0  1  0  0  0  0  0  0  0  0  0
    3.0223   -3.2539   -1.1492 C   0  0  0  0  0  0  0  0  0  0  0  0
    1.9434   -3.8441   -1.1250 O   0  0  0  0  0  0  0  0  0  0  0  0
    3.6575   -2.5328   -2.2014 O   0  0  0  0  0  0  0  0  0  0  0  0
    4.4429   -1.5512   -1.6124 C   0  0  0  0  0  0  0  0  0  0  0  0
    3.8823   -1.6448   -0.2881 C   0  0  2  0  0  0  0  0  0  0  0  0
    6.1501   -2.6499    0.8045 C   0  0  2  0  0  0  0  0  0  0  0  0
    5.0249   -3.8118    3.3143 H   0  0  0  0  0  0  0  0  0  0  0  0
    5.0066   -5.0131    2.0375 H   0  0  0  0  0  0  0  0  0  0  0  0
    3.4922   -4.2998    2.5901 H   0  0  0  0  0  0  0  0  0  0  0  0
    3.2698   -1.4868    2.2064 H   0  0  0  0  0  0  0  0  0  0  0  0
    4.9560   -1.3026    2.7771 H   0  0  0  0  0  0  0  0  0  0  0  0
    4.4768    0.2335    0.6557 H   0  0  0  0  0  0  0  0  0  0  0  0
    7.3107   -4.1690   -0.3296 H   0  0  0  0  0  0  0  0  0  0  0  0
    5.0454   -4.4720   -1.7286 H   0  0  0  0  0  0  0  0  0  0  0  0
    5.1543   -5.1564   -0.1466 H   0  0  0  0  0  0  0  0  0  0  0  0
    2.8732   -1.2049   -0.2019 H   0  0  0  0  0  0  0  0  0  0  0  0
    6.9192   -2.6802    1.5778 H   0  0  0  0  0  0  0  0  0  0  0  0
    6.8392   -0.5630    0.3681 H   0  0  0  0  0  0  0  0  0  0  0  0
    6.6910   -3.0097   -2.5098 H   0  0  0  0  0  0  0  0  0  0  0  0
  2  1  1  1
  1 17  1  0
  1 18  1  0
  1 19  1  0
  2 10  1  0
  2 16  1  0
  2  3  1  0
  3  4  1  0
  3 20  1  0
  3 21  1  0
  4 15  1  0
  4 22  1  1
  4  5  1  0
  5 16  1  0
  5 28  1  6
  5  6  1  0
  6 14  2  0
  6  7  1  0
  7  8  1  0
  7 29  1  0
  8  9  1  0
  8 16  1  0
  8 23  1  1
 10  9  1  6
  9 24  1  0
  9 25  1  0
 10 15  1  0
 10 11  1  0
 11 12  2  0
 11 13  1  0
 13 14  1  0
 14 15  1  0
 15 26  1  6
 16 27  1  1
M  END
>  <i_m_ct_stereo_status>  (239) 
1

>  <s_m_source_file>  (239) 
/var/tmp/pbs.5076255.sched01/tmppdndq9e4/92von5zo7h.sdf

>  <i_m_source_file_index>  (239) 
11

>  <i_lp_mmshare_version>  (239) 
48012

>  <i_f3d_flags>  (239) 
0

>  <s_epik_input>  (239) 
W0NIM11bQ0BdMShDMjM0KVtDQEBIXTVbQ0BASF02W0NASF0oW0NIMl0xKVtDQEhdNFtDQEhdKE9DMz1PKUM2PU5bQ0BASF01W0NIMl0y

>  <s_epik_cmdline>  (239) 
J2VwaWtfcHl0aG9uJywgJy1waHQnLCAnMi4wJywgJy1waCcsICc3LjAnLCAnLXRuJywgJzgnLCAnLW1hJywgJzIwMCcsICctaW1hZScsICc8aW5maWxlLm1hZT4nLCAnLW9tYWUnLCAnPG91dGZpbGUubWFlPic=

>  <r_lp_tautomer_probability>  (239) 
8e-06

>  <r_epik_Ionization_Penalty>  (239) 
0.145693

>  <r_epik_Ionization_Penalty_Charging>  (239) 
0.145677

>  <r_epik_Ionization_Penalty_Neutral>  (239) 
1.66162e-05

>  <r_epik_State_Penalty>  (239) 
0.41068

>  <r_epik_Charging_Adjusted_Penalty>  (239) 
0.556357

>  <i_epik_Tot_Q>  (239) 
0

>  <i_epik_Tot_abs_Q>  (239) 
0

>  <s_epik_Chemistry_Notes>  (239) 
This compound has an imine and may undergo hydrolysis.

>  <s_lp_Force_Field>  (239) 
OPLS3e

>  <r_lp_Energy>  (239) 
191.132

>  <b_lp_Chiralities_Consistent>  (239) 
1

>  <s_lp_Variant>  (239) 
63:0-2

>  <s_i_glide_gridfile>  (239) 
pfpi4k_grid

>  <i_i_glide_lignum>  (239) 
11

>  <i_i_glide_rotatable_bonds>  (239) 
0

>  <r_i_docking_score>  (239) 
-3.79864

>  <r_i_glide_ligand_efficiency>  (239) 
-0.237415

>  <r_i_glide_ligand_efficiency_sa>  (239) 
-0.598248

>  <r_i_glide_ligand_efficiency_ln>  (239) 
-1.0069

>  <r_i_glide_gscore>  (239) 
-3.79864

>  <r_i_glide_lipo>  (239) 
-0.438469

>  <r_i_glide_hbond>  (239) 
0

>  <r_i_glide_metal>  (239) 
-0

>  <r_i_glide_rewards>  (239) 
-2.02418

>  <r_i_glide_evdw>  (239) 
-19.7117

>  <r_i_glide_ecoul>  (239) 
-2.04974

>  <r_i_glide_erotb>  (239) 
0

>  <r_i_glide_esite>  (239) 
-0.0429465

>  <r_i_glide_emodel>  (239) 
-27.4673

>  <r_i_glide_energy>  (239) 
-21.7615

>  <r_i_glide_einternal>  (239) 
0

>  <r_i_glide_intrahb_reward>  (239) 
-0

>  <i_i_glide_confnum>  (239) 
1

>  <i_i_glide_posenum>  (239) 
2

>  <r_i_glide_eff_state_penalty>  (239) 
0

>  <ligand_id>  (239) 
63

>  <original_smiles>  (239) 
CC12CC3C4C5=NC(CC16C(=O)OC5C36)C42

>  <smiles>  (239) 
[H]N1C2=C3OC(=O)C45C([H])([H])C1([H])C1([H])C2([H])C([H])(C([H])([H])C14C([H])([H])[H])C35[H]

$$$$
64:0:0
     RDKit          3D

 41 44  0  0  1  0  0  0  0  0999 V2000
   -1.3903    3.7433   12.1214 O   0  0  0  0  0  0  0  0  0  0  0  0
   -1.8122    4.0054   10.8020 C   0  0  2  0  0  0  0  0  0  0  0  0
   -3.0415    3.1466   10.4754 C   0  0  0  0  0  0  0  0  0  0  0  0
   -3.4948    3.3493    9.0185 C   0  0  0  0  0  0  0  0  0  0  0  0
   -2.3564    3.0501    8.0265 C   0  0  1  0  0  0  0  0  0  0  0  0
   -2.7995    3.2875    6.6566 N   0  0  0  0  0  0  0  0  0  0  0  0
   -2.1787    2.7467    5.5570 C   0  0  0  0  0  0  0  0  0  0  0  0
   -1.6646    1.5243    5.6762 N   0  0  0  0  0  0  0  0  0  0  0  0
   -1.1097    0.9680    4.5748 C   0  0  0  0  0  0  0  0  0  0  0  0
   -0.5652   -0.3410    4.6676 N   0  0  0  0  0  0  0  0  0  0  0  0
   -1.0333   -1.2144    5.6459 N   0  0  0  0  0  0  0  0  0  0  0  0
   -0.3338   -2.3311    5.4959 C   0  0  0  0  0  0  0  0  0  0  0  0
    0.5628   -2.1876    4.4249 C   0  0  0  0  0  0  0  0  0  0  0  0
    1.4973   -3.1006    3.8760 C   0  0  0  0  0  0  0  0  0  0  0  0
    2.2574   -2.7334    2.8156 N   0  0  0  0  0  0  0  0  0  0  0  0
    2.1476   -1.4918    2.2913 C   0  0  0  0  0  0  0  0  0  0  0  0
    1.2641   -0.5254    2.7919 C   0  0  0  0  0  0  0  0  0  0  0  0
    0.4469   -0.9023    3.8720 C   0  0  0  0  0  0  0  0  0  0  0  0
   -1.0869    1.6809    3.3561 C   0  0  0  0  0  0  0  0  0  0  0  0
   -1.6349    2.9736    3.3527 C   0  0  0  0  0  0  0  0  0  0  0  0
   -2.1903    3.5069    4.4631 N   0  0  0  0  0  0  0  0  0  0  0  0
   -1.1144    3.9043    8.3616 C   0  0  0  0  0  0  0  0  0  0  0  0
   -0.6675    3.7059    9.8219 C   0  0  0  0  0  0  0  0  0  0  0  0
   -1.9632    3.0752   12.5040 H   0  0  0  0  0  0  0  0  0  0  0  0
   -2.0813    5.0609   10.7393 H   0  0  0  0  0  0  0  0  0  0  0  0
   -2.8146    2.0963   10.6435 H   0  0  0  0  0  0  0  0  0  0  0  0
   -3.8575    3.3766   11.1579 H   0  0  0  0  0  0  0  0  0  0  0  0
   -4.3519    2.7076    8.8088 H   0  0  0  0  0  0  0  0  0  0  0  0
   -3.8458    4.3731    8.8899 H   0  0  0  0  0  0  0  0  0  0  0  0
   -2.0858    1.9964    8.1369 H   0  0  0  0  0  0  0  0  0  0  0  0
   -0.4451   -3.2193    6.1045 H   0  0  0  0  0  0  0  0  0  0  0  0
    1.6254   -4.0982    4.2695 H   0  0  0  0  0  0  0  0  0  0  0  0
    2.7840   -1.2617    1.4548 H   0  0  0  0  0  0  0  0  0  0  0  0
    1.2404    0.4490    2.3320 H   0  0  0  0  0  0  0  0  0  0  0  0
   -0.6925    1.2815    2.4383 H   0  0  0  0  0  0  0  0  0  0  0  0
   -1.6363    3.5660    2.4483 H   0  0  0  0  0  0  0  0  0  0  0  0
   -0.2879    3.6557    7.6930 H   0  0  0  0  0  0  0  0  0  0  0  0
   -1.3354    4.9610    8.2003 H   0  0  0  0  0  0  0  0  0  0  0  0
    0.1833    4.3525   10.0371 H   0  0  0  0  0  0  0  0  0  0  0  0
   -0.3175    2.6820    9.9570 H   0  0  0  0  0  0  0  0  0  0  0  0
   -3.2506    4.1667    6.4704 H   0  0  0  0  0  0  0  0  0  0  0  0
  1  2  1  0
  1 24  1  0
  2 23  1  0
  2  3  1  0
  2 25  1  1
  3  4  1  0
  3 26  1  0
  3 27  1  0
  4  5  1  0
  4 28  1  0
  4 29  1  0
  5  6  1  0
  5 22  1  0
  5 30  1  6
  6  7  1  0
  6 41  1  0
  7 21  1  0
  7  8  2  0
  8  9  1  0
  9 10  1  0
  9 19  2  0
 10 18  1  0
 10 11  1  0
 11 12  2  0
 12 13  1  0
 12 31  1  0
 13 18  2  0
 13 14  1  0
 14 15  2  0
 14 32  1  0
 15 16  1  0
 16 17  2  0
 16 33  1  0
 17 18  1  0
 17 34  1  0
 19 20  1  0
 19 35  1  0
 20 21  2  0
 20 36  1  0
 22 23  1  0
 22 37  1  0
 22 38  1  0
 23 39  1  0
 23 40  1  0
M  END
>  <i_m_ct_stereo_status>  (240) 
1

>  <s_m_source_file>  (240) 
/var/tmp/pbs.5076255.sched01/tmppdndq9e4/92von5zo7h.sdf

>  <i_m_source_file_index>  (240) 
12

>  <i_lp_mmshare_version>  (240) 
48012

>  <i_f3d_flags>  (240) 
0

>  <s_epik_input>  (240) 
W09IXVtDQEBIXTFbQ0gyXVtDSDJdW0NASF0oW0NIMl1bQ0gyXTEpL049YzIvbmMoW2NIXVtjSF1bbkhdMiktbihuW2NIXTMpYyhjMzQpW2NIXVtjSF1uW2NIXTQ=

>  <s_epik_cmdline>  (240) 
J2VwaWtfcHl0aG9uJywgJy1waHQnLCAnMi4wJywgJy1waCcsICc3LjAnLCAnLXRuJywgJzgnLCAnLW1hJywgJzIwMCcsICctaW1hZScsICc8aW5maWxlLm1hZT4nLCAnLW9tYWUnLCAnPG91dGZpbGUubWFlPic=

>  <r_lp_tautomer_probability>  (240) 
1

>  <r_epik_Ionization_Penalty>  (240) 
0.00111971

>  <r_epik_Ionization_Penalty_Charging>  (240) 
0

>  <r_epik_Ionization_Penalty_Neutral>  (240) 
0.00111971

>  <r_epik_State_Penalty>  (240) 
0.000691683

>  <r_epik_Charging_Adjusted_Penalty>  (240) 
0.000691683

>  <i_epik_Tot_Q>  (240) 
0

>  <i_epik_Tot_abs_Q>  (240) 
0

>  <s_lp_Force_Field>  (240) 
OPLS3e

>  <r_lp_Energy>  (240) 
36.6632

>  <b_lp_Chiralities_Consistent>  (240) 
1

>  <s_lp_Variant>  (240) 
64:0-1

>  <s_i_glide_gridfile>  (240) 
pfpi4k_grid

>  <i_i_glide_lignum>  (240) 
12

>  <i_i_glide_rotatable_bonds>  (240) 
4

>  <r_i_docking_score>  (240) 
-3.63208

>  <r_i_glide_ligand_efficiency>  (240) 
-0.157917

>  <r_i_glide_ligand_efficiency_sa>  (240) 
-0.449094

>  <r_i_glide_ligand_efficiency_ln>  (240) 
-0.878271

>  <r_i_glide_gscore>  (240) 
-3.63208

>  <r_i_glide_lipo>  (240) 
-0.155657

>  <r_i_glide_hbond>  (240) 
-0.16

>  <r_i_glide_metal>  (240) 
-0

>  <r_i_glide_rewards>  (240) 
-1.34743

>  <r_i_glide_evdw>  (240) 
-26.8818

>  <r_i_glide_ecoul>  (240) 
-7.70692

>  <r_i_glide_erotb>  (240) 
0.577128

>  <r_i_glide_esite>  (240) 
-0.0460013

>  <r_i_glide_emodel>  (240) 
-42.3414

>  <r_i_glide_energy>  (240) 
-34.5887

>  <r_i_glide_einternal>  (240) 
2.76719

>  <r_i_glide_intrahb_reward>  (240) 
-0

>  <i_i_glide_confnum>  (240) 
6

>  <i_i_glide_posenum>  (240) 
36

>  <r_i_glide_eff_state_penalty>  (240) 
0

>  <ligand_id>  (240) 
64

>  <original_smiles>  (240) 
OC1CCC(N=c2nc(-n3ncc4cnccc43)cc[nH]2)CC1

>  <smiles>  (240) 
[H]OC1([H])C([H])([H])C([H])([H])C([H])(N([H])c2nc([H])c([H])c(-n3nc([H])c4c([H])nc([H])c([H])c43)n2)C([H])([H])C1([H])[H]

$$$$
64:0:1
     RDKit          3D

 41 44  0  0  1  0  0  0  0  0999 V2000
    4.2167   -3.8564   -4.1123 O   0  0  0  0  0  0  0  0  0  0  0  0
    4.4627   -2.9000   -3.1090 C   0  0  2  0  0  0  0  0  0  0  0  0
    5.7877   -3.2260   -2.4028 C   0  0  0  0  0  0  0  0  0  0  0  0
    6.0530   -2.2552   -1.2411 C   0  0  0  0  0  0  0  0  0  0  0  0
    4.8880   -2.2298   -0.2339 C   0  0  1  0  0  0  0  0  0  0  0  0
    5.1300   -1.2552    0.8283 N   0  0  0  0  0  0  0  0  0  0  0  0
    4.5124   -1.2806    2.0604 C   0  0  0  0  0  0  0  0  0  0  0  0
    3.7272   -2.3124    2.3566 N   0  0  0  0  0  0  0  0  0  0  0  0
    3.1157   -2.3311    3.5606 C   0  0  0  0  0  0  0  0  0  0  0  0
    2.2604   -3.4231    3.8890 N   0  0  0  0  0  0  0  0  0  0  0  0
    1.5755   -3.4557    5.0962 N   0  0  0  0  0  0  0  0  0  0  0  0
    0.8972   -4.5946    5.1021 C   0  0  0  0  0  0  0  0  0  0  0  0
    1.1249   -5.2822    3.8995 C   0  0  0  0  0  0  0  0  0  0  0  0
    0.6162   -6.5189    3.4321 C   0  0  0  0  0  0  0  0  0  0  0  0
    0.9620   -6.9607    2.1976 N   0  0  0  0  0  0  0  0  0  0  0  0
    1.8396   -6.2646    1.4393 C   0  0  0  0  0  0  0  0  0  0  0  0
    2.3872   -5.0396    1.8343 C   0  0  0  0  0  0  0  0  0  0  0  0
    2.0079   -4.5488    3.0936 C   0  0  0  0  0  0  0  0  0  0  0  0
    3.3317   -1.2807    4.4769 C   0  0  0  0  0  0  0  0  0  0  0  0
    4.1879   -0.2426    4.0651 C   0  0  0  0  0  0  0  0  0  0  0  0
    4.7808   -0.2486    2.8529 N   0  0  0  0  0  0  0  0  0  0  0  0
    3.5611   -1.9280   -0.9562 C   0  0  0  0  0  0  0  0  0  0  0  0
    3.2938   -2.8981   -2.1131 C   0  0  0  0  0  0  0  0  0  0  0  0
    3.9431   -4.6632   -3.6885 H   0  0  0  0  0  0  0  0  0  0  0  0
    4.5372   -1.9217   -3.5859 H   0  0  0  0  0  0  0  0  0  0  0  0
    5.7662   -4.2475   -2.0222 H   0  0  0  0  0  0  0  0  0  0  0  0
    6.6142   -3.1801   -3.1133 H   0  0  0  0  0  0  0  0  0  0  0  0
    6.9793   -2.5356   -0.7377 H   0  0  0  0  0  0  0  0  0  0  0  0
    6.2001   -1.2567   -1.6499 H   0  0  0  0  0  0  0  0  0  0  0  0
    4.8272   -3.2282    0.2064 H   0  0  0  0  0  0  0  0  0  0  0  0
    0.2587   -4.9355    5.9072 H   0  0  0  0  0  0  0  0  0  0  0  0
   -0.0675   -7.1219    4.0132 H   0  0  0  0  0  0  0  0  0  0  0  0
    2.1008   -6.6822    0.4842 H   0  0  0  0  0  0  0  0  0  0  0  0
    3.0623   -4.5010    1.1909 H   0  0  0  0  0  0  0  0  0  0  0  0
    2.8661   -1.2724    5.4478 H   0  0  0  0  0  0  0  0  0  0  0  0
    4.4022    0.5902    4.7216 H   0  0  0  0  0  0  0  0  0  0  0  0
    2.7317   -1.9825   -0.2507 H   0  0  0  0  0  0  0  0  0  0  0  0
    3.5731   -0.9086   -1.3428 H   0  0  0  0  0  0  0  0  0  0  0  0
    2.3647   -2.6226   -2.6139 H   0  0  0  0  0  0  0  0  0  0  0  0
    3.1396   -3.8935   -1.6999 H   0  0  0  0  0  0  0  0  0  0  0  0
    5.5488   -0.3719    0.5896 H   0  0  0  0  0  0  0  0  0  0  0  0
  1  2  1  0
  1 24  1  0
  2 23  1  0
  2  3  1  0
  2 25  1  6
  3  4  1  0
  3 26  1  0
  3 27  1  0
  4  5  1  0
  4 28  1  0
  4 29  1  0
  5  6  1  0
  5 22  1  0
  5 30  1  1
  6  7  1  0
  6 41  1  0
  7 21  1  0
  7  8  2  0
  8  9  1  0
  9 10  1  0
  9 19  2  0
 10 18  1  0
 10 11  1  0
 11 12  2  0
 12 13  1  0
 12 31  1  0
 13 18  2  0
 13 14  1  0
 14 15  2  0
 14 32  1  0
 15 16  1  0
 16 17  2  0
 16 33  1  0
 17 18  1  0
 17 34  1  0
 19 20  1  0
 19 35  1  0
 20 21  2  0
 20 36  1  0
 22 23  1  0
 22 37  1  0
 22 38  1  0
 23 39  1  0
 23 40  1  0
M  END
>  <i_m_ct_stereo_status>  (241) 
1

>  <s_m_source_file>  (241) 
/var/tmp/pbs.5076255.sched01/tmppdndq9e4/92von5zo7h.sdf

>  <i_m_source_file_index>  (241) 
12

>  <i_lp_mmshare_version>  (241) 
48012

>  <i_f3d_flags>  (241) 
0

>  <s_epik_input>  (241) 
W09IXVtDQEBIXTFbQ0gyXVtDSDJdW0NASF0oW0NIMl1bQ0gyXTEpL049YzIvbmMoW2NIXVtjSF1bbkhdMiktbihuW2NIXTMpYyhjMzQpW2NIXVtjSF1uW2NIXTQ=

>  <s_epik_cmdline>  (241) 
J2VwaWtfcHl0aG9uJywgJy1waHQnLCAnMi4wJywgJy1waCcsICc3LjAnLCAnLXRuJywgJzgnLCAnLW1hJywgJzIwMCcsICctaW1hZScsICc8aW5maWxlLm1hZT4nLCAnLW9tYWUnLCAnPG91dGZpbGUubWFlPic=

>  <r_lp_tautomer_probability>  (241) 
1

>  <r_epik_Ionization_Penalty>  (241) 
0.00111971

>  <r_epik_Ionization_Penalty_Charging>  (241) 
0

>  <r_epik_Ionization_Penalty_Neutral>  (241) 
0.00111971

>  <r_epik_State_Penalty>  (241) 
0.000691683

>  <r_epik_Charging_Adjusted_Penalty>  (241) 
0.000691683

>  <i_epik_Tot_Q>  (241) 
0

>  <i_epik_Tot_abs_Q>  (241) 
0

>  <s_lp_Force_Field>  (241) 
OPLS3e

>  <r_lp_Energy>  (241) 
36.6632

>  <b_lp_Chiralities_Consistent>  (241) 
1

>  <s_lp_Variant>  (241) 
64:0-1

>  <s_i_glide_gridfile>  (241) 
pfpi4k_grid

>  <i_i_glide_lignum>  (241) 
12

>  <i_i_glide_rotatable_bonds>  (241) 
4

>  <r_i_docking_score>  (241) 
-3.52655

>  <r_i_glide_ligand_efficiency>  (241) 
-0.153328

>  <r_i_glide_ligand_efficiency_sa>  (241) 
-0.436045

>  <r_i_glide_ligand_efficiency_ln>  (241) 
-0.852752

>  <r_i_glide_gscore>  (241) 
-3.52655

>  <r_i_glide_lipo>  (241) 
-0.366794

>  <r_i_glide_hbond>  (241) 
-0.32

>  <r_i_glide_metal>  (241) 
-0

>  <r_i_glide_rewards>  (241) 
-1.35136

>  <r_i_glide_evdw>  (241) 
-26.8347

>  <r_i_glide_ecoul>  (241) 
-4.82529

>  <r_i_glide_erotb>  (241) 
0.577128

>  <r_i_glide_esite>  (241) 
0

>  <r_i_glide_emodel>  (241) 
-40.2498

>  <r_i_glide_energy>  (241) 
-31.66

>  <r_i_glide_einternal>  (241) 
0.527225

>  <r_i_glide_intrahb_reward>  (241) 
-0

>  <i_i_glide_confnum>  (241) 
3

>  <i_i_glide_posenum>  (241) 
23

>  <r_i_glide_eff_state_penalty>  (241) 
0

>  <ligand_id>  (241) 
64

>  <original_smiles>  (241) 
OC1CCC(N=c2nc(-n3ncc4cnccc43)cc[nH]2)CC1

>  <smiles>  (241) 
[H]OC1([H])C([H])([H])C([H])([H])C([H])(N([H])c2nc([H])c([H])c(-n3nc([H])c4c([H])nc([H])c([H])c43)n2)C([H])([H])C1([H])[H]

$$$$
64:0:2
     RDKit          3D

 41 44  0  0  1  0  0  0  0  0999 V2000
    4.1402   -2.6570   -3.7105 O   0  0  0  0  0  0  0  0  0  0  0  0
    4.6489   -2.4180   -2.4137 C   0  0  2  0  0  0  0  0  0  0  0  0
    4.2137   -3.5431   -1.4613 C   0  0  0  0  0  0  0  0  0  0  0  0
    4.6746   -3.2776   -0.0178 C   0  0  0  0  0  0  0  0  0  0  0  0
    4.1829   -1.9153    0.4938 C   0  0  1  0  0  0  0  0  0  0  0  0
    4.6900   -1.6593    1.8400 N   0  0  0  0  0  0  0  0  0  0  0  0
    4.1909   -0.6720    2.6629 C   0  0  0  0  0  0  0  0  0  0  0  0
    2.9628   -0.2147    2.4277 N   0  0  0  0  0  0  0  0  0  0  0  0
    2.4653    0.7285    3.2637 C   0  0  0  0  0  0  0  0  0  0  0  0
    1.1442    1.2340    3.0545 N   0  0  0  0  0  0  0  0  0  0  0  0
    0.2452    0.4918    2.2993 N   0  0  0  0  0  0  0  0  0  0  0  0
   -0.8769    1.1997    2.2626 C   0  0  0  0  0  0  0  0  0  0  0  0
   -0.7213    2.3656    3.0212 C   0  0  0  0  0  0  0  0  0  0  0  0
   -1.6343    3.4147    3.2806 C   0  0  0  0  0  0  0  0  0  0  0  0
   -1.2605    4.4718    4.0469 N   0  0  0  0  0  0  0  0  0  0  0  0
    0.0083    4.5377    4.5216 C   0  0  0  0  0  0  0  0  0  0  0  0
    0.9752    3.5535    4.2888 C   0  0  0  0  0  0  0  0  0  0  0  0
    0.5909    2.4333    3.5274 C   0  0  0  0  0  0  0  0  0  0  0  0
    3.2474    1.1759    4.3513 C   0  0  0  0  0  0  0  0  0  0  0  0
    4.5424    0.6492    4.4804 C   0  0  0  0  0  0  0  0  0  0  0  0
    5.0171   -0.2852    3.6312 N   0  0  0  0  0  0  0  0  0  0  0  0
    4.6168   -0.7965   -0.4678 C   0  0  0  0  0  0  0  0  0  0  0  0
    4.1493   -1.0573   -1.9085 C   0  0  0  0  0  0  0  0  0  0  0  0
    3.2019   -2.7632   -3.6450 H   0  0  0  0  0  0  0  0  0  0  0  0
    5.7387   -2.4049   -2.4756 H   0  0  0  0  0  0  0  0  0  0  0  0
    3.1278   -3.6481   -1.4757 H   0  0  0  0  0  0  0  0  0  0  0  0
    4.6161   -4.4987   -1.8001 H   0  0  0  0  0  0  0  0  0  0  0  0
    4.3100   -4.0719    0.6359 H   0  0  0  0  0  0  0  0  0  0  0  0
    5.7644   -3.3174    0.0234 H   0  0  0  0  0  0  0  0  0  0  0  0
    3.0898   -1.9388    0.5262 H   0  0  0  0  0  0  0  0  0  0  0  0
   -1.7737    0.9122    1.7261 H   0  0  0  0  0  0  0  0  0  0  0  0
   -2.6375    3.4138    2.8747 H   0  0  0  0  0  0  0  0  0  0  0  0
    0.2636    5.4021    5.1100 H   0  0  0  0  0  0  0  0  0  0  0  0
    1.9683    3.6949    4.6853 H   0  0  0  0  0  0  0  0  0  0  0  0
    2.9025    1.8825    5.0810 H   0  0  0  0  0  0  0  0  0  0  0  0
    5.1881    0.9890    5.2765 H   0  0  0  0  0  0  0  0  0  0  0  0
    4.2123    0.1538   -0.1273 H   0  0  0  0  0  0  0  0  0  0  0  0
    5.7030   -0.6933   -0.4523 H   0  0  0  0  0  0  0  0  0  0  0  0
    4.5043   -0.2576   -2.5613 H   0  0  0  0  0  0  0  0  0  0  0  0
    3.0580   -1.0256   -1.9395 H   0  0  0  0  0  0  0  0  0  0  0  0
    5.6348   -1.9327    2.0627 H   0  0  0  0  0  0  0  0  0  0  0  0
  1  2  1  0
  1 24  1  0
  2 23  1  0
  2  3  1  0
  2 25  1  6
  3  4  1  0
  3 26  1  0
  3 27  1  0
  4  5  1  0
  4 28  1  0
  4 29  1  0
  5  6  1  0
  5 22  1  0
  5 30  1  1
  6  7  1  0
  6 41  1  0
  7 21  1  0
  7  8  2  0
  8  9  1  0
  9 10  1  0
  9 19  2  0
 10 18  1  0
 10 11  1  0
 11 12  2  0
 12 13  1  0
 12 31  1  0
 13 18  2  0
 13 14  1  0
 14 15  2  0
 14 32  1  0
 15 16  1  0
 16 17  2  0
 16 33  1  0
 17 18  1  0
 17 34  1  0
 19 20  1  0
 19 35  1  0
 20 21  2  0
 20 36  1  0
 22 23  1  0
 22 37  1  0
 22 38  1  0
 23 39  1  0
 23 40  1  0
M  END
>  <i_m_ct_stereo_status>  (242) 
1

>  <s_m_source_file>  (242) 
/var/tmp/pbs.5076255.sched01/tmppdndq9e4/92von5zo7h.sdf

>  <i_m_source_file_index>  (242) 
12

>  <i_lp_mmshare_version>  (242) 
48012

>  <i_f3d_flags>  (242) 
0

>  <s_epik_input>  (242) 
W09IXVtDQEBIXTFbQ0gyXVtDSDJdW0NASF0oW0NIMl1bQ0gyXTEpL049YzIvbmMoW2NIXVtjSF1bbkhdMiktbihuW2NIXTMpYyhjMzQpW2NIXVtjSF1uW2NIXTQ=

>  <s_epik_cmdline>  (242) 
J2VwaWtfcHl0aG9uJywgJy1waHQnLCAnMi4wJywgJy1waCcsICc3LjAnLCAnLXRuJywgJzgnLCAnLW1hJywgJzIwMCcsICctaW1hZScsICc8aW5maWxlLm1hZT4nLCAnLW9tYWUnLCAnPG91dGZpbGUubWFlPic=

>  <r_lp_tautomer_probability>  (242) 
1

>  <r_epik_Ionization_Penalty>  (242) 
0.00111971

>  <r_epik_Ionization_Penalty_Charging>  (242) 
0

>  <r_epik_Ionization_Penalty_Neutral>  (242) 
0.00111971

>  <r_epik_State_Penalty>  (242) 
0.000691683

>  <r_epik_Charging_Adjusted_Penalty>  (242) 
0.000691683

>  <i_epik_Tot_Q>  (242) 
0

>  <i_epik_Tot_abs_Q>  (242) 
0

>  <s_lp_Force_Field>  (242) 
OPLS3e

>  <r_lp_Energy>  (242) 
36.6632

>  <b_lp_Chiralities_Consistent>  (242) 
1

>  <s_lp_Variant>  (242) 
64:0-1

>  <s_i_glide_gridfile>  (242) 
pfpi4k_grid

>  <i_i_glide_lignum>  (242) 
12

>  <i_i_glide_rotatable_bonds>  (242) 
4

>  <r_i_docking_score>  (242) 
-3.13816

>  <r_i_glide_ligand_efficiency>  (242) 
-0.136442

>  <r_i_glide_ligand_efficiency_sa>  (242) 
-0.388023

>  <r_i_glide_ligand_efficiency_ln>  (242) 
-0.758836

>  <r_i_glide_gscore>  (242) 
-3.13816

>  <r_i_glide_lipo>  (242) 
-0.180449

>  <r_i_glide_hbond>  (242) 
-0.0759667

>  <r_i_glide_metal>  (242) 
-0

>  <r_i_glide_rewards>  (242) 
-1.35143

>  <r_i_glide_evdw>  (242) 
-29.9588

>  <r_i_glide_ecoul>  (242) 
-3.86549

>  <r_i_glide_erotb>  (242) 
0.577128

>  <r_i_glide_esite>  (242) 
-0.0296804

>  <r_i_glide_emodel>  (242) 
-41.3895

>  <r_i_glide_energy>  (242) 
-33.8243

>  <r_i_glide_einternal>  (242) 
0.650372

>  <r_i_glide_intrahb_reward>  (242) 
-0

>  <i_i_glide_confnum>  (242) 
5

>  <i_i_glide_posenum>  (242) 
2

>  <r_i_glide_eff_state_penalty>  (242) 
0

>  <ligand_id>  (242) 
64

>  <original_smiles>  (242) 
OC1CCC(N=c2nc(-n3ncc4cnccc43)cc[nH]2)CC1

>  <smiles>  (242) 
[H]OC1([H])C([H])([H])C([H])([H])C([H])(N([H])c2nc([H])c([H])c(-n3nc([H])c4c([H])nc([H])c([H])c43)n2)C([H])([H])C1([H])[H]

$$$$
65:0:0
     RDKit          3D

 42 46  0  0  1  0  0  0  0  0999 V2000
   -1.9899    2.9118    7.9846 C   0  0  0  0  0  0  0  0  0  0  0  0
   -0.6037    3.0048    7.7719 C   0  0  0  0  0  0  0  0  0  0  0  0
   -0.1243    3.1150    6.4519 C   0  0  0  0  0  0  0  0  0  0  0  0
   -1.0525    3.1473    5.3857 C   0  0  0  0  0  0  0  0  0  0  0  0
   -0.6015    3.2578    3.9299 C   0  0  2  0  0  0  0  0  0  0  0  0
   -0.0989    1.8968    3.3629 C   0  0  0  0  0  0  0  0  0  0  0  0
    1.4165    1.6498    3.6078 C   0  0  1  0  0  0  0  0  0  0  0  0
    1.9171    0.3766    2.9262 C   0  0  0  0  0  0  0  0  0  0  0  0
    1.4102   -0.8577    3.3778 C   0  0  0  0  0  0  0  0  0  0  0  0
    1.8279   -2.0672    2.7929 C   0  0  0  0  0  0  0  0  0  0  0  0
    2.7668   -2.0488    1.7415 C   0  0  0  0  0  0  0  0  0  0  0  0
    3.1926   -3.2546    1.1467 C   0  0  0  0  0  0  0  0  0  0  0  0
    4.1316   -3.2287    0.0952 C   0  0  0  0  0  0  0  0  0  0  0  0
    4.6454   -1.9985   -0.3630 C   0  0  0  0  0  0  0  0  0  0  0  0
    4.2232   -0.7916    0.2309 C   0  0  0  0  0  0  0  0  0  0  0  0
    3.2818   -0.8109    1.2812 C   0  0  0  0  0  0  0  0  0  0  0  0
    2.8539    0.3959    1.8649 C   0  0  0  0  0  0  0  0  0  0  0  0
    2.1641    2.8583    3.3032 N   0  0  0  0  0  0  0  0  0  0  0  0
    1.6999    4.1551    3.4501 C   0  0  0  0  0  0  0  0  0  0  0  0
    2.3866    5.2819    3.3764 N   0  0  0  0  0  0  0  0  0  0  0  0
    1.3718    6.1589    3.6775 C   0  0  0  0  0  0  0  0  0  0  0  0
    0.1730    5.6226    3.9439 N   0  0  0  0  0  0  0  0  0  0  0  0
    0.4161    4.2993    3.7638 N   0  0  0  0  0  0  0  0  0  0  0  0
   -2.3845    3.0442    5.5908 N   0  0  0  0  0  0  0  0  0  0  0  0
   -2.8359    2.9433    6.8604 C   0  0  0  0  0  0  0  0  0  0  0  0
   -2.3990    2.8379    8.9833 H   0  0  0  0  0  0  0  0  0  0  0  0
    0.0819    2.9936    8.6098 H   0  0  0  0  0  0  0  0  0  0  0  0
    0.9359    3.1918    6.2624 H   0  0  0  0  0  0  0  0  0  0  0  0
   -1.4538    3.5569    3.3205 H   0  0  0  0  0  0  0  0  0  0  0  0
   -0.7113    1.0713    3.7313 H   0  0  0  0  0  0  0  0  0  0  0  0
   -0.2476    1.9193    2.2831 H   0  0  0  0  0  0  0  0  0  0  0  0
    1.5711    1.4951    4.6787 H   0  0  0  0  0  0  0  0  0  0  0  0
    0.6885   -0.8805    4.1840 H   0  0  0  0  0  0  0  0  0  0  0  0
    1.4233   -3.0036    3.1497 H   0  0  0  0  0  0  0  0  0  0  0  0
    2.8037   -4.1987    1.4950 H   0  0  0  0  0  0  0  0  0  0  0  0
    4.4567   -4.1560   -0.3630 H   0  0  0  0  0  0  0  0  0  0  0  0
    5.3638   -1.9759   -1.1750 H   0  0  0  0  0  0  0  0  0  0  0  0
    4.6153    0.1437   -0.1292 H   0  0  0  0  0  0  0  0  0  0  0  0
    3.2486    1.3232    1.4873 H   0  0  0  0  0  0  0  0  0  0  0  0
    3.1530    2.7752    3.1360 H   0  0  0  0  0  0  0  0  0  0  0  0
    1.5260    7.2319    3.7232 H   0  0  0  0  0  0  0  0  0  0  0  0
   -3.9063    2.8804    6.9886 H   0  0  0  0  0  0  0  0  0  0  0  0
  1 25  2  0
  1  2  1  0
  1 26  1  0
  2  3  2  0
  2 27  1  0
  3  4  1  0
  3 28  1  0
  4  5  1  0
  4 24  2  0
  5 23  1  0
  5  6  1  0
  5 29  1  6
  6  7  1  0
  6 30  1  0
  6 31  1  0
  7  8  1  0
  7 18  1  0
  7 32  1  1
  8 17  1  0
  8  9  2  0
  9 10  1  0
  9 33  1  0
 10 11  2  0
 10 34  1  0
 11 16  1  0
 11 12  1  0
 12 13  2  0
 12 35  1  0
 13 14  1  0
 13 36  1  0
 14 15  2  0
 14 37  1  0
 15 16  1  0
 15 38  1  0
 16 17  2  0
 17 39  1  0
 18 19  1  0
 18 40  1  0
 19 23  1  0
 19 20  2  0
 20 21  1  0
 21 22  2  0
 21 41  1  0
 22 23  1  0
 24 25  1  0
 25 42  1  0
M  END
>  <i_m_ct_stereo_status>  (243) 
1

>  <s_m_source_file>  (243) 
/var/tmp/pbs.5076255.sched01/tmppdndq9e4/92von5zo7h.sdf

>  <i_m_source_file_index>  (243) 
13

>  <i_lp_mmshare_version>  (243) 
48012

>  <i_f3d_flags>  (243) 
0

>  <s_epik_input>  (243) 
bjFbY0hdW2NIXVtjSF1bY0hdYzFbQ0BASF0obihjMjMpbltjSF1uMylbQ0gyXVtDQEhdKFtOSF0yKWMoW2NIXVtjSF00KVtjSF1jKGM0NSlbY0hdW2NIXVtjSF1bY0hdNQ==

>  <s_epik_cmdline>  (243) 
J2VwaWtfcHl0aG9uJywgJy1waHQnLCAnMi4wJywgJy1waCcsICc3LjAnLCAnLXRuJywgJzgnLCAnLW1hJywgJzIwMCcsICctaW1hZScsICc8aW5maWxlLm1hZT4nLCAnLW9tYWUnLCAnPG91dGZpbGUubWFlPic=

>  <r_lp_tautomer_probability>  (243) 
1

>  <r_epik_Ionization_Penalty>  (243) 
0.00324107

>  <r_epik_Ionization_Penalty_Charging>  (243) 
0

>  <r_epik_Ionization_Penalty_Neutral>  (243) 
0.00324107

>  <r_epik_State_Penalty>  (243) 
-0

>  <r_epik_Charging_Adjusted_Penalty>  (243) 
0

>  <i_epik_Tot_Q>  (243) 
0

>  <i_epik_Tot_abs_Q>  (243) 
0

>  <s_lp_Force_Field>  (243) 
OPLS3e

>  <r_lp_Energy>  (243) 
49.4319

>  <b_lp_Chiralities_Consistent>  (243) 
1

>  <s_lp_Variant>  (243) 
65:0-1

>  <s_i_glide_gridfile>  (243) 
pfpi4k_grid

>  <i_i_glide_lignum>  (243) 
13

>  <i_i_glide_rotatable_bonds>  (243) 
2

>  <r_i_docking_score>  (243) 
-3.22569

>  <r_i_glide_ligand_efficiency>  (243) 
-0.129028

>  <r_i_glide_ligand_efficiency_sa>  (243) 
-0.377279

>  <r_i_glide_ligand_efficiency_ln>  (243) 
-0.764586

>  <r_i_glide_gscore>  (243) 
-3.22569

>  <r_i_glide_lipo>  (243) 
-0.269225

>  <r_i_glide_hbond>  (243) 
0

>  <r_i_glide_metal>  (243) 
-0

>  <r_i_glide_rewards>  (243) 
-1.17694

>  <r_i_glide_evdw>  (243) 
-28.815

>  <r_i_glide_ecoul>  (243) 
-2.86349

>  <r_i_glide_erotb>  (243) 
0.350206

>  <r_i_glide_esite>  (243) 
-0.259465

>  <r_i_glide_emodel>  (243) 
-37.44

>  <r_i_glide_energy>  (243) 
-31.6785

>  <r_i_glide_einternal>  (243) 
1.431

>  <r_i_glide_intrahb_reward>  (243) 
-0

>  <i_i_glide_confnum>  (243) 
4

>  <i_i_glide_posenum>  (243) 
8

>  <r_i_glide_eff_state_penalty>  (243) 
0

>  <ligand_id>  (243) 
65

>  <original_smiles>  (243) 
c1ccc(C2CC(c3ccc4ccccc4c3)Nc3ncnn32)nc1

>  <smiles>  (243) 
[H]c1nc2n(n1)C([H])(c1nc([H])c([H])c([H])c1[H])C([H])([H])C([H])(c1c([H])c([H])c3c([H])c([H])c([H])c([H])c3c1[H])N2[H]

$$$$
65:0:1
     RDKit          3D

 42 46  0  0  1  0  0  0  0  0999 V2000
   -1.8482    2.7458    7.8958 C   0  0  0  0  0  0  0  0  0  0  0  0
   -2.8204    2.9030    6.8931 C   0  0  0  0  0  0  0  0  0  0  0  0
   -2.4014    3.0294    5.5547 C   0  0  0  0  0  0  0  0  0  0  0  0
   -1.0179    3.0055    5.2670 C   0  0  0  0  0  0  0  0  0  0  0  0
   -0.5248    3.1461    3.8290 C   0  0  2  0  0  0  0  0  0  0  0  0
    0.0050    1.7988    3.2572 C   0  0  0  0  0  0  0  0  0  0  0  0
    1.5117    1.5655    3.5443 C   0  0  1  0  0  0  0  0  0  0  0  0
    2.0452    0.3040    2.8645 C   0  0  0  0  0  0  0  0  0  0  0  0
    1.6086   -0.9405    3.3535 C   0  0  0  0  0  0  0  0  0  0  0  0
    2.0553   -2.1411    2.7695 C   0  0  0  0  0  0  0  0  0  0  0  0
    2.9487   -2.0969    1.6794 C   0  0  0  0  0  0  0  0  0  0  0  0
    3.4031   -3.2943    1.0841 C   0  0  0  0  0  0  0  0  0  0  0  0
    4.2957   -3.2434   -0.0070 C   0  0  0  0  0  0  0  0  0  0  0  0
    4.7327   -2.0002   -0.5051 C   0  0  0  0  0  0  0  0  0  0  0  0
    4.2800   -0.8053    0.0885 C   0  0  0  0  0  0  0  0  0  0  0  0
    3.3887   -0.8487    1.1786 C   0  0  0  0  0  0  0  0  0  0  0  0
    2.9313    0.3496    1.7618 C   0  0  0  0  0  0  0  0  0  0  0  0
    2.2521    2.7847    3.2710 N   0  0  0  0  0  0  0  0  0  0  0  0
    1.7770    4.0751    3.4261 C   0  0  0  0  0  0  0  0  0  0  0  0
    2.4512    5.2142    3.3718 N   0  0  0  0  0  0  0  0  0  0  0  0
    1.4171    6.0767    3.6522 C   0  0  0  0  0  0  0  0  0  0  0  0
    0.2197    5.5212    3.8851 N   0  0  0  0  0  0  0  0  0  0  0  0
    0.4856    4.2026    3.7038 N   0  0  0  0  0  0  0  0  0  0  0  0
   -0.0808    2.8497    6.2316 N   0  0  0  0  0  0  0  0  0  0  0  0
   -0.4926    2.7344    7.5124 C   0  0  0  0  0  0  0  0  0  0  0  0
   -2.1292    2.6486    8.9367 H   0  0  0  0  0  0  0  0  0  0  0  0
   -3.8733    2.9175    7.1502 H   0  0  0  0  0  0  0  0  0  0  0  0
   -3.1304    3.1394    4.7652 H   0  0  0  0  0  0  0  0  0  0  0  0
   -1.3609    3.4463    3.2006 H   0  0  0  0  0  0  0  0  0  0  0  0
   -0.6064    0.9611    3.5984 H   0  0  0  0  0  0  0  0  0  0  0  0
   -0.1137    1.8357    2.1733 H   0  0  0  0  0  0  0  0  0  0  0  0
    1.6359    1.4112    4.6188 H   0  0  0  0  0  0  0  0  0  0  0  0
    0.9202   -0.9799    4.1905 H   0  0  0  0  0  0  0  0  0  0  0  0
    1.7103   -3.0885    3.1566 H   0  0  0  0  0  0  0  0  0  0  0  0
    3.0714   -4.2488    1.4629 H   0  0  0  0  0  0  0  0  0  0  0  0
    4.6429   -4.1646   -0.4651 H   0  0  0  0  0  0  0  0  0  0  0  0
    5.4147   -1.9580   -1.3488 H   0  0  0  0  0  0  0  0  0  0  0  0
    4.6146    0.1334   -0.3046 H   0  0  0  0  0  0  0  0  0  0  0  0
    3.2637    1.2880    1.3550 H   0  0  0  0  0  0  0  0  0  0  0  0
    3.2413    2.7155    3.1279 H   0  0  0  0  0  0  0  0  0  0  0  0
    1.5574    7.1522    3.7139 H   0  0  0  0  0  0  0  0  0  0  0  0
    0.2825    2.6251    8.2541 H   0  0  0  0  0  0  0  0  0  0  0  0
  1 25  2  0
  1  2  1  0
  1 26  1  0
  2  3  2  0
  2 27  1  0
  3  4  1  0
  3 28  1  0
  4  5  1  0
  4 24  2  0
  5 23  1  0
  5  6  1  0
  5 29  1  6
  6  7  1  0
  6 30  1  0
  6 31  1  0
  7  8  1  0
  7 18  1  0
  7 32  1  1
  8 17  1  0
  8  9  2  0
  9 10  1  0
  9 33  1  0
 10 11  2  0
 10 34  1  0
 11 16  1  0
 11 12  1  0
 12 13  2  0
 12 35  1  0
 13 14  1  0
 13 36  1  0
 14 15  2  0
 14 37  1  0
 15 16  1  0
 15 38  1  0
 16 17  2  0
 17 39  1  0
 18 19  1  0
 18 40  1  0
 19 23  1  0
 19 20  2  0
 20 21  1  0
 21 22  2  0
 21 41  1  0
 22 23  1  0
 24 25  1  0
 25 42  1  0
M  END
>  <i_m_ct_stereo_status>  (244) 
1

>  <s_m_source_file>  (244) 
/var/tmp/pbs.5076255.sched01/tmppdndq9e4/92von5zo7h.sdf

>  <i_m_source_file_index>  (244) 
13

>  <i_lp_mmshare_version>  (244) 
48012

>  <i_f3d_flags>  (244) 
0

>  <s_epik_input>  (244) 
bjFbY0hdW2NIXVtjSF1bY0hdYzFbQ0BASF0obihjMjMpbltjSF1uMylbQ0gyXVtDQEhdKFtOSF0yKWMoW2NIXVtjSF00KVtjSF1jKGM0NSlbY0hdW2NIXVtjSF1bY0hdNQ==

>  <s_epik_cmdline>  (244) 
J2VwaWtfcHl0aG9uJywgJy1waHQnLCAnMi4wJywgJy1waCcsICc3LjAnLCAnLXRuJywgJzgnLCAnLW1hJywgJzIwMCcsICctaW1hZScsICc8aW5maWxlLm1hZT4nLCAnLW9tYWUnLCAnPG91dGZpbGUubWFlPic=

>  <r_lp_tautomer_probability>  (244) 
1

>  <r_epik_Ionization_Penalty>  (244) 
0.00324107

>  <r_epik_Ionization_Penalty_Charging>  (244) 
0

>  <r_epik_Ionization_Penalty_Neutral>  (244) 
0.00324107

>  <r_epik_State_Penalty>  (244) 
-0

>  <r_epik_Charging_Adjusted_Penalty>  (244) 
0

>  <i_epik_Tot_Q>  (244) 
0

>  <i_epik_Tot_abs_Q>  (244) 
0

>  <s_lp_Force_Field>  (244) 
OPLS3e

>  <r_lp_Energy>  (244) 
49.4319

>  <b_lp_Chiralities_Consistent>  (244) 
1

>  <s_lp_Variant>  (244) 
65:0-1

>  <s_i_glide_gridfile>  (244) 
pfpi4k_grid

>  <i_i_glide_lignum>  (244) 
13

>  <i_i_glide_rotatable_bonds>  (244) 
2

>  <r_i_docking_score>  (244) 
-3.14465

>  <r_i_glide_ligand_efficiency>  (244) 
-0.125786

>  <r_i_glide_ligand_efficiency_sa>  (244) 
-0.3678

>  <r_i_glide_ligand_efficiency_ln>  (244) 
-0.745376

>  <r_i_glide_gscore>  (244) 
-3.14465

>  <r_i_glide_lipo>  (244) 
-0.266926

>  <r_i_glide_hbond>  (244) 
0

>  <r_i_glide_metal>  (244) 
-0

>  <r_i_glide_rewards>  (244) 
-1.17694

>  <r_i_glide_evdw>  (244) 
-28.7307

>  <r_i_glide_ecoul>  (244) 
-2.40648

>  <r_i_glide_erotb>  (244) 
0.350206

>  <r_i_glide_esite>  (244) 
-0.253485

>  <r_i_glide_emodel>  (244) 
-37.1451

>  <r_i_glide_energy>  (244) 
-31.1372

>  <r_i_glide_einternal>  (244) 
0.625432

>  <r_i_glide_intrahb_reward>  (244) 
-0

>  <i_i_glide_confnum>  (244) 
4

>  <i_i_glide_posenum>  (244) 
1

>  <r_i_glide_eff_state_penalty>  (244) 
0

>  <ligand_id>  (244) 
65

>  <original_smiles>  (244) 
c1ccc(C2CC(c3ccc4ccccc4c3)Nc3ncnn32)nc1

>  <smiles>  (244) 
[H]c1nc2n(n1)C([H])(c1nc([H])c([H])c([H])c1[H])C([H])([H])C([H])(c1c([H])c([H])c3c([H])c([H])c([H])c([H])c3c1[H])N2[H]

$$$$
65:0:2
     RDKit          3D

 42 46  0  0  1  0  0  0  0  0999 V2000
   -1.4844   -8.1941    2.9004 C   0  0  0  0  0  0  0  0  0  0  0  0
   -1.0014   -8.2555    4.2186 C   0  0  0  0  0  0  0  0  0  0  0  0
    0.3503   -7.9450    4.4596 C   0  0  0  0  0  0  0  0  0  0  0  0
    1.1814   -7.6195    3.3616 C   0  0  0  0  0  0  0  0  0  0  0  0
    2.6574   -7.3021    3.5707 C   0  0  2  0  0  0  0  0  0  0  0  0
    3.0801   -5.9826    2.8639 C   0  0  0  0  0  0  0  0  0  0  0  0
    3.5609   -6.2142    1.4120 C   0  0  1  0  0  0  0  0  0  0  0  0
    4.0770   -4.9351    0.7763 C   0  0  0  0  0  0  0  0  0  0  0  0
    5.1994   -4.2500    1.2925 C   0  0  0  0  0  0  0  0  0  0  0  0
    5.6081   -3.0285    0.7192 C   0  0  0  0  0  0  0  0  0  0  0  0
    4.9091   -2.5014   -0.3879 C   0  0  0  0  0  0  0  0  0  0  0  0
    5.3128   -1.2888   -0.9685 C   0  0  0  0  0  0  0  0  0  0  0  0
    4.6171   -0.7768   -2.0847 C   0  0  0  0  0  0  0  0  0  0  0  0
    3.5093   -1.4660   -2.6159 C   0  0  0  0  0  0  0  0  0  0  0  0
    3.0954   -2.6790   -2.0299 C   0  0  0  0  0  0  0  0  0  0  0  0
    3.7921   -3.1950   -0.9144 C   0  0  0  0  0  0  0  0  0  0  0  0
    3.3730   -4.3904   -0.3179 C   0  0  0  0  0  0  0  0  0  0  0  0
    4.4877   -7.3298    1.3792 N   0  0  0  0  0  0  0  0  0  0  0  0
    4.4022   -8.4590    2.1784 C   0  0  0  0  0  0  0  0  0  0  0  0
    5.0861   -9.5856    2.0802 N   0  0  0  0  0  0  0  0  0  0  0  0
    4.5020  -10.2633    3.1310 C   0  0  0  0  0  0  0  0  0  0  0  0
    3.5898   -9.5892    3.8423 N   0  0  0  0  0  0  0  0  0  0  0  0
    3.5272   -8.4110    3.1740 N   0  0  0  0  0  0  0  0  0  0  0  0
    0.7177   -7.5701    2.0925 N   0  0  0  0  0  0  0  0  0  0  0  0
   -0.5800   -7.8576    1.8762 C   0  0  0  0  0  0  0  0  0  0  0  0
   -2.5085   -8.4437    2.6727 H   0  0  0  0  0  0  0  0  0  0  0  0
   -1.6623   -8.5406    5.0296 H   0  0  0  0  0  0  0  0  0  0  0  0
    0.7467   -7.9965    5.4632 H   0  0  0  0  0  0  0  0  0  0  0  0
    2.8166   -7.1464    4.6335 H   0  0  0  0  0  0  0  0  0  0  0  0
    2.2859   -5.2326    2.9010 H   0  0  0  0  0  0  0  0  0  0  0  0
    3.9167   -5.5724    3.4312 H   0  0  0  0  0  0  0  0  0  0  0  0
    2.7199   -6.5623    0.8147 H   0  0  0  0  0  0  0  0  0  0  0  0
    5.7358   -4.6505    2.1475 H   0  0  0  0  0  0  0  0  0  0  0  0
    6.4529   -2.4968    1.1360 H   0  0  0  0  0  0  0  0  0  0  0  0
    6.1452   -0.7455   -0.5524 H   0  0  0  0  0  0  0  0  0  0  0  0
    4.9208    0.1607   -2.5267 H   0  0  0  0  0  0  0  0  0  0  0  0
    2.9622   -1.0507   -3.4573 H   0  0  0  0  0  0  0  0  0  0  0  0
    2.2377   -3.1986   -2.4314 H   0  0  0  0  0  0  0  0  0  0  0  0
    2.5220   -4.9170   -0.7142 H   0  0  0  0  0  0  0  0  0  0  0  0
    5.0316   -7.4620    0.5464 H   0  0  0  0  0  0  0  0  0  0  0  0
    4.7684  -11.2853    3.4011 H   0  0  0  0  0  0  0  0  0  0  0  0
   -0.9042   -7.8344    0.8494 H   0  0  0  0  0  0  0  0  0  0  0  0
  1 25  2  0
  1  2  1  0
  1 26  1  0
  2  3  2  0
  2 27  1  0
  3  4  1  0
  3 28  1  0
  4  5  1  0
  4 24  2  0
  5 23  1  0
  5  6  1  0
  5 29  1  1
  6  7  1  0
  6 30  1  0
  6 31  1  0
  7  8  1  0
  7 18  1  0
  7 32  1  6
  8 17  1  0
  8  9  2  0
  9 10  1  0
  9 33  1  0
 10 11  2  0
 10 34  1  0
 11 16  1  0
 11 12  1  0
 12 13  2  0
 12 35  1  0
 13 14  1  0
 13 36  1  0
 14 15  2  0
 14 37  1  0
 15 16  1  0
 15 38  1  0
 16 17  2  0
 17 39  1  0
 18 19  1  0
 18 40  1  0
 19 23  1  0
 19 20  2  0
 20 21  1  0
 21 22  2  0
 21 41  1  0
 22 23  1  0
 24 25  1  0
 25 42  1  0
M  END
>  <i_m_ct_stereo_status>  (245) 
1

>  <s_m_source_file>  (245) 
/var/tmp/pbs.5076255.sched01/tmppdndq9e4/92von5zo7h.sdf

>  <i_m_source_file_index>  (245) 
13

>  <i_lp_mmshare_version>  (245) 
48012

>  <i_f3d_flags>  (245) 
0

>  <s_epik_input>  (245) 
bjFbY0hdW2NIXVtjSF1bY0hdYzFbQ0BASF0obihjMjMpbltjSF1uMylbQ0gyXVtDQEhdKFtOSF0yKWMoW2NIXVtjSF00KVtjSF1jKGM0NSlbY0hdW2NIXVtjSF1bY0hdNQ==

>  <s_epik_cmdline>  (245) 
J2VwaWtfcHl0aG9uJywgJy1waHQnLCAnMi4wJywgJy1waCcsICc3LjAnLCAnLXRuJywgJzgnLCAnLW1hJywgJzIwMCcsICctaW1hZScsICc8aW5maWxlLm1hZT4nLCAnLW9tYWUnLCAnPG91dGZpbGUubWFlPic=

>  <r_lp_tautomer_probability>  (245) 
1

>  <r_epik_Ionization_Penalty>  (245) 
0.00324107

>  <r_epik_Ionization_Penalty_Charging>  (245) 
0

>  <r_epik_Ionization_Penalty_Neutral>  (245) 
0.00324107

>  <r_epik_State_Penalty>  (245) 
-0

>  <r_epik_Charging_Adjusted_Penalty>  (245) 
0

>  <i_epik_Tot_Q>  (245) 
0

>  <i_epik_Tot_abs_Q>  (245) 
0

>  <s_lp_Force_Field>  (245) 
OPLS3e

>  <r_lp_Energy>  (245) 
49.4319

>  <b_lp_Chiralities_Consistent>  (245) 
1

>  <s_lp_Variant>  (245) 
65:0-1

>  <s_i_glide_gridfile>  (245) 
pfpi4k_grid

>  <i_i_glide_lignum>  (245) 
13

>  <i_i_glide_rotatable_bonds>  (245) 
2

>  <r_i_docking_score>  (245) 
-2.58595

>  <r_i_glide_ligand_efficiency>  (245) 
-0.103438

>  <r_i_glide_ligand_efficiency_sa>  (245) 
-0.302454

>  <r_i_glide_ligand_efficiency_ln>  (245) 
-0.612947

>  <r_i_glide_gscore>  (245) 
-2.58595

>  <r_i_glide_lipo>  (245) 
-0.18859

>  <r_i_glide_hbond>  (245) 
0

>  <r_i_glide_metal>  (245) 
-0

>  <r_i_glide_rewards>  (245) 
-1.17694

>  <r_i_glide_evdw>  (245) 
-29.799

>  <r_i_glide_ecoul>  (245) 
-0.242694

>  <r_i_glide_erotb>  (245) 
0.350206

>  <r_i_glide_esite>  (245) 
-0.0442696

>  <r_i_glide_emodel>  (245) 
-34.2564

>  <r_i_glide_energy>  (245) 
-30.0417

>  <r_i_glide_einternal>  (245) 
1.56679

>  <r_i_glide_intrahb_reward>  (245) 
-0

>  <i_i_glide_confnum>  (245) 
3

>  <i_i_glide_posenum>  (245) 
29

>  <r_i_glide_eff_state_penalty>  (245) 
0

>  <ligand_id>  (245) 
65

>  <original_smiles>  (245) 
c1ccc(C2CC(c3ccc4ccccc4c3)Nc3ncnn32)nc1

>  <smiles>  (245) 
[H]c1nc2n(n1)C([H])(c1nc([H])c([H])c([H])c1[H])C([H])([H])C([H])(c1c([H])c([H])c3c([H])c([H])c([H])c([H])c3c1[H])N2[H]

$$$$
66:0:0
     RDKit          3D

 45 49  0  0  1  0  0  0  0  0999 V2000
    8.2968   -3.8010    0.9466 C   0  0  0  0  0  0  0  0  0  0  0  0
    7.2784   -2.8752    0.3263 C   0  0  0  0  0  0  0  0  0  0  0  0
    7.6717   -2.2838   -0.7234 N   0  0  0  0  0  0  0  0  0  0  0  0
    6.5923   -1.4579   -1.2388 O   0  0  0  0  0  0  0  0  0  0  0  0
    5.9142   -2.6608    1.0329 C   0  0  2  0  0  0  0  0  0  0  0  0
    6.1950   -2.7702    2.4468 O   0  0  0  0  0  0  0  0  0  0  0  0
    5.0633   -3.0280    3.1327 C   0  0  0  0  0  0  0  0  0  0  0  0
    4.6984   -2.5002    4.3975 C   0  0  0  0  0  0  0  0  0  0  0  0
    5.6527   -2.2424    5.3306 O   0  0  0  0  0  0  0  0  0  0  0  0
    3.3725   -2.1318    4.6298 C   0  0  0  0  0  0  0  0  0  0  0  0
    2.4518   -2.1408    3.5620 C   0  0  0  0  0  0  0  0  0  0  0  0
    2.8433   -2.6600    2.3207 C   0  0  0  0  0  0  0  0  0  0  0  0
    4.0737   -3.3256    2.2349 C   0  0  0  0  0  0  0  0  0  0  0  0
    4.7048   -3.6360    0.9231 C   0  0  2  0  0  0  0  0  0  0  0  0
    5.3650   -4.8191    0.4289 O   0  0  0  0  0  0  0  0  0  0  0  0
    4.5768   -4.6930   -0.8211 C   0  0  2  0  0  0  0  0  0  0  0  0
    5.0630   -3.8850   -2.0635 C   0  0  0  0  0  0  0  0  0  0  0  0
    4.1488   -2.7442   -2.4646 N   0  0  1  0  0  0  0  0  0  0  0  0
    3.1229   -3.1653   -3.4537 C   0  0  0  0  0  0  0  0  0  0  0  0
    3.5334   -1.9469   -1.3479 C   0  0  0  0  0  0  0  0  0  0  0  0
    2.7143   -2.8349   -0.3912 C   0  0  2  0  0  0  0  0  0  0  0  0
    2.2730   -2.1899    0.9637 C   0  0  0  0  0  0  0  0  0  0  0  0
    3.5332   -4.0111   -0.0139 C   0  0  2  0  0  0  0  0  0  0  0  0
    2.5736   -4.9716    0.4309 O   0  0  0  0  0  0  0  0  0  0  0  0
    8.3854   -3.6562    2.0036 H   0  0  0  0  0  0  0  0  0  0  0  0
    9.2952   -3.6052    0.5435 H   0  0  0  0  0  0  0  0  0  0  0  0
    8.0074   -4.8434    0.8482 H   0  0  0  0  0  0  0  0  0  0  0  0
    5.8506   -1.7381   -0.7084 H   0  0  0  0  0  0  0  0  0  0  0  0
    5.5858   -1.6366    0.9023 H   0  0  0  0  0  0  0  0  0  0  0  0
    5.3326   -1.8198    6.1171 H   0  0  0  0  0  0  0  0  0  0  0  0
    3.1008   -1.6782    5.5736 H   0  0  0  0  0  0  0  0  0  0  0  0
    1.5040   -1.6092    3.6735 H   0  0  0  0  0  0  0  0  0  0  0  0
    4.2475   -5.7064   -1.0502 H   0  0  0  0  0  0  0  0  0  0  0  0
    6.0750   -3.5702   -1.9350 H   0  0  0  0  0  0  0  0  0  0  0  0
    5.1942   -4.5274   -2.9362 H   0  0  0  0  0  0  0  0  0  0  0  0
    2.4779   -3.9328   -3.0282 H   0  0  0  0  0  0  0  0  0  0  0  0
    3.6060   -3.5707   -4.3457 H   0  0  0  0  0  0  0  0  0  0  0  0
    2.4754   -2.3342   -3.7558 H   0  0  0  0  0  0  0  0  0  0  0  0
    4.2825   -1.3886   -0.8001 H   0  0  0  0  0  0  0  0  0  0  0  0
    2.9036   -1.1597   -1.7613 H   0  0  0  0  0  0  0  0  0  0  0  0
    1.8332   -3.1440   -0.9632 H   0  0  0  0  0  0  0  0  0  0  0  0
    1.2993   -2.5274    1.1791 H   0  0  0  0  0  0  0  0  0  0  0  0
    2.1332   -1.1072    0.8921 H   0  0  0  0  0  0  0  0  0  0  0  0
    3.0594   -5.7666    0.5991 H   0  0  0  0  0  0  0  0  0  0  0  0
    4.7227   -2.0863   -2.9762 H   0  0  0  0  0  0  0  0  0  0  0  0
  1  2  1  0
  1 25  1  0
  1 26  1  0
  1 27  1  0
  2  3  2  3
  2  5  1  0
  3  4  1  0
  4 28  1  0
  5 14  1  0
  5  6  1  0
  5 29  1  1
  6  7  1  0
  7 13  2  0
  7  8  1  0
  8  9  1  0
  8 10  2  0
  9 30  1  0
 10 11  1  0
 10 31  1  0
 11 12  2  0
 11 32  1  0
 12 22  1  0
 12 13  1  0
 13 14  1  0
 14 23  1  0
 14 15  1  1
 15 16  1  0
 16 23  1  0
 16 17  1  0
 16 33  1  6
 17 18  1  0
 17 34  1  0
 17 35  1  0
 18 19  1  0
 18 20  1  0
 18 45  1  6
 19 36  1  0
 19 37  1  0
 19 38  1  0
 20 21  1  0
 20 39  1  0
 20 40  1  0
 21 22  1  0
 21 23  1  0
 21 41  1  6
 22 42  1  0
 22 43  1  0
 23 24  1  1
 24 44  1  0
M  CHG  1  18   1
M  END
>  <i_m_ct_stereo_status>  (246) 
1

>  <s_m_source_file>  (246) 
/var/tmp/pbs.5076255.sched01/tmppdndq9e4/92von5zo7h.sdf

>  <i_m_source_file_index>  (246) 
14

>  <i_lp_mmshare_version>  (246) 
48012

>  <i_f3d_flags>  (246) 
0

>  <s_epik_input>  (246) 
W09IXVxOPUMoXFtDSDNdKVtDQEBIXTFPYyhjMltDQEBdMTM0KWMoW09IXSlbY0hdW2NIXWMyW0NIMl1bQ0BASF01W0NAQF00KFtPSF0pW0NASF0oTzMpW0NIMl1OKFtDSDNdKVtDSDJdNQ==

>  <s_epik_cmdline>  (246) 
J2VwaWtfcHl0aG9uJywgJy1waHQnLCAnMi4wJywgJy1waCcsICc3LjAnLCAnLXRuJywgJzgnLCAnLW1hJywgJzIwMCcsICctaW1hZScsICc8aW5maWxlLm1hZT4nLCAnLW9tYWUnLCAnPG91dGZpbGUubWFlPic=

>  <r_lp_tautomer_probability>  (246) 
1

>  <r_epik_Ionization_Penalty>  (246) 
0.0306226

>  <r_epik_Ionization_Penalty_Charging>  (246) 
0.0216517

>  <r_epik_Ionization_Penalty_Neutral>  (246) 
0.0089709

>  <r_epik_State_Penalty>  (246) 
0.0239458

>  <r_epik_Charging_Adjusted_Penalty>  (246) 
0.0455975

>  <i_epik_Tot_Q>  (246) 
1

>  <i_epik_Tot_abs_Q>  (246) 
1

>  <s_epik_Chemistry_Notes>  (246) 
This compound has an imine and may undergo hydrolysis.

>  <s_lp_Force_Field>  (246) 
OPLS3e

>  <r_lp_Energy>  (246) 
127.721

>  <b_lp_Chiralities_Consistent>  (246) 
1

>  <s_lp_Variant>  (246) 
66:0-1

>  <s_i_glide_gridfile>  (246) 
pfpi4k_grid

>  <i_i_glide_lignum>  (246) 
14

>  <i_i_glide_rotatable_bonds>  (246) 
4

>  <r_i_docking_score>  (246) 
-3.1757

>  <r_i_glide_ligand_efficiency>  (246) 
-0.132321

>  <r_i_glide_ligand_efficiency_sa>  (246) 
-0.381679

>  <r_i_glide_ligand_efficiency_ln>  (246) 
-0.76009

>  <r_i_glide_gscore>  (246) 
-3.1757

>  <r_i_glide_lipo>  (246) 
-0.46654

>  <r_i_glide_hbond>  (246) 
0

>  <r_i_glide_metal>  (246) 
-0

>  <r_i_glide_rewards>  (246) 
-1.33428

>  <r_i_glide_evdw>  (246) 
-0.376487

>  <r_i_glide_ecoul>  (246) 
-10.3422

>  <r_i_glide_erotb>  (246) 
0.339184

>  <r_i_glide_esite>  (246) 
-0.143908

>  <r_i_glide_emodel>  (246) 
-14.5819

>  <r_i_glide_energy>  (246) 
-10.7187

>  <r_i_glide_einternal>  (246) 
0.667768

>  <r_i_glide_intrahb_reward>  (246) 
-0

>  <i_i_glide_confnum>  (246) 
6

>  <i_i_glide_posenum>  (246) 
3

>  <r_i_glide_eff_state_penalty>  (246) 
0

>  <ligand_id>  (246) 
66

>  <original_smiles>  (246) 
CC(=NO)C1Oc2c(O)ccc3c2C12OC1CN(C)CC(C3)C12O

>  <smiles>  (246) 
[H]ON=C(C([H])([H])[H])C1([H])Oc2c(O[H])c([H])c([H])c3c2C12OC1([H])C2(O[H])C([H])(C3([H])[H])C([H])([H])[N+]([H])(C([H])([H])[H])C1([H])[H]

$$$$
66:0:1
     RDKit          3D

 45 49  0  0  1  0  0  0  0  0999 V2000
    8.5503   -2.4748    0.0651 C   0  0  0  0  0  0  0  0  0  0  0  0
    7.8819   -3.8418    0.1497 C   0  0  0  0  0  0  0  0  0  0  0  0
    8.6621   -4.8406    0.3299 N   0  0  0  0  0  0  0  0  0  0  0  0
    7.9630   -6.0677    0.3053 O   0  0  0  0  0  0  0  0  0  0  0  0
    6.3619   -3.8657   -0.1501 C   0  0  2  0  0  0  0  0  0  0  0  0
    6.1158   -2.7147   -1.0051 O   0  0  0  0  0  0  0  0  0  0  0  0
    4.7802   -2.4706   -1.0340 C   0  0  0  0  0  0  0  0  0  0  0  0
    4.0281   -2.0662   -2.1492 C   0  0  0  0  0  0  0  0  0  0  0  0
    4.6020   -1.3415   -3.1519 O   0  0  0  0  0  0  0  0  0  0  0  0
    2.6990   -2.5406   -2.3067 C   0  0  0  0  0  0  0  0  0  0  0  0
    2.1984   -3.4915   -1.4064 C   0  0  0  0  0  0  0  0  0  0  0  0
    2.9530   -3.8852   -0.2717 C   0  0  0  0  0  0  0  0  0  0  0  0
    4.1487   -3.1717   -0.0290 C   0  0  0  0  0  0  0  0  0  0  0  0
    5.2039   -3.6571    0.9260 C   0  0  2  0  0  0  0  0  0  0  0  0
    5.8967   -2.9919    2.0133 O   0  0  0  0  0  0  0  0  0  0  0  0
    5.6027   -4.1718    2.8817 C   0  0  2  0  0  0  0  0  0  0  0  0
    6.5611   -5.3775    2.9630 C   0  0  0  0  0  0  0  0  0  0  0  0
    5.8960   -6.6815    2.5622 N   0  0  1  0  0  0  0  0  0  0  0  0
    5.2814   -7.3706    3.7261 C   0  0  0  0  0  0  0  0  0  0  0  0
    4.9615   -6.6402    1.3773 C   0  0  0  0  0  0  0  0  0  0  0  0
    3.8041   -5.6499    1.6176 C   0  0  2  0  0  0  0  0  0  0  0  0
    2.8454   -5.2783    0.4279 C   0  0  0  0  0  0  0  0  0  0  0  0
    4.4018   -4.3750    2.0484 C   0  0  2  0  0  0  0  0  0  0  0  0
    3.3062   -3.6934    2.6484 O   0  0  0  0  0  0  0  0  0  0  0  0
    8.3139   -1.9820   -0.8756 H   0  0  0  0  0  0  0  0  0  0  0  0
    9.6352   -2.5794    0.0715 H   0  0  0  0  0  0  0  0  0  0  0  0
    8.2218   -1.8224    0.8706 H   0  0  0  0  0  0  0  0  0  0  0  0
    8.5784   -6.6525    0.7372 H   0  0  0  0  0  0  0  0  0  0  0  0
    6.1490   -4.7463   -0.7485 H   0  0  0  0  0  0  0  0  0  0  0  0
    3.9694   -1.0335   -3.7799 H   0  0  0  0  0  0  0  0  0  0  0  0
    2.1341   -2.2912   -3.1886 H   0  0  0  0  0  0  0  0  0  0  0  0
    1.3036   -4.0365   -1.6828 H   0  0  0  0  0  0  0  0  0  0  0  0
    5.3132   -3.8382    3.8736 H   0  0  0  0  0  0  0  0  0  0  0  0
    7.4976   -5.1560    2.4444 H   0  0  0  0  0  0  0  0  0  0  0  0
    6.9114   -5.4977    3.9933 H   0  0  0  0  0  0  0  0  0  0  0  0
    4.5190   -6.7357    4.1816 H   0  0  0  0  0  0  0  0  0  0  0  0
    6.0399   -7.5760    4.4819 H   0  0  0  0  0  0  0  0  0  0  0  0
    4.8223   -8.3186    3.4403 H   0  0  0  0  0  0  0  0  0  0  0  0
    5.5058   -6.4035    0.4706 H   0  0  0  0  0  0  0  0  0  0  0  0
    4.5587   -7.6350    1.1999 H   0  0  0  0  0  0  0  0  0  0  0  0
    3.1825   -6.0875    2.4101 H   0  0  0  0  0  0  0  0  0  0  0  0
    1.8482   -5.2675    0.8612 H   0  0  0  0  0  0  0  0  0  0  0  0
    2.8432   -6.0752   -0.3183 H   0  0  0  0  0  0  0  0  0  0  0  0
    3.6416   -2.8470    2.8981 H   0  0  0  0  0  0  0  0  0  0  0  0
    6.6546   -7.2922    2.2786 H   0  0  0  0  0  0  0  0  0  0  0  0
  1  2  1  0
  1 25  1  0
  1 26  1  0
  1 27  1  0
  2  3  2  3
  2  5  1  0
  3  4  1  0
  4 28  1  0
  5 14  1  0
  5  6  1  0
  5 29  1  6
  6  7  1  0
  7 13  2  0
  7  8  1  0
  8  9  1  0
  8 10  2  0
  9 30  1  0
 10 11  1  0
 10 31  1  0
 11 12  2  0
 11 32  1  0
 12 22  1  0
 12 13  1  0
 13 14  1  0
 14 23  1  0
 14 15  1  1
 15 16  1  0
 16 23  1  0
 16 17  1  0
 16 33  1  1
 17 18  1  0
 17 34  1  0
 17 35  1  0
 18 19  1  0
 18 20  1  0
 18 45  1  6
 19 36  1  0
 19 37  1  0
 19 38  1  0
 20 21  1  0
 20 39  1  0
 20 40  1  0
 21 22  1  0
 21 23  1  0
 21 41  1  1
 22 42  1  0
 22 43  1  0
 23 24  1  1
 24 44  1  0
M  CHG  1  18   1
M  END
>  <i_m_ct_stereo_status>  (247) 
1

>  <s_m_source_file>  (247) 
/var/tmp/pbs.5076255.sched01/tmppdndq9e4/92von5zo7h.sdf

>  <i_m_source_file_index>  (247) 
14

>  <i_lp_mmshare_version>  (247) 
48012

>  <i_f3d_flags>  (247) 
0

>  <s_epik_input>  (247) 
W09IXVxOPUMoXFtDSDNdKVtDQEBIXTFPYyhjMltDQEBdMTM0KWMoW09IXSlbY0hdW2NIXWMyW0NIMl1bQ0BASF01W0NAQF00KFtPSF0pW0NASF0oTzMpW0NIMl1OKFtDSDNdKVtDSDJdNQ==

>  <s_epik_cmdline>  (247) 
J2VwaWtfcHl0aG9uJywgJy1waHQnLCAnMi4wJywgJy1waCcsICc3LjAnLCAnLXRuJywgJzgnLCAnLW1hJywgJzIwMCcsICctaW1hZScsICc8aW5maWxlLm1hZT4nLCAnLW9tYWUnLCAnPG91dGZpbGUubWFlPic=

>  <r_lp_tautomer_probability>  (247) 
1

>  <r_epik_Ionization_Penalty>  (247) 
0.0306226

>  <r_epik_Ionization_Penalty_Charging>  (247) 
0.0216517

>  <r_epik_Ionization_Penalty_Neutral>  (247) 
0.0089709

>  <r_epik_State_Penalty>  (247) 
0.0239458

>  <r_epik_Charging_Adjusted_Penalty>  (247) 
0.0455975

>  <i_epik_Tot_Q>  (247) 
1

>  <i_epik_Tot_abs_Q>  (247) 
1

>  <s_epik_Chemistry_Notes>  (247) 
This compound has an imine and may undergo hydrolysis.

>  <s_lp_Force_Field>  (247) 
OPLS3e

>  <r_lp_Energy>  (247) 
127.721

>  <b_lp_Chiralities_Consistent>  (247) 
1

>  <s_lp_Variant>  (247) 
66:0-1

>  <s_i_glide_gridfile>  (247) 
pfpi4k_grid

>  <i_i_glide_lignum>  (247) 
14

>  <i_i_glide_rotatable_bonds>  (247) 
4

>  <r_i_docking_score>  (247) 
-2.83701

>  <r_i_glide_ligand_efficiency>  (247) 
-0.118209

>  <r_i_glide_ligand_efficiency_sa>  (247) 
-0.340973

>  <r_i_glide_ligand_efficiency_ln>  (247) 
-0.679027

>  <r_i_glide_gscore>  (247) 
-2.83701

>  <r_i_glide_lipo>  (247) 
-0.341783

>  <r_i_glide_hbond>  (247) 
0

>  <r_i_glide_metal>  (247) 
-0

>  <r_i_glide_rewards>  (247) 
-1.38362

>  <r_i_glide_evdw>  (247) 
-21.4553

>  <r_i_glide_ecoul>  (247) 
-2.36183

>  <r_i_glide_erotb>  (247) 
0.339184

>  <r_i_glide_esite>  (247) 
-0.0237537

>  <r_i_glide_emodel>  (247) 
-27.2069

>  <r_i_glide_energy>  (247) 
-23.8171

>  <r_i_glide_einternal>  (247) 
0.829613

>  <r_i_glide_intrahb_reward>  (247) 
-0

>  <i_i_glide_confnum>  (247) 
2

>  <i_i_glide_posenum>  (247) 
30

>  <r_i_glide_eff_state_penalty>  (247) 
0

>  <ligand_id>  (247) 
66

>  <original_smiles>  (247) 
CC(=NO)C1Oc2c(O)ccc3c2C12OC1CN(C)CC(C3)C12O

>  <smiles>  (247) 
[H]ON=C(C([H])([H])[H])C1([H])Oc2c(O[H])c([H])c([H])c3c2C12OC1([H])C2(O[H])C([H])(C3([H])[H])C([H])([H])[N+]([H])(C([H])([H])[H])C1([H])[H]

$$$$
66:0:2
     RDKit          3D

 45 49  0  0  1  0  0  0  0  0999 V2000
    8.5461   -2.3870    0.0693 C   0  0  0  0  0  0  0  0  0  0  0  0
    7.8631   -3.7495    0.1520 C   0  0  0  0  0  0  0  0  0  0  0  0
    8.6432   -4.7456    0.3292 N   0  0  0  0  0  0  0  0  0  0  0  0
    7.9157   -5.9797    0.3912 O   0  0  0  0  0  0  0  0  0  0  0  0
    6.3499   -3.7638   -0.1489 C   0  0  2  0  0  0  0  0  0  0  0  0
    6.1013   -2.6214   -1.0076 O   0  0  0  0  0  0  0  0  0  0  0  0
    4.7804   -2.3928   -1.0381 C   0  0  0  0  0  0  0  0  0  0  0  0
    4.0133   -1.9993   -2.1623 C   0  0  0  0  0  0  0  0  0  0  0  0
    4.5989   -1.2656   -3.1520 O   0  0  0  0  0  0  0  0  0  0  0  0
    2.7122   -2.4960   -2.3261 C   0  0  0  0  0  0  0  0  0  0  0  0
    2.2131   -3.4856   -1.4302 C   0  0  0  0  0  0  0  0  0  0  0  0
    2.9518   -3.8429   -0.3053 C   0  0  0  0  0  0  0  0  0  0  0  0
    4.1437   -3.0944   -0.0417 C   0  0  0  0  0  0  0  0  0  0  0  0
    5.1979   -3.5725    0.9312 C   0  0  2  0  0  0  0  0  0  0  0  0
    5.8882   -2.9057    2.0184 O   0  0  0  0  0  0  0  0  0  0  0  0
    5.6077   -4.0845    2.8767 C   0  0  2  0  0  0  0  0  0  0  0  0
    6.5823   -5.2974    2.9363 C   0  0  0  0  0  0  0  0  0  0  0  0
    5.8943   -6.5940    2.5673 N   0  0  1  0  0  0  0  0  0  0  0  0
    5.2815   -7.2807    3.7285 C   0  0  0  0  0  0  0  0  0  0  0  0
    4.9608   -6.5667    1.3847 C   0  0  0  0  0  0  0  0  0  0  0  0
    3.7934   -5.5715    1.6125 C   0  0  2  0  0  0  0  0  0  0  0  0
    2.8524   -5.2112    0.4279 C   0  0  0  0  0  0  0  0  0  0  0  0
    4.3943   -4.2901    2.0424 C   0  0  2  0  0  0  0  0  0  0  0  0
    3.2985   -3.6061    2.6360 O   0  0  0  0  0  0  0  0  0  0  0  0
    8.3161   -1.8924   -0.8700 H   0  0  0  0  0  0  0  0  0  0  0  0
    9.6297   -2.4951    0.0754 H   0  0  0  0  0  0  0  0  0  0  0  0
    8.2270   -1.7294    0.8787 H   0  0  0  0  0  0  0  0  0  0  0  0
    7.0300   -5.6733    0.3878 H   0  0  0  0  0  0  0  0  0  0  0  0
    6.1436   -4.6615   -0.7494 H   0  0  0  0  0  0  0  0  0  0  0  0
    3.9729   -0.9551   -3.7880 H   0  0  0  0  0  0  0  0  0  0  0  0
    2.1403   -2.2322   -3.1976 H   0  0  0  0  0  0  0  0  0  0  0  0
    1.3035   -4.0035   -1.7045 H   0  0  0  0  0  0  0  0  0  0  0  0
    5.3075   -3.7508    3.8783 H   0  0  0  0  0  0  0  0  0  0  0  0
    7.4965   -5.0999    2.4071 H   0  0  0  0  0  0  0  0  0  0  0  0
    6.9099   -5.4247    3.9891 H   0  0  0  0  0  0  0  0  0  0  0  0
    4.5109   -6.6446    4.1820 H   0  0  0  0  0  0  0  0  0  0  0  0
    6.0375   -7.4889    4.4942 H   0  0  0  0  0  0  0  0  0  0  0  0
    4.8181   -8.2365    3.4460 H   0  0  0  0  0  0  0  0  0  0  0  0
    5.4906   -6.3335    0.4632 H   0  0  0  0  0  0  0  0  0  0  0  0
    4.5485   -7.5642    1.2110 H   0  0  0  0  0  0  0  0  0  0  0  0
    3.1799   -6.0036    2.4111 H   0  0  0  0  0  0  0  0  0  0  0  0
    1.8452   -5.1912    0.8551 H   0  0  0  0  0  0  0  0  0  0  0  0
    2.8457   -6.0096   -0.3208 H   0  0  0  0  0  0  0  0  0  0  0  0
    3.6154   -2.7427    2.8352 H   0  0  0  0  0  0  0  0  0  0  0  0
    6.6655   -7.2175    2.2932 H   0  0  0  0  0  0  0  0  0  0  0  0
  1  2  1  0
  1 25  1  0
  1 26  1  0
  1 27  1  0
  2  3  2  3
  2  5  1  0
  3  4  1  0
  4 28  1  0
  5 14  1  0
  5  6  1  0
  5 29  1  6
  6  7  1  0
  7 13  2  0
  7  8  1  0
  8  9  1  0
  8 10  2  0
  9 30  1  0
 10 11  1  0
 10 31  1  0
 11 12  2  0
 11 32  1  0
 12 22  1  0
 12 13  1  0
 13 14  1  0
 14 23  1  0
 14 15  1  1
 15 16  1  0
 16 23  1  0
 16 17  1  0
 16 33  1  1
 17 18  1  0
 17 34  1  0
 17 35  1  0
 18 19  1  0
 18 20  1  0
 18 45  1  6
 19 36  1  0
 19 37  1  0
 19 38  1  0
 20 21  1  0
 20 39  1  0
 20 40  1  0
 21 22  1  0
 21 23  1  0
 21 41  1  1
 22 42  1  0
 22 43  1  0
 23 24  1  1
 24 44  1  0
M  CHG  1  18   1
M  END
>  <i_m_ct_stereo_status>  (248) 
1

>  <s_m_source_file>  (248) 
/var/tmp/pbs.5076255.sched01/tmppdndq9e4/92von5zo7h.sdf

>  <i_m_source_file_index>  (248) 
14

>  <i_lp_mmshare_version>  (248) 
48012

>  <i_f3d_flags>  (248) 
0

>  <s_epik_input>  (248) 
W09IXVxOPUMoXFtDSDNdKVtDQEBIXTFPYyhjMltDQEBdMTM0KWMoW09IXSlbY0hdW2NIXWMyW0NIMl1bQ0BASF01W0NAQF00KFtPSF0pW0NASF0oTzMpW0NIMl1OKFtDSDNdKVtDSDJdNQ==

>  <s_epik_cmdline>  (248) 
J2VwaWtfcHl0aG9uJywgJy1waHQnLCAnMi4wJywgJy1waCcsICc3LjAnLCAnLXRuJywgJzgnLCAnLW1hJywgJzIwMCcsICctaW1hZScsICc8aW5maWxlLm1hZT4nLCAnLW9tYWUnLCAnPG91dGZpbGUubWFlPic=

>  <r_lp_tautomer_probability>  (248) 
1

>  <r_epik_Ionization_Penalty>  (248) 
0.0306226

>  <r_epik_Ionization_Penalty_Charging>  (248) 
0.0216517

>  <r_epik_Ionization_Penalty_Neutral>  (248) 
0.0089709

>  <r_epik_State_Penalty>  (248) 
0.0239458

>  <r_epik_Charging_Adjusted_Penalty>  (248) 
0.0455975

>  <i_epik_Tot_Q>  (248) 
1

>  <i_epik_Tot_abs_Q>  (248) 
1

>  <s_epik_Chemistry_Notes>  (248) 
This compound has an imine and may undergo hydrolysis.

>  <s_lp_Force_Field>  (248) 
OPLS3e

>  <r_lp_Energy>  (248) 
127.721

>  <b_lp_Chiralities_Consistent>  (248) 
1

>  <s_lp_Variant>  (248) 
66:0-1

>  <s_i_glide_gridfile>  (248) 
pfpi4k_grid

>  <i_i_glide_lignum>  (248) 
14

>  <i_i_glide_rotatable_bonds>  (248) 
4

>  <r_i_docking_score>  (248) 
-2.72997

>  <r_i_glide_ligand_efficiency>  (248) 
-0.113749

>  <r_i_glide_ligand_efficiency_sa>  (248) 
-0.328108

>  <r_i_glide_ligand_efficiency_ln>  (248) 
-0.653407

>  <r_i_glide_gscore>  (248) 
-2.72997

>  <r_i_glide_lipo>  (248) 
-0.346352

>  <r_i_glide_hbond>  (248) 
0

>  <r_i_glide_metal>  (248) 
-0

>  <r_i_glide_rewards>  (248) 
-1.39293

>  <r_i_glide_evdw>  (248) 
-22.1487

>  <r_i_glide_ecoul>  (248) 
-1.38759

>  <r_i_glide_erotb>  (248) 
0.339184

>  <r_i_glide_esite>  (248) 
-0.0143007

>  <r_i_glide_emodel>  (248) 
-25.6295

>  <r_i_glide_energy>  (248) 
-23.5363

>  <r_i_glide_einternal>  (248) 
0.874145

>  <r_i_glide_intrahb_reward>  (248) 
-0

>  <i_i_glide_confnum>  (248) 
5

>  <i_i_glide_posenum>  (248) 
1

>  <r_i_glide_eff_state_penalty>  (248) 
0

>  <ligand_id>  (248) 
66

>  <original_smiles>  (248) 
CC(=NO)C1Oc2c(O)ccc3c2C12OC1CN(C)CC(C3)C12O

>  <smiles>  (248) 
[H]ON=C(C([H])([H])[H])C1([H])Oc2c(O[H])c([H])c([H])c3c2C12OC1([H])C2(O[H])C([H])(C3([H])[H])C([H])([H])[N+]([H])(C([H])([H])[H])C1([H])[H]

$$$$
66:1:0
     RDKit          3D

 45 49  0  0  1  0  0  0  0  0999 V2000
    0.9432   -0.4279    2.1512 C   0  0  0  0  0  0  0  0  0  0  0  0
    2.4359   -0.7671    2.1685 C   0  0  0  0  0  0  0  0  0  0  0  0
    3.3956    0.0635    2.2990 N   0  0  0  0  0  0  0  0  0  0  0  0
    2.9408    1.3968    2.1686 O   0  0  0  0  0  0  0  0  0  0  0  0
    2.6684   -2.2772    2.1184 C   0  0  2  0  0  0  0  0  0  0  0  0
    2.6658   -2.7043    3.4925 O   0  0  0  0  0  0  0  0  0  0  0  0
    3.1734   -3.9711    3.5096 C   0  0  0  0  0  0  0  0  0  0  0  0
    2.7256   -5.0332    4.3005 C   0  0  0  0  0  0  0  0  0  0  0  0
    2.1105   -4.8084    5.4941 O   0  0  0  0  0  0  0  0  0  0  0  0
    2.7815   -6.3608    3.7858 C   0  0  0  0  0  0  0  0  0  0  0  0
    3.1308   -6.5740    2.4356 C   0  0  0  0  0  0  0  0  0  0  0  0
    3.5829   -5.5007    1.6399 C   0  0  0  0  0  0  0  0  0  0  0  0
    3.7868   -4.2638    2.3062 C   0  0  0  0  0  0  0  0  0  0  0  0
    3.9784   -2.9872    1.5699 C   0  0  2  0  0  0  0  0  0  0  0  0
    5.0007   -1.9836    1.7045 O   0  0  0  0  0  0  0  0  0  0  0  0
    5.0803   -1.9313    0.2175 C   0  0  2  0  0  0  0  0  0  0  0  0
    4.1608   -1.0764   -0.6955 C   0  0  0  0  0  0  0  0  0  0  0  0
    3.4516   -1.8790   -1.7420 N   0  0  1  0  0  0  0  0  0  0  0  0
    4.2643   -2.0769   -2.9652 C   0  0  0  0  0  0  0  0  0  0  0  0
    2.8353   -3.1485   -1.2487 C   0  0  0  0  0  0  0  0  0  0  0  0
    3.8961   -4.1170   -0.6897 C   0  0  2  0  0  0  0  0  0  0  0  0
    3.4410   -5.4010    0.0857 C   0  0  0  0  0  0  0  0  0  0  0  0
    4.7199   -3.3644    0.2605 C   0  0  2  0  0  0  0  0  0  0  0  0
    5.9054   -4.1488    0.3489 O   0  0  0  0  0  0  0  0  0  0  0  0
    0.4599   -0.8558    1.2888 H   0  0  0  0  0  0  0  0  0  0  0  0
    0.7423    0.6404    2.1641 H   0  0  0  0  0  0  0  0  0  0  0  0
    0.4768   -0.8756    3.0346 H   0  0  0  0  0  0  0  0  0  0  0  0
    3.7591    1.8741    2.1371 H   0  0  0  0  0  0  0  0  0  0  0  0
    1.7985   -2.7263    1.6327 H   0  0  0  0  0  0  0  0  0  0  0  0
    2.1528   -3.9019    5.7608 H   0  0  0  0  0  0  0  0  0  0  0  0
    2.3876   -7.1702    4.3822 H   0  0  0  0  0  0  0  0  0  0  0  0
    2.9139   -7.5353    1.9848 H   0  0  0  0  0  0  0  0  0  0  0  0
    6.1191   -1.8323   -0.0855 H   0  0  0  0  0  0  0  0  0  0  0  0
    3.3908   -0.5191   -0.1759 H   0  0  0  0  0  0  0  0  0  0  0  0
    4.7467   -0.2975   -1.1885 H   0  0  0  0  0  0  0  0  0  0  0  0
    5.1899   -2.6051   -2.7418 H   0  0  0  0  0  0  0  0  0  0  0  0
    4.5267   -1.1218   -3.4214 H   0  0  0  0  0  0  0  0  0  0  0  0
    3.7127   -2.6600   -3.7035 H   0  0  0  0  0  0  0  0  0  0  0  0
    2.0822   -2.8989   -0.5071 H   0  0  0  0  0  0  0  0  0  0  0  0
    2.2946   -3.6242   -2.0619 H   0  0  0  0  0  0  0  0  0  0  0  0
    4.4953   -4.4505   -1.5472 H   0  0  0  0  0  0  0  0  0  0  0  0
    4.0932   -6.1983   -0.2664 H   0  0  0  0  0  0  0  0  0  0  0  0
    2.4326   -5.6899   -0.2150 H   0  0  0  0  0  0  0  0  0  0  0  0
    5.6624   -4.9477    0.7883 H   0  0  0  0  0  0  0  0  0  0  0  0
    2.6648   -1.2974   -2.0081 H   0  0  0  0  0  0  0  0  0  0  0  0
  1  2  1  0
  1 25  1  0
  1 26  1  0
  1 27  1  0
  2  3  2  3
  2  5  1  0
  3  4  1  0
  4 28  1  0
  5 14  1  0
  5  6  1  0
  5 29  1  6
  6  7  1  0
  7 13  2  0
  7  8  1  0
  8  9  1  0
  8 10  2  0
  9 30  1  0
 10 11  1  0
 10 31  1  0
 11 12  2  0
 11 32  1  0
 12 22  1  0
 12 13  1  0
 13 14  1  0
 14 23  1  0
 14 15  1  1
 15 16  1  0
 16 23  1  0
 16 17  1  0
 16 33  1  1
 17 18  1  0
 17 34  1  0
 17 35  1  0
 18 19  1  0
 18 20  1  0
 18 45  1  6
 19 36  1  0
 19 37  1  0
 19 38  1  0
 20 21  1  0
 20 39  1  0
 20 40  1  0
 21 22  1  0
 21 23  1  0
 21 41  1  6
 22 42  1  0
 22 43  1  0
 23 24  1  1
 24 44  1  0
M  CHG  1  18   1
M  END
>  <i_m_ct_stereo_status>  (249) 
1

>  <s_m_source_file>  (249) 
/var/tmp/pbs.5076255.sched01/tmppdndq9e4/92von5zo7h.sdf

>  <i_m_source_file_index>  (249) 
15

>  <i_lp_mmshare_version>  (249) 
48012

>  <i_f3d_flags>  (249) 
0

>  <s_epik_input>  (249) 
W09IXVxOPUMoXFtDSDNdKVtDQEBIXTFPYyhjMltDQEBdMTM0KWMoW09IXSlbY0hdW2NIXWMyW0NIMl1bQ0BASF01W0NAQF00KFtPSF0pW0NASF0oTzMpW0NIMl1OKFtDSDNdKVtDSDJdNQ==

>  <s_epik_cmdline>  (249) 
J2VwaWtfcHl0aG9uJywgJy1waHQnLCAnMi4wJywgJy1waCcsICc3LjAnLCAnLXRuJywgJzgnLCAnLW1hJywgJzIwMCcsICctaW1hZScsICc8aW5maWxlLm1hZT4nLCAnLW9tYWUnLCAnPG91dGZpbGUubWFlPic=

>  <r_lp_tautomer_probability>  (249) 
1

>  <r_epik_Ionization_Penalty>  (249) 
0.0306226

>  <r_epik_Ionization_Penalty_Charging>  (249) 
0.0216517

>  <r_epik_Ionization_Penalty_Neutral>  (249) 
0.0089709

>  <r_epik_State_Penalty>  (249) 
0.0239458

>  <r_epik_Charging_Adjusted_Penalty>  (249) 
0.0455975

>  <i_epik_Tot_Q>  (249) 
1

>  <i_epik_Tot_abs_Q>  (249) 
1

>  <s_epik_Chemistry_Notes>  (249) 
This compound has an imine and may undergo hydrolysis.

>  <s_lp_Force_Field>  (249) 
OPLS3e

>  <r_lp_Energy>  (249) 
126.825

>  <b_lp_Chiralities_Consistent>  (249) 
1

>  <s_lp_Variant>  (249) 
66:0-2

>  <s_i_glide_gridfile>  (249) 
pfpi4k_grid

>  <i_i_glide_lignum>  (249) 
15

>  <i_i_glide_rotatable_bonds>  (249) 
4

>  <r_i_docking_score>  (249) 
-3.66972

>  <r_i_glide_ligand_efficiency>  (249) 
-0.152905

>  <r_i_glide_ligand_efficiency_sa>  (249) 
-0.441054

>  <r_i_glide_ligand_efficiency_ln>  (249) 
-0.878332

>  <r_i_glide_gscore>  (249) 
-3.66972

>  <r_i_glide_lipo>  (249) 
-0.179244

>  <r_i_glide_hbond>  (249) 
-0.361649

>  <r_i_glide_metal>  (249) 
-0

>  <r_i_glide_rewards>  (249) 
-1.13619

>  <r_i_glide_evdw>  (249) 
-19.097

>  <r_i_glide_ecoul>  (249) 
-8.46955

>  <r_i_glide_erotb>  (249) 
0.339184

>  <r_i_glide_esite>  (249) 
-0.106542

>  <r_i_glide_emodel>  (249) 
-33.1825

>  <r_i_glide_energy>  (249) 
-27.5665

>  <r_i_glide_einternal>  (249) 
1.91161

>  <r_i_glide_intrahb_reward>  (249) 
-0

>  <i_i_glide_confnum>  (249) 
4

>  <i_i_glide_posenum>  (249) 
2

>  <r_i_glide_eff_state_penalty>  (249) 
0

>  <ligand_id>  (249) 
66

>  <original_smiles>  (249) 
CC(=NO)C1Oc2c(O)ccc3c2C12OC1CN(C)CC(C3)C12O

>  <smiles>  (249) 
[H]ON=C(C([H])([H])[H])C1([H])Oc2c(O[H])c([H])c([H])c3c2C12OC1([H])C2(O[H])C([H])(C3([H])[H])C([H])([H])[N+]([H])(C([H])([H])[H])C1([H])[H]

$$$$
66:1:1
     RDKit          3D

 45 49  0  0  1  0  0  0  0  0999 V2000
    3.1078   -6.0599    1.2709 C   0  0  0  0  0  0  0  0  0  0  0  0
    4.4749   -5.6443    0.7311 C   0  0  0  0  0  0  0  0  0  0  0  0
    5.5788   -6.2679    0.9079 N   0  0  0  0  0  0  0  0  0  0  0  0
    5.4256   -7.4126    1.7437 O   0  0  0  0  0  0  0  0  0  0  0  0
    4.3987   -4.3987   -0.1543 C   0  0  2  0  0  0  0  0  0  0  0  0
    4.8980   -4.8233   -1.4471 O   0  0  0  0  0  0  0  0  0  0  0  0
    5.0640   -3.6956   -2.1802 C   0  0  0  0  0  0  0  0  0  0  0  0
    4.6842   -3.4692   -3.5107 C   0  0  0  0  0  0  0  0  0  0  0  0
    4.6081   -4.5170   -4.3674 O   0  0  0  0  0  0  0  0  0  0  0  0
    4.2513   -2.1821   -3.9004 C   0  0  0  0  0  0  0  0  0  0  0  0
    4.1155   -1.1589   -2.9497 C   0  0  0  0  0  0  0  0  0  0  0  0
    4.4969   -1.3946   -1.6232 C   0  0  0  0  0  0  0  0  0  0  0  0
    5.1580   -2.6209   -1.3494 C   0  0  0  0  0  0  0  0  0  0  0  0
    5.3106   -3.1351    0.0296 C   0  0  2  0  0  0  0  0  0  0  0  0
    6.4628   -3.6665    0.7253 O   0  0  0  0  0  0  0  0  0  0  0  0
    6.0503   -2.8426    1.8852 C   0  0  2  0  0  0  0  0  0  0  0  0
    5.0699   -3.3288    2.9872 C   0  0  0  0  0  0  0  0  0  0  0  0
    3.9128   -2.3877    3.1939 N   0  0  1  0  0  0  0  0  0  0  0  0
    4.2314   -1.2683    4.1272 C   0  0  0  0  0  0  0  0  0  0  0  0
    3.2643   -1.9061    1.9274 C   0  0  0  0  0  0  0  0  0  0  0  0
    4.2632   -1.0995    1.0600 C   0  0  2  0  0  0  0  0  0  0  0  0
    3.8582   -0.7056   -0.3868 C   0  0  0  0  0  0  0  0  0  0  0  0
    5.4899   -1.8896    0.9043 C   0  0  2  0  0  0  0  0  0  0  0  0
    6.4895   -0.9533    0.4881 O   0  0  0  0  0  0  0  0  0  0  0  0
    2.6756   -5.2453    1.8506 H   0  0  0  0  0  0  0  0  0  0  0  0
    3.1270   -6.9465    1.9010 H   0  0  0  0  0  0  0  0  0  0  0  0
    2.4300   -6.2579    0.4379 H   0  0  0  0  0  0  0  0  0  0  0  0
    4.4914   -7.4404    1.8652 H   0  0  0  0  0  0  0  0  0  0  0  0
    3.3436   -4.0964   -0.2390 H   0  0  0  0  0  0  0  0  0  0  0  0
    4.5678   -5.3497   -3.9127 H   0  0  0  0  0  0  0  0  0  0  0  0
    3.9135   -2.0076   -4.9015 H   0  0  0  0  0  0  0  0  0  0  0  0
    3.5818   -0.2610   -3.2360 H   0  0  0  0  0  0  0  0  0  0  0  0
    6.8995   -2.3429    2.2995 H   0  0  0  0  0  0  0  0  0  0  0  0
    4.6913   -4.3306    2.8270 H   0  0  0  0  0  0  0  0  0  0  0  0
    5.6050   -3.4186    3.9340 H   0  0  0  0  0  0  0  0  0  0  0  0
    5.0667   -0.6590    3.7567 H   0  0  0  0  0  0  0  0  0  0  0  0
    4.4998   -1.6626    5.1150 H   0  0  0  0  0  0  0  0  0  0  0  0
    3.3536   -0.6190    4.2485 H   0  0  0  0  0  0  0  0  0  0  0  0
    2.8507   -2.7656    1.3966 H   0  0  0  0  0  0  0  0  0  0  0  0
    2.4123   -1.2707    2.1727 H   0  0  0  0  0  0  0  0  0  0  0  0
    4.4624   -0.1662    1.6002 H   0  0  0  0  0  0  0  0  0  0  0  0
    4.2385    0.2991   -0.4766 H   0  0  0  0  0  0  0  0  0  0  0  0
    2.7715   -0.7449   -0.4819 H   0  0  0  0  0  0  0  0  0  0  0  0
    6.7660   -0.4622    1.2494 H   0  0  0  0  0  0  0  0  0  0  0  0
    3.2098   -2.9323    3.6748 H   0  0  0  0  0  0  0  0  0  0  0  0
  1  2  1  0
  1 25  1  0
  1 26  1  0
  1 27  1  0
  2  3  2  3
  2  5  1  0
  3  4  1  0
  4 28  1  0
  5 14  1  0
  5  6  1  0
  5 29  1  6
  6  7  1  0
  7 13  2  0
  7  8  1  0
  8  9  1  0
  8 10  2  0
  9 30  1  0
 10 11  1  0
 10 31  1  0
 11 12  2  0
 11 32  1  0
 12 22  1  0
 12 13  1  0
 13 14  1  0
 14 23  1  0
 14 15  1  6
 15 16  1  0
 16 23  1  0
 16 17  1  0
 16 33  1  1
 17 18  1  0
 17 34  1  0
 17 35  1  0
 18 19  1  0
 18 20  1  0
 18 45  1  1
 19 36  1  0
 19 37  1  0
 19 38  1  0
 20 21  1  0
 20 39  1  0
 20 40  1  0
 21 22  1  0
 21 23  1  0
 21 41  1  1
 22 42  1  0
 22 43  1  0
 23 24  1  6
 24 44  1  0
M  CHG  1  18   1
M  END
>  <i_m_ct_stereo_status>  (250) 
1

>  <s_m_source_file>  (250) 
/var/tmp/pbs.5076255.sched01/tmppdndq9e4/92von5zo7h.sdf

>  <i_m_source_file_index>  (250) 
15

>  <i_lp_mmshare_version>  (250) 
48012

>  <i_f3d_flags>  (250) 
0

>  <s_epik_input>  (250) 
W09IXVxOPUMoXFtDSDNdKVtDQEBIXTFPYyhjMltDQEBdMTM0KWMoW09IXSlbY0hdW2NIXWMyW0NIMl1bQ0BASF01W0NAQF00KFtPSF0pW0NASF0oTzMpW0NIMl1OKFtDSDNdKVtDSDJdNQ==

>  <s_epik_cmdline>  (250) 
J2VwaWtfcHl0aG9uJywgJy1waHQnLCAnMi4wJywgJy1waCcsICc3LjAnLCAnLXRuJywgJzgnLCAnLW1hJywgJzIwMCcsICctaW1hZScsICc8aW5maWxlLm1hZT4nLCAnLW9tYWUnLCAnPG91dGZpbGUubWFlPic=

>  <r_lp_tautomer_probability>  (250) 
1

>  <r_epik_Ionization_Penalty>  (250) 
0.0306226

>  <r_epik_Ionization_Penalty_Charging>  (250) 
0.0216517

>  <r_epik_Ionization_Penalty_Neutral>  (250) 
0.0089709

>  <r_epik_State_Penalty>  (250) 
0.0239458

>  <r_epik_Charging_Adjusted_Penalty>  (250) 
0.0455975

>  <i_epik_Tot_Q>  (250) 
1

>  <i_epik_Tot_abs_Q>  (250) 
1

>  <s_epik_Chemistry_Notes>  (250) 
This compound has an imine and may undergo hydrolysis.

>  <s_lp_Force_Field>  (250) 
OPLS3e

>  <r_lp_Energy>  (250) 
126.825

>  <b_lp_Chiralities_Consistent>  (250) 
1

>  <s_lp_Variant>  (250) 
66:0-2

>  <s_i_glide_gridfile>  (250) 
pfpi4k_grid

>  <i_i_glide_lignum>  (250) 
15

>  <i_i_glide_rotatable_bonds>  (250) 
4

>  <r_i_docking_score>  (250) 
-3.33235

>  <r_i_glide_ligand_efficiency>  (250) 
-0.138848

>  <r_i_glide_ligand_efficiency_sa>  (250) 
-0.400506

>  <r_i_glide_ligand_efficiency_ln>  (250) 
-0.797584

>  <r_i_glide_gscore>  (250) 
-3.33235

>  <r_i_glide_lipo>  (250) 
-0.579091

>  <r_i_glide_hbond>  (250) 
0

>  <r_i_glide_metal>  (250) 
-0

>  <r_i_glide_rewards>  (250) 
-1.23764

>  <r_i_glide_evdw>  (250) 
-16.8558

>  <r_i_glide_ecoul>  (250) 
-6.74672

>  <r_i_glide_erotb>  (250) 
0.339184

>  <r_i_glide_esite>  (250) 
0

>  <r_i_glide_emodel>  (250) 
-28.3787

>  <r_i_glide_energy>  (250) 
-23.6025

>  <r_i_glide_einternal>  (250) 
1.06125

>  <r_i_glide_intrahb_reward>  (250) 
-0

>  <i_i_glide_confnum>  (250) 
1

>  <i_i_glide_posenum>  (250) 
4

>  <r_i_glide_eff_state_penalty>  (250) 
0

>  <ligand_id>  (250) 
66

>  <original_smiles>  (250) 
CC(=NO)C1Oc2c(O)ccc3c2C12OC1CN(C)CC(C3)C12O

>  <smiles>  (250) 
[H]ON=C(C([H])([H])[H])C1([H])Oc2c(O[H])c([H])c([H])c3c2C12OC1([H])C2(O[H])C([H])(C3([H])[H])C([H])([H])[N+]([H])(C([H])([H])[H])C1([H])[H]

$$$$
66:1:2
     RDKit          3D

 45 49  0  0  1  0  0  0  0  0999 V2000
    1.9798    0.1182    1.5246 C   0  0  0  0  0  0  0  0  0  0  0  0
    2.6008   -0.7714    2.6033 C   0  0  0  0  0  0  0  0  0  0  0  0
    3.2177   -0.3687    3.6580 N   0  0  0  0  0  0  0  0  0  0  0  0
    3.2323    1.0474    3.7573 O   0  0  0  0  0  0  0  0  0  0  0  0
    2.3318   -2.2563    2.4039 C   0  0  2  0  0  0  0  0  0  0  0  0
    1.9030   -2.7923    3.6940 O   0  0  0  0  0  0  0  0  0  0  0  0
    1.9897   -4.1423    3.6185 C   0  0  0  0  0  0  0  0  0  0  0  0
    1.0584   -5.0898    4.1124 C   0  0  0  0  0  0  0  0  0  0  0  0
    0.2718   -4.7601    5.1818 O   0  0  0  0  0  0  0  0  0  0  0  0
    0.8392   -6.2818    3.4139 C   0  0  0  0  0  0  0  0  0  0  0  0
    1.4169   -6.4853    2.1409 C   0  0  0  0  0  0  0  0  0  0  0  0
    2.3347   -5.5356    1.6431 C   0  0  0  0  0  0  0  0  0  0  0  0
    2.7472   -4.5127    2.5207 C   0  0  0  0  0  0  0  0  0  0  0  0
    3.4734   -3.2969    2.0581 C   0  0  2  0  0  0  0  0  0  0  0  0
    4.6713   -2.6397    2.5593 O   0  0  0  0  0  0  0  0  0  0  0  0
    5.1906   -2.5884    1.1683 C   0  0  2  0  0  0  0  0  0  0  0  0
    4.8987   -1.3706    0.2597 C   0  0  0  0  0  0  0  0  0  0  0  0
    4.1787   -1.7790   -1.0245 N   0  0  1  0  0  0  0  0  0  0  0  0
    5.1480   -2.1473   -2.1040 C   0  0  0  0  0  0  0  0  0  0  0  0
    3.0976   -2.8268   -0.8904 C   0  0  0  0  0  0  0  0  0  0  0  0
    3.6410   -4.1511   -0.3154 C   0  0  2  0  0  0  0  0  0  0  0  0
    2.6228   -5.2701    0.1231 C   0  0  0  0  0  0  0  0  0  0  0  0
    4.3850   -3.8061    0.9068 C   0  0  2  0  0  0  0  0  0  0  0  0
    5.1777   -4.9667    1.1476 O   0  0  0  0  0  0  0  0  0  0  0  0
    2.3254   -0.1756    0.5270 H   0  0  0  0  0  0  0  0  0  0  0  0
    2.2075    1.1761    1.6352 H   0  0  0  0  0  0  0  0  0  0  0  0
    0.8905    0.0067    1.5349 H   0  0  0  0  0  0  0  0  0  0  0  0
    2.9284    1.2986    2.8982 H   0  0  0  0  0  0  0  0  0  0  0  0
    1.4873   -2.3418    1.7126 H   0  0  0  0  0  0  0  0  0  0  0  0
    0.5435   -3.9536    5.5908 H   0  0  0  0  0  0  0  0  0  0  0  0
    0.0777   -6.9577    3.7740 H   0  0  0  0  0  0  0  0  0  0  0  0
    1.0312   -7.2649    1.5064 H   0  0  0  0  0  0  0  0  0  0  0  0
    6.2411   -2.8528    1.1696 H   0  0  0  0  0  0  0  0  0  0  0  0
    4.4293   -0.5512    0.8392 H   0  0  0  0  0  0  0  0  0  0  0  0
    5.8552   -0.9266   -0.0484 H   0  0  0  0  0  0  0  0  0  0  0  0
    5.7812   -2.9842   -1.8004 H   0  0  0  0  0  0  0  0  0  0  0  0
    5.7863   -1.2892   -2.3198 H   0  0  0  0  0  0  0  0  0  0  0  0
    4.6255   -2.4238   -3.0213 H   0  0  0  0  0  0  0  0  0  0  0  0
    2.3035   -2.4400   -0.2579 H   0  0  0  0  0  0  0  0  0  0  0  0
    2.6510   -3.0092   -1.8669 H   0  0  0  0  0  0  0  0  0  0  0  0
    4.2936   -4.5942   -1.0901 H   0  0  0  0  0  0  0  0  0  0  0  0
    3.0831   -6.1970   -0.2053 H   0  0  0  0  0  0  0  0  0  0  0  0
    1.6843   -5.1488   -0.4153 H   0  0  0  0  0  0  0  0  0  0  0  0
    5.6958   -5.1064    0.3684 H   0  0  0  0  0  0  0  0  0  0  0  0
    3.6972   -0.9587   -1.3481 H   0  0  0  0  0  0  0  0  0  0  0  0
  1  2  1  0
  1 25  1  0
  1 26  1  0
  1 27  1  0
  2  3  2  3
  2  5  1  0
  3  4  1  0
  4 28  1  0
  5 14  1  0
  5  6  1  0
  5 29  1  6
  6  7  1  0
  7 13  2  0
  7  8  1  0
  8  9  1  0
  8 10  2  0
  9 30  1  0
 10 11  1  0
 10 31  1  0
 11 12  2  0
 11 32  1  0
 12 22  1  0
 12 13  1  0
 13 14  1  0
 14 23  1  0
 14 15  1  1
 15 16  1  0
 16 23  1  0
 16 17  1  0
 16 33  1  1
 17 18  1  0
 17 34  1  0
 17 35  1  0
 18 19  1  0
 18 20  1  0
 18 45  1  6
 19 36  1  0
 19 37  1  0
 19 38  1  0
 20 21  1  0
 20 39  1  0
 20 40  1  0
 21 22  1  0
 21 23  1  0
 21 41  1  6
 22 42  1  0
 22 43  1  0
 23 24  1  1
 24 44  1  0
M  CHG  1  18   1
M  END
>  <i_m_ct_stereo_status>  (251) 
1

>  <s_m_source_file>  (251) 
/var/tmp/pbs.5076255.sched01/tmppdndq9e4/92von5zo7h.sdf

>  <i_m_source_file_index>  (251) 
15

>  <i_lp_mmshare_version>  (251) 
48012

>  <i_f3d_flags>  (251) 
0

>  <s_epik_input>  (251) 
W09IXVxOPUMoXFtDSDNdKVtDQEBIXTFPYyhjMltDQEBdMTM0KWMoW09IXSlbY0hdW2NIXWMyW0NIMl1bQ0BASF01W0NAQF00KFtPSF0pW0NASF0oTzMpW0NIMl1OKFtDSDNdKVtDSDJdNQ==

>  <s_epik_cmdline>  (251) 
J2VwaWtfcHl0aG9uJywgJy1waHQnLCAnMi4wJywgJy1waCcsICc3LjAnLCAnLXRuJywgJzgnLCAnLW1hJywgJzIwMCcsICctaW1hZScsICc8aW5maWxlLm1hZT4nLCAnLW9tYWUnLCAnPG91dGZpbGUubWFlPic=

>  <r_lp_tautomer_probability>  (251) 
1

>  <r_epik_Ionization_Penalty>  (251) 
0.0306226

>  <r_epik_Ionization_Penalty_Charging>  (251) 
0.0216517

>  <r_epik_Ionization_Penalty_Neutral>  (251) 
0.0089709

>  <r_epik_State_Penalty>  (251) 
0.0239458

>  <r_epik_Charging_Adjusted_Penalty>  (251) 
0.0455975

>  <i_epik_Tot_Q>  (251) 
1

>  <i_epik_Tot_abs_Q>  (251) 
1

>  <s_epik_Chemistry_Notes>  (251) 
This compound has an imine and may undergo hydrolysis.

>  <s_lp_Force_Field>  (251) 
OPLS3e

>  <r_lp_Energy>  (251) 
126.825

>  <b_lp_Chiralities_Consistent>  (251) 
1

>  <s_lp_Variant>  (251) 
66:0-2

>  <s_i_glide_gridfile>  (251) 
pfpi4k_grid

>  <i_i_glide_lignum>  (251) 
15

>  <i_i_glide_rotatable_bonds>  (251) 
4

>  <r_i_docking_score>  (251) 
-2.71426

>  <r_i_glide_ligand_efficiency>  (251) 
-0.113094

>  <r_i_glide_ligand_efficiency_sa>  (251) 
-0.32622

>  <r_i_glide_ligand_efficiency_ln>  (251) 
-0.649646

>  <r_i_glide_gscore>  (251) 
-2.71426

>  <r_i_glide_lipo>  (251) 
-0.0865655

>  <r_i_glide_hbond>  (251) 
0

>  <r_i_glide_metal>  (251) 
-0

>  <r_i_glide_rewards>  (251) 
-1.13619

>  <r_i_glide_evdw>  (251) 
-19.6131

>  <r_i_glide_ecoul>  (251) 
-5.30828

>  <r_i_glide_erotb>  (251) 
0.339184

>  <r_i_glide_esite>  (251) 
-0.053789

>  <r_i_glide_emodel>  (251) 
-28.914

>  <r_i_glide_energy>  (251) 
-24.9214

>  <r_i_glide_einternal>  (251) 
0.804474

>  <r_i_glide_intrahb_reward>  (251) 
-0

>  <i_i_glide_confnum>  (251) 
2

>  <i_i_glide_posenum>  (251) 
8

>  <r_i_glide_eff_state_penalty>  (251) 
0

>  <ligand_id>  (251) 
66

>  <original_smiles>  (251) 
CC(=NO)C1Oc2c(O)ccc3c2C12OC1CN(C)CC(C3)C12O

>  <smiles>  (251) 
[H]ON=C(C([H])([H])[H])C1([H])Oc2c(O[H])c([H])c([H])c3c2C12OC1([H])C2(O[H])C([H])(C3([H])[H])C([H])([H])[N+]([H])(C([H])([H])[H])C1([H])[H]

$$$$
66:2:0
     RDKit          3D

 44 48  0  0  1  0  0  0  0  0999 V2000
    8.5421   -2.4660    0.0451 C   0  0  0  0  0  0  0  0  0  0  0  0
    7.8727   -3.8250    0.2117 C   0  0  0  0  0  0  0  0  0  0  0  0
    8.6545   -4.7999    0.4591 N   0  0  0  0  0  0  0  0  0  0  0  0
    7.9129   -6.0254    0.5124 O   0  0  0  0  0  0  0  0  0  0  0  0
    6.3417   -3.8639   -0.0854 C   0  0  2  0  0  0  0  0  0  0  0  0
    6.1019   -2.7287   -0.9621 O   0  0  0  0  0  0  0  0  0  0  0  0
    4.7633   -2.4867   -1.0129 C   0  0  0  0  0  0  0  0  0  0  0  0
    4.0239   -2.0938   -2.1357 C   0  0  0  0  0  0  0  0  0  0  0  0
    4.6030   -1.3644   -3.1318 O   0  0  0  0  0  0  0  0  0  0  0  0
    2.7057   -2.5897   -2.3053 C   0  0  0  0  0  0  0  0  0  0  0  0
    2.2090   -3.5543   -1.4130 C   0  0  0  0  0  0  0  0  0  0  0  0
    2.9736   -3.9401   -0.2838 C   0  0  0  0  0  0  0  0  0  0  0  0
    4.1366   -3.1860   -0.0151 C   0  0  0  0  0  0  0  0  0  0  0  0
    5.1792   -3.6353    0.9889 C   0  0  2  0  0  0  0  0  0  0  0  0
    5.8381   -2.9554    2.1051 O   0  0  0  0  0  0  0  0  0  0  0  0
    5.5795   -4.1700    2.9428 C   0  0  2  0  0  0  0  0  0  0  0  0
    6.5807   -5.3755    2.9249 C   0  0  0  0  0  0  0  0  0  0  0  0
    5.9220   -6.6814    2.5964 N   0  0  0  0  0  0  0  0  0  0  0  0
    5.2565   -7.2869    3.7517 C   0  0  0  0  0  0  0  0  0  0  0  0
    5.0059   -6.6378    1.4263 C   0  0  0  0  0  0  0  0  0  0  0  0
    3.8096   -5.6708    1.6235 C   0  0  2  0  0  0  0  0  0  0  0  0
    2.8615   -5.3262    0.4178 C   0  0  0  0  0  0  0  0  0  0  0  0
    4.3666   -4.3735    2.0873 C   0  0  2  0  0  0  0  0  0  0  0  0
    3.2538   -3.6925    2.6613 O   0  0  0  0  0  0  0  0  0  0  0  0
    8.3173   -2.0587   -0.9366 H   0  0  0  0  0  0  0  0  0  0  0  0
    9.6220   -2.5831    0.0613 H   0  0  0  0  0  0  0  0  0  0  0  0
    8.2277   -1.7619    0.8179 H   0  0  0  0  0  0  0  0  0  0  0  0
    8.4842   -6.5707    1.0224 H   0  0  0  0  0  0  0  0  0  0  0  0
    6.1243   -4.7576   -0.6819 H   0  0  0  0  0  0  0  0  0  0  0  0
    3.9785   -1.0484   -3.7612 H   0  0  0  0  0  0  0  0  0  0  0  0
    2.1459   -2.3467   -3.1892 H   0  0  0  0  0  0  0  0  0  0  0  0
    1.3293   -4.1148   -1.6896 H   0  0  0  0  0  0  0  0  0  0  0  0
    5.2838   -3.8611    3.9611 H   0  0  0  0  0  0  0  0  0  0  0  0
    7.3953   -5.2023    2.2943 H   0  0  0  0  0  0  0  0  0  0  0  0
    6.9800   -5.4739    3.9481 H   0  0  0  0  0  0  0  0  0  0  0  0
    4.7826   -8.2403    3.4912 H   0  0  0  0  0  0  0  0  0  0  0  0
    4.4856   -6.6339    4.1739 H   0  0  0  0  0  0  0  0  0  0  0  0
    5.9809   -7.4864    4.5403 H   0  0  0  0  0  0  0  0  0  0  0  0
    5.5682   -6.3812    0.5385 H   0  0  0  0  0  0  0  0  0  0  0  0
    4.6166   -7.6309    1.2191 H   0  0  0  0  0  0  0  0  0  0  0  0
    3.1900   -6.1188    2.4052 H   0  0  0  0  0  0  0  0  0  0  0  0
    1.8538   -5.3476    0.8271 H   0  0  0  0  0  0  0  0  0  0  0  0
    2.9097   -6.1273   -0.3148 H   0  0  0  0  0  0  0  0  0  0  0  0
    3.5755   -2.8353    2.8943 H   0  0  0  0  0  0  0  0  0  0  0  0
  1  2  1  0
  1 25  1  0
  1 26  1  0
  1 27  1  0
  2  3  2  3
  2  5  1  0
  3  4  1  0
  4 28  1  0
  5 14  1  0
  5  6  1  0
  5 29  1  6
  6  7  1  0
  7 13  2  0
  7  8  1  0
  8  9  1  0
  8 10  2  0
  9 30  1  0
 10 11  1  0
 10 31  1  0
 11 12  2  0
 11 32  1  0
 12 22  1  0
 12 13  1  0
 13 14  1  0
 14 23  1  0
 14 15  1  1
 15 16  1  0
 16 23  1  0
 16 17  1  0
 16 33  1  1
 17 18  1  0
 17 34  1  0
 17 35  1  0
 18 19  1  0
 18 20  1  0
 19 36  1  0
 19 37  1  0
 19 38  1  0
 20 21  1  0
 20 39  1  0
 20 40  1  0
 21 22  1  0
 21 23  1  0
 21 41  1  1
 22 42  1  0
 22 43  1  0
 23 24  1  1
 24 44  1  0
M  END
>  <i_m_ct_stereo_status>  (252) 
1

>  <s_m_source_file>  (252) 
/var/tmp/pbs.5076255.sched01/tmppdndq9e4/92von5zo7h.sdf

>  <i_m_source_file_index>  (252) 
16

>  <i_lp_mmshare_version>  (252) 
48012

>  <i_f3d_flags>  (252) 
0

>  <s_epik_input>  (252) 
W09IXVxOPUMoXFtDSDNdKVtDQEBIXTFPYyhjMltDQEBdMTM0KWMoW09IXSlbY0hdW2NIXWMyW0NIMl1bQ0BASF01W0NAQF00KFtPSF0pW0NASF0oTzMpW0NIMl1OKFtDSDNdKVtDSDJdNQ==

>  <s_epik_cmdline>  (252) 
J2VwaWtfcHl0aG9uJywgJy1waHQnLCAnMi4wJywgJy1waCcsICc3LjAnLCAnLXRuJywgJzgnLCAnLW1hJywgJzIwMCcsICctaW1hZScsICc8aW5maWxlLm1hZT4nLCAnLW9tYWUnLCAnPG91dGZpbGUubWFlPic=

>  <r_lp_tautomer_probability>  (252) 
1

>  <r_epik_Ionization_Penalty>  (252) 
1.97623

>  <r_epik_Ionization_Penalty_Charging>  (252) 
0

>  <r_epik_Ionization_Penalty_Neutral>  (252) 
1.97623

>  <r_epik_State_Penalty>  (252) 
2.10456

>  <r_epik_Charging_Adjusted_Penalty>  (252) 
2.10456

>  <i_epik_Tot_Q>  (252) 
0

>  <i_epik_Tot_abs_Q>  (252) 
0

>  <s_epik_Chemistry_Notes>  (252) 
This compound has an imine and may undergo hydrolysis.

>  <s_lp_Force_Field>  (252) 
OPLS3e

>  <r_lp_Energy>  (252) 
127.063

>  <b_lp_Chiralities_Consistent>  (252) 
1

>  <s_lp_Variant>  (252) 
66:0-3

>  <s_i_glide_gridfile>  (252) 
pfpi4k_grid

>  <i_i_glide_lignum>  (252) 
16

>  <i_i_glide_rotatable_bonds>  (252) 
4

>  <r_i_docking_score>  (252) 
-2.72354

>  <r_i_glide_ligand_efficiency>  (252) 
-0.113481

>  <r_i_glide_ligand_efficiency_sa>  (252) 
-0.327335

>  <r_i_glide_ligand_efficiency_ln>  (252) 
-0.651867

>  <r_i_glide_gscore>  (252) 
-2.72354

>  <r_i_glide_lipo>  (252) 
-0.32422

>  <r_i_glide_hbond>  (252) 
0

>  <r_i_glide_metal>  (252) 
-0

>  <r_i_glide_rewards>  (252) 
-1.39903

>  <r_i_glide_evdw>  (252) 
-23.0338

>  <r_i_glide_ecoul>  (252) 
-1.14291

>  <r_i_glide_erotb>  (252) 
0.341006

>  <r_i_glide_esite>  (252) 
-0.0181611

>  <r_i_glide_emodel>  (252) 
-25.5711

>  <r_i_glide_energy>  (252) 
-24.1767

>  <r_i_glide_einternal>  (252) 
0.971467

>  <r_i_glide_intrahb_reward>  (252) 
-0

>  <i_i_glide_confnum>  (252) 
3

>  <i_i_glide_posenum>  (252) 
7

>  <r_i_glide_eff_state_penalty>  (252) 
0

>  <ligand_id>  (252) 
66

>  <original_smiles>  (252) 
CC(=NO)C1Oc2c(O)ccc3c2C12OC1CN(C)CC(C3)C12O

>  <smiles>  (252) 
[H]ON=C(C([H])([H])[H])C1([H])Oc2c(O[H])c([H])c([H])c3c2C12OC1([H])C([H])([H])N(C([H])([H])[H])C([H])([H])C([H])(C3([H])[H])C12O[H]

$$$$
66:2:1
     RDKit          3D

 44 48  0  0  1  0  0  0  0  0999 V2000
    7.4414   -1.0623    0.8356 C   0  0  0  0  0  0  0  0  0  0  0  0
    7.2227   -2.4963    0.4141 C   0  0  0  0  0  0  0  0  0  0  0  0
    8.2027   -3.3104    0.5075 N   0  0  0  0  0  0  0  0  0  0  0  0
    7.8689   -4.6345    0.0828 O   0  0  0  0  0  0  0  0  0  0  0  0
    5.8499   -2.7972   -0.2116 C   0  0  2  0  0  0  0  0  0  0  0  0
    5.7166   -1.8543   -1.3123 O   0  0  0  0  0  0  0  0  0  0  0  0
    4.4028   -1.8573   -1.6565 C   0  0  0  0  0  0  0  0  0  0  0  0
    3.8744   -1.8022   -2.9779 C   0  0  0  0  0  0  0  0  0  0  0  0
    4.5556   -1.1993   -3.9820 O   0  0  0  0  0  0  0  0  0  0  0  0
    2.6946   -2.5055   -3.2856 C   0  0  0  0  0  0  0  0  0  0  0  0
    2.1299   -3.3805   -2.3416 C   0  0  0  0  0  0  0  0  0  0  0  0
    2.6412   -3.4306   -1.0256 C   0  0  0  0  0  0  0  0  0  0  0  0
    3.6339   -2.4793   -0.6967 C   0  0  0  0  0  0  0  0  0  0  0  0
    4.4664   -2.6091    0.5330 C   0  0  2  0  0  0  0  0  0  0  0  0
    4.7537   -1.6438    1.5616 O   0  0  0  0  0  0  0  0  0  0  0  0
    4.4892   -2.7130    2.5613 C   0  0  2  0  0  0  0  0  0  0  0  0
    5.5503   -3.7558    2.9852 C   0  0  0  0  0  0  0  0  0  0  0  0
    5.1294   -5.1676    2.8455 N   0  0  0  0  0  0  0  0  0  0  0  0
    4.3089   -5.6240    3.9618 C   0  0  0  0  0  0  0  0  0  0  0  0
    4.5052   -5.4650    1.5424 C   0  0  0  0  0  0  0  0  0  0  0  0
    3.2081   -4.6496    1.3170 C   0  0  2  0  0  0  0  0  0  0  0  0
    2.5391   -4.6730   -0.0893 C   0  0  0  0  0  0  0  0  0  0  0  0
    3.5188   -3.2409    1.5819 C   0  0  2  0  0  0  0  0  0  0  0  0
    2.2413   -2.6441    1.7785 O   0  0  0  0  0  0  0  0  0  0  0  0
    7.0458   -0.3707    0.0874 H   0  0  0  0  0  0  0  0  0  0  0  0
    8.5087   -0.8689    0.9647 H   0  0  0  0  0  0  0  0  0  0  0  0
    6.9543   -0.8502    1.7881 H   0  0  0  0  0  0  0  0  0  0  0  0
    6.9424   -4.5757   -0.0851 H   0  0  0  0  0  0  0  0  0  0  0  0
    5.8664   -3.7863   -0.6567 H   0  0  0  0  0  0  0  0  0  0  0  0
    5.2851   -0.7038   -3.6471 H   0  0  0  0  0  0  0  0  0  0  0  0
    2.3305   -2.5103   -4.3045 H   0  0  0  0  0  0  0  0  0  0  0  0
    1.4179   -4.1056   -2.6624 H   0  0  0  0  0  0  0  0  0  0  0  0
    3.9600   -2.3140    3.4218 H   0  0  0  0  0  0  0  0  0  0  0  0
    6.4860   -3.6251    2.4619 H   0  0  0  0  0  0  0  0  0  0  0  0
    5.8035   -3.5811    4.0287 H   0  0  0  0  0  0  0  0  0  0  0  0
    4.0097   -6.6615    3.8147 H   0  0  0  0  0  0  0  0  0  0  0  0
    3.4043   -5.0252    4.0697 H   0  0  0  0  0  0  0  0  0  0  0  0
    4.8601   -5.5682    4.8985 H   0  0  0  0  0  0  0  0  0  0  0  0
    5.2361   -5.2739    0.7574 H   0  0  0  0  0  0  0  0  0  0  0  0
    4.2854   -6.5317    1.4742 H   0  0  0  0  0  0  0  0  0  0  0  0
    2.4704   -5.0497    2.0162 H   0  0  0  0  0  0  0  0  0  0  0  0
    1.4745   -4.7956    0.0658 H   0  0  0  0  0  0  0  0  0  0  0  0
    2.8521   -5.5655   -0.6129 H   0  0  0  0  0  0  0  0  0  0  0  0
    2.1850   -1.9366    1.1515 H   0  0  0  0  0  0  0  0  0  0  0  0
  1  2  1  0
  1 25  1  0
  1 26  1  0
  1 27  1  0
  2  3  2  3
  2  5  1  0
  3  4  1  0
  4 28  1  0
  5 14  1  0
  5  6  1  0
  5 29  1  6
  6  7  1  0
  7 13  2  0
  7  8  1  0
  8  9  1  0
  8 10  2  0
  9 30  1  0
 10 11  1  0
 10 31  1  0
 11 12  2  0
 11 32  1  0
 12 22  1  0
 12 13  1  0
 13 14  1  0
 14 23  1  0
 14 15  1  1
 15 16  1  0
 16 23  1  0
 16 17  1  0
 16 33  1  1
 17 18  1  0
 17 34  1  0
 17 35  1  0
 18 19  1  0
 18 20  1  0
 19 36  1  0
 19 37  1  0
 19 38  1  0
 20 21  1  0
 20 39  1  0
 20 40  1  0
 21 22  1  0
 21 23  1  0
 21 41  1  1
 22 42  1  0
 22 43  1  0
 23 24  1  1
 24 44  1  0
M  END
>  <i_m_ct_stereo_status>  (253) 
1

>  <s_m_source_file>  (253) 
/var/tmp/pbs.5076255.sched01/tmppdndq9e4/92von5zo7h.sdf

>  <i_m_source_file_index>  (253) 
16

>  <i_lp_mmshare_version>  (253) 
48012

>  <i_f3d_flags>  (253) 
0

>  <s_epik_input>  (253) 
W09IXVxOPUMoXFtDSDNdKVtDQEBIXTFPYyhjMltDQEBdMTM0KWMoW09IXSlbY0hdW2NIXWMyW0NIMl1bQ0BASF01W0NAQF00KFtPSF0pW0NASF0oTzMpW0NIMl1OKFtDSDNdKVtDSDJdNQ==

>  <s_epik_cmdline>  (253) 
J2VwaWtfcHl0aG9uJywgJy1waHQnLCAnMi4wJywgJy1waCcsICc3LjAnLCAnLXRuJywgJzgnLCAnLW1hJywgJzIwMCcsICctaW1hZScsICc8aW5maWxlLm1hZT4nLCAnLW9tYWUnLCAnPG91dGZpbGUubWFlPic=

>  <r_lp_tautomer_probability>  (253) 
1

>  <r_epik_Ionization_Penalty>  (253) 
1.97623

>  <r_epik_Ionization_Penalty_Charging>  (253) 
0

>  <r_epik_Ionization_Penalty_Neutral>  (253) 
1.97623

>  <r_epik_State_Penalty>  (253) 
2.10456

>  <r_epik_Charging_Adjusted_Penalty>  (253) 
2.10456

>  <i_epik_Tot_Q>  (253) 
0

>  <i_epik_Tot_abs_Q>  (253) 
0

>  <s_epik_Chemistry_Notes>  (253) 
This compound has an imine and may undergo hydrolysis.

>  <s_lp_Force_Field>  (253) 
OPLS3e

>  <r_lp_Energy>  (253) 
127.063

>  <b_lp_Chiralities_Consistent>  (253) 
1

>  <s_lp_Variant>  (253) 
66:0-3

>  <s_i_glide_gridfile>  (253) 
pfpi4k_grid

>  <i_i_glide_lignum>  (253) 
16

>  <i_i_glide_rotatable_bonds>  (253) 
4

>  <r_i_docking_score>  (253) 
-2.72007

>  <r_i_glide_ligand_efficiency>  (253) 
-0.113336

>  <r_i_glide_ligand_efficiency_sa>  (253) 
-0.326918

>  <r_i_glide_ligand_efficiency_ln>  (253) 
-0.651038

>  <r_i_glide_gscore>  (253) 
-2.72007

>  <r_i_glide_lipo>  (253) 
-0.540733

>  <r_i_glide_hbond>  (253) 
-0.00576204

>  <r_i_glide_metal>  (253) 
-0

>  <r_i_glide_rewards>  (253) 
-1.33207

>  <r_i_glide_evdw>  (253) 
-18.6853

>  <r_i_glide_ecoul>  (253) 
-1.65495

>  <r_i_glide_erotb>  (253) 
0.341006

>  <r_i_glide_esite>  (253) 
0

>  <r_i_glide_emodel>  (253) 
-23.2224

>  <r_i_glide_energy>  (253) 
-20.3403

>  <r_i_glide_einternal>  (253) 
1.94256

>  <r_i_glide_intrahb_reward>  (253) 
-0

>  <i_i_glide_confnum>  (253) 
5

>  <i_i_glide_posenum>  (253) 
13

>  <r_i_glide_eff_state_penalty>  (253) 
0

>  <ligand_id>  (253) 
66

>  <original_smiles>  (253) 
CC(=NO)C1Oc2c(O)ccc3c2C12OC1CN(C)CC(C3)C12O

>  <smiles>  (253) 
[H]ON=C(C([H])([H])[H])C1([H])Oc2c(O[H])c([H])c([H])c3c2C12OC1([H])C([H])([H])N(C([H])([H])[H])C([H])([H])C([H])(C3([H])[H])C12O[H]

$$$$
66:2:2
     RDKit          3D

 44 48  0  0  1  0  0  0  0  0999 V2000
    8.5132   -2.3617   -0.2070 C   0  0  0  0  0  0  0  0  0  0  0  0
    7.7960   -3.6829    0.0454 C   0  0  0  0  0  0  0  0  0  0  0  0
    8.5510   -4.6705    0.3187 N   0  0  0  0  0  0  0  0  0  0  0  0
    7.8020   -5.8986    0.4575 O   0  0  0  0  0  0  0  0  0  0  0  0
    6.2772   -3.7102   -0.2413 C   0  0  2  0  0  0  0  0  0  0  0  0
    6.0624   -2.6416   -1.1979 O   0  0  0  0  0  0  0  0  0  0  0  0
    4.7426   -2.3780   -1.2512 C   0  0  0  0  0  0  0  0  0  0  0  0
    4.0016   -2.0486   -2.4165 C   0  0  0  0  0  0  0  0  0  0  0  0
    4.5968   -1.4152   -3.4615 O   0  0  0  0  0  0  0  0  0  0  0  0
    2.6777   -2.5120   -2.5513 C   0  0  0  0  0  0  0  0  0  0  0  0
    2.1539   -3.3490   -1.5626 C   0  0  0  0  0  0  0  0  0  0  0  0
    2.9004   -3.7133   -0.4253 C   0  0  0  0  0  0  0  0  0  0  0  0
    4.1002   -2.9850   -0.2221 C   0  0  0  0  0  0  0  0  0  0  0  0
    5.1233   -3.4009    0.8107 C   0  0  2  0  0  0  0  0  0  0  0  0
    5.8156   -2.6693    1.8680 O   0  0  0  0  0  0  0  0  0  0  0  0
    5.5157   -3.8038    2.8004 C   0  0  2  0  0  0  0  0  0  0  0  0
    6.4990   -5.0302    2.8691 C   0  0  0  0  0  0  0  0  0  0  0  0
    5.7987   -6.3331    2.6229 N   0  0  0  0  0  0  0  0  0  0  0  0
    5.1269   -6.8510    3.8194 C   0  0  0  0  0  0  0  0  0  0  0  0
    4.8753   -6.3571    1.4587 C   0  0  0  0  0  0  0  0  0  0  0  0
    3.7069   -5.3543    1.5870 C   0  0  2  0  0  0  0  0  0  0  0  0
    2.7837   -5.0651    0.3519 C   0  0  0  0  0  0  0  0  0  0  0  0
    4.2995   -4.0432    1.9564 C   0  0  2  0  0  0  0  0  0  0  0  0
    3.2000   -3.2972    2.4765 O   0  0  0  0  0  0  0  0  0  0  0  0
    8.3079   -2.0342   -1.2225 H   0  0  0  0  0  0  0  0  0  0  0  0
    9.5890   -2.5199   -0.1857 H   0  0  0  0  0  0  0  0  0  0  0  0
    8.2173   -1.5968    0.5154 H   0  0  0  0  0  0  0  0  0  0  0  0
    6.9204   -5.5901    0.6410 H   0  0  0  0  0  0  0  0  0  0  0  0
    6.0569   -4.6401   -0.7666 H   0  0  0  0  0  0  0  0  0  0  0  0
    3.9664   -1.0978   -4.0904 H   0  0  0  0  0  0  0  0  0  0  0  0
    2.1143   -2.3340   -3.4539 H   0  0  0  0  0  0  0  0  0  0  0  0
    1.2865   -3.9587   -1.8315 H   0  0  0  0  0  0  0  0  0  0  0  0
    5.2171   -3.4034    3.7907 H   0  0  0  0  0  0  0  0  0  0  0  0
    7.3402   -4.9113    2.2269 H   0  0  0  0  0  0  0  0  0  0  0  0
    6.8785   -5.0757    3.9116 H   0  0  0  0  0  0  0  0  0  0  0  0
    4.6318   -7.8133    3.6247 H   0  0  0  0  0  0  0  0  0  0  0  0
    4.3723   -6.1521    4.1978 H   0  0  0  0  0  0  0  0  0  0  0  0
    5.8533   -7.0070    4.6175 H   0  0  0  0  0  0  0  0  0  0  0  0
    5.4198   -6.1842    0.5446 H   0  0  0  0  0  0  0  0  0  0  0  0
    4.4666   -7.3553    1.3255 H   0  0  0  0  0  0  0  0  0  0  0  0
    3.0774   -5.7314    2.4004 H   0  0  0  0  0  0  0  0  0  0  0  0
    1.7844   -5.0474    0.7709 H   0  0  0  0  0  0  0  0  0  0  0  0
    2.8065   -5.9232   -0.3151 H   0  0  0  0  0  0  0  0  0  0  0  0
    3.5352   -2.4251    2.6166 H   0  0  0  0  0  0  0  0  0  0  0  0
  1  2  1  0
  1 25  1  0
  1 26  1  0
  1 27  1  0
  2  3  2  3
  2  5  1  0
  3  4  1  0
  4 28  1  0
  5 14  1  0
  5  6  1  0
  5 29  1  6
  6  7  1  0
  7 13  2  0
  7  8  1  0
  8  9  1  0
  8 10  2  0
  9 30  1  0
 10 11  1  0
 10 31  1  0
 11 12  2  0
 11 32  1  0
 12 22  1  0
 12 13  1  0
 13 14  1  0
 14 23  1  0
 14 15  1  1
 15 16  1  0
 16 23  1  0
 16 17  1  0
 16 33  1  1
 17 18  1  0
 17 34  1  0
 17 35  1  0
 18 19  1  0
 18 20  1  0
 19 36  1  0
 19 37  1  0
 19 38  1  0
 20 21  1  0
 20 39  1  0
 20 40  1  0
 21 22  1  0
 21 23  1  0
 21 41  1  1
 22 42  1  0
 22 43  1  0
 23 24  1  1
 24 44  1  0
M  END
>  <i_m_ct_stereo_status>  (254) 
1

>  <s_m_source_file>  (254) 
/var/tmp/pbs.5076255.sched01/tmppdndq9e4/92von5zo7h.sdf

>  <i_m_source_file_index>  (254) 
16

>  <i_lp_mmshare_version>  (254) 
48012

>  <i_f3d_flags>  (254) 
0

>  <s_epik_input>  (254) 
W09IXVxOPUMoXFtDSDNdKVtDQEBIXTFPYyhjMltDQEBdMTM0KWMoW09IXSlbY0hdW2NIXWMyW0NIMl1bQ0BASF01W0NAQF00KFtPSF0pW0NASF0oTzMpW0NIMl1OKFtDSDNdKVtDSDJdNQ==

>  <s_epik_cmdline>  (254) 
J2VwaWtfcHl0aG9uJywgJy1waHQnLCAnMi4wJywgJy1waCcsICc3LjAnLCAnLXRuJywgJzgnLCAnLW1hJywgJzIwMCcsICctaW1hZScsICc8aW5maWxlLm1hZT4nLCAnLW9tYWUnLCAnPG91dGZpbGUubWFlPic=

>  <r_lp_tautomer_probability>  (254) 
1

>  <r_epik_Ionization_Penalty>  (254) 
1.97623

>  <r_epik_Ionization_Penalty_Charging>  (254) 
0

>  <r_epik_Ionization_Penalty_Neutral>  (254) 
1.97623

>  <r_epik_State_Penalty>  (254) 
2.10456

>  <r_epik_Charging_Adjusted_Penalty>  (254) 
2.10456

>  <i_epik_Tot_Q>  (254) 
0

>  <i_epik_Tot_abs_Q>  (254) 
0

>  <s_epik_Chemistry_Notes>  (254) 
This compound has an imine and may undergo hydrolysis.

>  <s_lp_Force_Field>  (254) 
OPLS3e

>  <r_lp_Energy>  (254) 
127.063

>  <b_lp_Chiralities_Consistent>  (254) 
1

>  <s_lp_Variant>  (254) 
66:0-3

>  <s_i_glide_gridfile>  (254) 
pfpi4k_grid

>  <i_i_glide_lignum>  (254) 
16

>  <i_i_glide_rotatable_bonds>  (254) 
4

>  <r_i_docking_score>  (254) 
-2.61286

>  <r_i_glide_ligand_efficiency>  (254) 
-0.108869

>  <r_i_glide_ligand_efficiency_sa>  (254) 
-0.314032

>  <r_i_glide_ligand_efficiency_ln>  (254) 
-0.625376

>  <r_i_glide_gscore>  (254) 
-2.61286

>  <r_i_glide_lipo>  (254) 
-0.398928

>  <r_i_glide_hbond>  (254) 
0

>  <r_i_glide_metal>  (254) 
-0

>  <r_i_glide_rewards>  (254) 
-1.39162

>  <r_i_glide_evdw>  (254) 
-22.352

>  <r_i_glide_ecoul>  (254) 
-0.297229

>  <r_i_glide_erotb>  (254) 
0.341006

>  <r_i_glide_esite>  (254) 
-0.0011282

>  <r_i_glide_emodel>  (254) 
-23.3683

>  <r_i_glide_energy>  (254) 
-22.6492

>  <r_i_glide_einternal>  (254) 
1.05749

>  <r_i_glide_intrahb_reward>  (254) 
-0

>  <i_i_glide_confnum>  (254) 
4

>  <i_i_glide_posenum>  (254) 
1

>  <r_i_glide_eff_state_penalty>  (254) 
0

>  <ligand_id>  (254) 
66

>  <original_smiles>  (254) 
CC(=NO)C1Oc2c(O)ccc3c2C12OC1CN(C)CC(C3)C12O

>  <smiles>  (254) 
[H]ON=C(C([H])([H])[H])C1([H])Oc2c(O[H])c([H])c([H])c3c2C12OC1([H])C([H])([H])N(C([H])([H])[H])C([H])([H])C([H])(C3([H])[H])C12O[H]

$$$$
66:3:0
     RDKit          3D

 44 48  0  0  1  0  0  0  0  0999 V2000
    8.0680   -4.1694    0.4376 C   0  0  0  0  0  0  0  0  0  0  0  0
    7.3525   -2.8340    0.1475 C   0  0  0  0  0  0  0  0  0  0  0  0
    7.8908   -1.6802    0.2012 N   0  0  0  0  0  0  0  0  0  0  0  0
    9.2814   -1.7906    0.5025 O   0  0  0  0  0  0  0  0  0  0  0  0
    5.9303   -2.9638   -0.4179 C   0  0  2  0  0  0  0  0  0  0  0  0
    5.8234   -1.9998   -1.5068 O   0  0  0  0  0  0  0  0  0  0  0  0
    4.5022   -1.8719   -1.7993 C   0  0  0  0  0  0  0  0  0  0  0  0
    3.9106   -1.7740   -3.0621 C   0  0  0  0  0  0  0  0  0  0  0  0
    4.5576   -1.2409   -4.1148 O   0  0  0  0  0  0  0  0  0  0  0  0
    2.6551   -2.4072   -3.3235 C   0  0  0  0  0  0  0  0  0  0  0  0
    2.1130   -3.2175   -2.3311 C   0  0  0  0  0  0  0  0  0  0  0  0
    2.6847   -3.3111   -1.0481 C   0  0  0  0  0  0  0  0  0  0  0  0
    3.7535   -2.4368   -0.7899 C   0  0  0  0  0  0  0  0  0  0  0  0
    4.6229   -2.6468    0.4146 C   0  0  2  0  0  0  0  0  0  0  0  0
    5.0955   -1.7190    1.4178 O   0  0  0  0  0  0  0  0  0  0  0  0
    4.7300   -2.7177    2.4637 C   0  0  2  0  0  0  0  0  0  0  0  0
    5.7433   -3.7840    2.8902 C   0  0  0  0  0  0  0  0  0  0  0  0
    5.2775   -5.1926    2.6903 N   0  0  0  0  0  0  0  0  0  0  0  0
    4.4782   -5.6521    3.8296 C   0  0  0  0  0  0  0  0  0  0  0  0
    4.5625   -5.4706    1.4194 C   0  0  0  0  0  0  0  0  0  0  0  0
    3.2908   -4.6048    1.2523 C   0  0  2  0  0  0  0  0  0  0  0  0
    2.5651   -4.5603   -0.1282 C   0  0  0  0  0  0  0  0  0  0  0  0
    3.6907   -3.2104    1.5121 C   0  0  2  0  0  0  0  0  0  0  0  0
    2.4588   -2.5345    1.7595 O   0  0  0  0  0  0  0  0  0  0  0  0
    8.2153   -4.7271   -0.4824 H   0  0  0  0  0  0  0  0  0  0  0  0
    7.5100   -4.8493    1.0646 H   0  0  0  0  0  0  0  0  0  0  0  0
    9.0357   -3.9978    0.9176 H   0  0  0  0  0  0  0  0  0  0  0  0
    9.7000   -1.2865   -0.1838 H   0  0  0  0  0  0  0  0  0  0  0  0
    5.8678   -3.9550   -0.8736 H   0  0  0  0  0  0  0  0  0  0  0  0
    5.3602   -0.8408   -3.8414 H   0  0  0  0  0  0  0  0  0  0  0  0
    2.2323   -2.3726   -4.3034 H   0  0  0  0  0  0  0  0  0  0  0  0
    1.3255   -3.8833   -2.6109 H   0  0  0  0  0  0  0  0  0  0  0  0
    4.2478   -2.2219    3.3184 H   0  0  0  0  0  0  0  0  0  0  0  0
    6.6403   -3.5148    2.4090 H   0  0  0  0  0  0  0  0  0  0  0  0
    5.9498   -3.6869    3.9623 H   0  0  0  0  0  0  0  0  0  0  0  0
    4.0958   -6.6743    3.6932 H   0  0  0  0  0  0  0  0  0  0  0  0
    3.6188   -4.9929    3.9980 H   0  0  0  0  0  0  0  0  0  0  0  0
    5.0784   -5.6394    4.7408 H   0  0  0  0  0  0  0  0  0  0  0  0
    5.2436   -5.3486    0.5916 H   0  0  0  0  0  0  0  0  0  0  0  0
    4.2662   -6.5148    1.3616 H   0  0  0  0  0  0  0  0  0  0  0  0
    2.5698   -4.9513    1.9980 H   0  0  0  0  0  0  0  0  0  0  0  0
    1.5110   -4.6437    0.0994 H   0  0  0  0  0  0  0  0  0  0  0  0
    2.7697   -5.4777   -0.6567 H   0  0  0  0  0  0  0  0  0  0  0  0
    2.3361   -1.9487    1.0293 H   0  0  0  0  0  0  0  0  0  0  0  0
  1  2  1  0
  1 25  1  0
  1 26  1  0
  1 27  1  0
  2  3  2  3
  2  5  1  0
  3  4  1  0
  4 28  1  0
  5 14  1  0
  5  6  1  0
  5 29  1  6
  6  7  1  0
  7 13  2  0
  7  8  1  0
  8  9  1  0
  8 10  2  0
  9 30  1  0
 10 11  1  0
 10 31  1  0
 11 12  2  0
 11 32  1  0
 12 22  1  0
 12 13  1  0
 13 14  1  0
 14 23  1  0
 14 15  1  1
 15 16  1  0
 16 23  1  0
 16 17  1  0
 16 33  1  1
 17 18  1  0
 17 34  1  0
 17 35  1  0
 18 19  1  0
 18 20  1  0
 19 36  1  0
 19 37  1  0
 19 38  1  0
 20 21  1  0
 20 39  1  0
 20 40  1  0
 21 22  1  0
 21 23  1  0
 21 41  1  1
 22 42  1  0
 22 43  1  0
 23 24  1  1
 24 44  1  0
M  END
>  <i_m_ct_stereo_status>  (255) 
1

>  <s_m_source_file>  (255) 
/var/tmp/pbs.5076255.sched01/tmppdndq9e4/92von5zo7h.sdf

>  <i_m_source_file_index>  (255) 
17

>  <i_lp_mmshare_version>  (255) 
48012

>  <i_f3d_flags>  (255) 
0

>  <s_epik_input>  (255) 
W09IXVxOPUMoXFtDSDNdKVtDQEBIXTFPYyhjMltDQEBdMTM0KWMoW09IXSlbY0hdW2NIXWMyW0NIMl1bQ0BASF01W0NAQF00KFtPSF0pW0NASF0oTzMpW0NIMl1OKFtDSDNdKVtDSDJdNQ==

>  <s_epik_cmdline>  (255) 
J2VwaWtfcHl0aG9uJywgJy1waHQnLCAnMi4wJywgJy1waCcsICc3LjAnLCAnLXRuJywgJzgnLCAnLW1hJywgJzIwMCcsICctaW1hZScsICc8aW5maWxlLm1hZT4nLCAnLW9tYWUnLCAnPG91dGZpbGUubWFlPic=

>  <r_lp_tautomer_probability>  (255) 
1

>  <r_epik_Ionization_Penalty>  (255) 
1.97623

>  <r_epik_Ionization_Penalty_Charging>  (255) 
0

>  <r_epik_Ionization_Penalty_Neutral>  (255) 
1.97623

>  <r_epik_State_Penalty>  (255) 
2.10456

>  <r_epik_Charging_Adjusted_Penalty>  (255) 
2.10456

>  <i_epik_Tot_Q>  (255) 
0

>  <i_epik_Tot_abs_Q>  (255) 
0

>  <s_epik_Chemistry_Notes>  (255) 
This compound has an imine and may undergo hydrolysis.

>  <s_lp_Force_Field>  (255) 
OPLS3e

>  <r_lp_Energy>  (255) 
125.86

>  <b_lp_Chiralities_Consistent>  (255) 
1

>  <s_lp_Variant>  (255) 
66:0-4

>  <s_i_glide_gridfile>  (255) 
pfpi4k_grid

>  <i_i_glide_lignum>  (255) 
17

>  <i_i_glide_rotatable_bonds>  (255) 
4

>  <r_i_docking_score>  (255) 
-3.68595

>  <r_i_glide_ligand_efficiency>  (255) 
-0.153581

>  <r_i_glide_ligand_efficiency_sa>  (255) 
-0.443005

>  <r_i_glide_ligand_efficiency_ln>  (255) 
-0.882217

>  <r_i_glide_gscore>  (255) 
-3.68595

>  <r_i_glide_lipo>  (255) 
-0.748044

>  <r_i_glide_hbond>  (255) 
-0.176526

>  <r_i_glide_metal>  (255) 
-0

>  <r_i_glide_rewards>  (255) 
-1.31109

>  <r_i_glide_evdw>  (255) 
-17.5044

>  <r_i_glide_ecoul>  (255) 
-5.38557

>  <r_i_glide_erotb>  (255) 
0.341006

>  <r_i_glide_esite>  (255) 
-0.108235

>  <r_i_glide_emodel>  (255) 
-26.0134

>  <r_i_glide_energy>  (255) 
-22.89

>  <r_i_glide_einternal>  (255) 
2.82605

>  <r_i_glide_intrahb_reward>  (255) 
-0

>  <i_i_glide_confnum>  (255) 
1

>  <i_i_glide_posenum>  (255) 
13

>  <r_i_glide_eff_state_penalty>  (255) 
0

>  <ligand_id>  (255) 
66

>  <original_smiles>  (255) 
CC(=NO)C1Oc2c(O)ccc3c2C12OC1CN(C)CC(C3)C12O

>  <smiles>  (255) 
[H]ON=C(C([H])([H])[H])C1([H])Oc2c(O[H])c([H])c([H])c3c2C12OC1([H])C([H])([H])N(C([H])([H])[H])C([H])([H])C([H])(C3([H])[H])C12O[H]

$$$$
66:3:1
     RDKit          3D

 44 48  0  0  1  0  0  0  0  0999 V2000
    8.2243   -3.7088   -0.4173 C   0  0  0  0  0  0  0  0  0  0  0  0
    7.3429   -2.5196   -0.0938 C   0  0  0  0  0  0  0  0  0  0  0  0
    7.7436   -1.4553    0.4810 N   0  0  0  0  0  0  0  0  0  0  0  0
    9.1480   -1.4900    0.7792 O   0  0  0  0  0  0  0  0  0  0  0  0
    5.9120   -2.6967   -0.6280 C   0  0  2  0  0  0  0  0  0  0  0  0
    5.7974   -1.7672   -1.7415 O   0  0  0  0  0  0  0  0  0  0  0  0
    4.4688   -1.6697   -2.0277 C   0  0  0  0  0  0  0  0  0  0  0  0
    3.8467   -1.6178   -3.2798 C   0  0  0  0  0  0  0  0  0  0  0  0
    4.4785   -1.0813   -4.3530 O   0  0  0  0  0  0  0  0  0  0  0  0
    2.6197   -2.2636   -3.4815 C   0  0  0  0  0  0  0  0  0  0  0  0
    2.0736   -3.0664   -2.4674 C   0  0  0  0  0  0  0  0  0  0  0  0
    2.6638   -3.0913   -1.2016 C   0  0  0  0  0  0  0  0  0  0  0  0
    3.7315   -2.1947   -0.9865 C   0  0  0  0  0  0  0  0  0  0  0  0
    4.6162   -2.3189    0.1972 C   0  0  2  0  0  0  0  0  0  0  0  0
    5.0668   -1.3313    1.1522 O   0  0  0  0  0  0  0  0  0  0  0  0
    4.7807   -2.3410    2.2095 C   0  0  2  0  0  0  0  0  0  0  0  0
    5.7864   -3.4500    2.6230 C   0  0  0  0  0  0  0  0  0  0  0  0
    5.2629   -4.8346    2.5952 N   0  0  0  0  0  0  0  0  0  0  0  0
    4.4755   -5.1458    3.7826 C   0  0  0  0  0  0  0  0  0  0  0  0
    4.5224   -5.1388    1.3554 C   0  0  0  0  0  0  0  0  0  0  0  0
    3.2707   -4.2429    1.1572 C   0  0  2  0  0  0  0  0  0  0  0  0
    2.5345   -4.2851   -0.2148 C   0  0  0  0  0  0  0  0  0  0  0  0
    3.6957   -2.8388    1.3291 C   0  0  2  0  0  0  0  0  0  0  0  0
    2.4813   -2.1401    1.5905 O   0  0  0  0  0  0  0  0  0  0  0  0
    8.2758   -3.8273   -1.4999 H   0  0  0  0  0  0  0  0  0  0  0  0
    7.7996   -4.6127    0.0202 H   0  0  0  0  0  0  0  0  0  0  0  0
    9.2382   -3.6004   -0.0431 H   0  0  0  0  0  0  0  0  0  0  0  0
    9.5422   -1.4842   -0.0823 H   0  0  0  0  0  0  0  0  0  0  0  0
    5.8297   -3.7206   -1.0318 H   0  0  0  0  0  0  0  0  0  0  0  0
    5.2981   -0.6845   -4.1060 H   0  0  0  0  0  0  0  0  0  0  0  0
    2.1918   -2.2780   -4.4578 H   0  0  0  0  0  0  0  0  0  0  0  0
    1.2646   -3.7189   -2.7083 H   0  0  0  0  0  0  0  0  0  0  0  0
    4.3475   -1.8540    3.0788 H   0  0  0  0  0  0  0  0  0  0  0  0
    6.7052   -3.4204    2.0604 H   0  0  0  0  0  0  0  0  0  0  0  0
    6.1057   -3.2217    3.6339 H   0  0  0  0  0  0  0  0  0  0  0  0
    4.0827   -6.1573    3.7138 H   0  0  0  0  0  0  0  0  0  0  0  0
    3.6274   -4.4682    3.9221 H   0  0  0  0  0  0  0  0  0  0  0  0
    5.0912   -5.0946    4.6778 H   0  0  0  0  0  0  0  0  0  0  0  0
    5.2010   -5.0330    0.5139 H   0  0  0  0  0  0  0  0  0  0  0  0
    4.2094   -6.1801    1.3602 H   0  0  0  0  0  0  0  0  0  0  0  0
    2.5459   -4.5376    1.9243 H   0  0  0  0  0  0  0  0  0  0  0  0
    1.4754   -4.3236    0.0034 H   0  0  0  0  0  0  0  0  0  0  0  0
    2.7527   -5.2141   -0.7072 H   0  0  0  0  0  0  0  0  0  0  0  0
    2.2449   -1.7302    0.7695 H   0  0  0  0  0  0  0  0  0  0  0  0
  1  2  1  0
  1 25  1  0
  1 26  1  0
  1 27  1  0
  2  3  2  3
  2  5  1  0
  3  4  1  0
  4 28  1  0
  5 14  1  0
  5  6  1  0
  5 29  1  6
  6  7  1  0
  7 13  2  0
  7  8  1  0
  8  9  1  0
  8 10  2  0
  9 30  1  0
 10 11  1  0
 10 31  1  0
 11 12  2  0
 11 32  1  0
 12 22  1  0
 12 13  1  0
 13 14  1  0
 14 23  1  0
 14 15  1  1
 15 16  1  0
 16 23  1  0
 16 17  1  0
 16 33  1  1
 17 18  1  0
 17 34  1  0
 17 35  1  0
 18 19  1  0
 18 20  1  0
 19 36  1  0
 19 37  1  0
 19 38  1  0
 20 21  1  0
 20 39  1  0
 20 40  1  0
 21 22  1  0
 21 23  1  0
 21 41  1  1
 22 42  1  0
 22 43  1  0
 23 24  1  1
 24 44  1  0
M  END
>  <i_m_ct_stereo_status>  (256) 
1

>  <s_m_source_file>  (256) 
/var/tmp/pbs.5076255.sched01/tmppdndq9e4/92von5zo7h.sdf

>  <i_m_source_file_index>  (256) 
17

>  <i_lp_mmshare_version>  (256) 
48012

>  <i_f3d_flags>  (256) 
0

>  <s_epik_input>  (256) 
W09IXVxOPUMoXFtDSDNdKVtDQEBIXTFPYyhjMltDQEBdMTM0KWMoW09IXSlbY0hdW2NIXWMyW0NIMl1bQ0BASF01W0NAQF00KFtPSF0pW0NASF0oTzMpW0NIMl1OKFtDSDNdKVtDSDJdNQ==

>  <s_epik_cmdline>  (256) 
J2VwaWtfcHl0aG9uJywgJy1waHQnLCAnMi4wJywgJy1waCcsICc3LjAnLCAnLXRuJywgJzgnLCAnLW1hJywgJzIwMCcsICctaW1hZScsICc8aW5maWxlLm1hZT4nLCAnLW9tYWUnLCAnPG91dGZpbGUubWFlPic=

>  <r_lp_tautomer_probability>  (256) 
1

>  <r_epik_Ionization_Penalty>  (256) 
1.97623

>  <r_epik_Ionization_Penalty_Charging>  (256) 
0

>  <r_epik_Ionization_Penalty_Neutral>  (256) 
1.97623

>  <r_epik_State_Penalty>  (256) 
2.10456

>  <r_epik_Charging_Adjusted_Penalty>  (256) 
2.10456

>  <i_epik_Tot_Q>  (256) 
0

>  <i_epik_Tot_abs_Q>  (256) 
0

>  <s_epik_Chemistry_Notes>  (256) 
This compound has an imine and may undergo hydrolysis.

>  <s_lp_Force_Field>  (256) 
OPLS3e

>  <r_lp_Energy>  (256) 
125.86

>  <b_lp_Chiralities_Consistent>  (256) 
1

>  <s_lp_Variant>  (256) 
66:0-4

>  <s_i_glide_gridfile>  (256) 
pfpi4k_grid

>  <i_i_glide_lignum>  (256) 
17

>  <i_i_glide_rotatable_bonds>  (256) 
4

>  <r_i_docking_score>  (256) 
-3.29849

>  <r_i_glide_ligand_efficiency>  (256) 
-0.137437

>  <r_i_glide_ligand_efficiency_sa>  (256) 
-0.396437

>  <r_i_glide_ligand_efficiency_ln>  (256) 
-0.789479

>  <r_i_glide_gscore>  (256) 
-3.29849

>  <r_i_glide_lipo>  (256) 
-0.662535

>  <r_i_glide_hbond>  (256) 
-0.172563

>  <r_i_glide_metal>  (256) 
-0

>  <r_i_glide_rewards>  (256) 
-1.18179

>  <r_i_glide_evdw>  (256) 
-16.9782

>  <r_i_glide_ecoul>  (256) 
-4.47642

>  <r_i_glide_erotb>  (256) 
0.341006

>  <r_i_glide_esite>  (256) 
-0.102228

>  <r_i_glide_emodel>  (256) 
-24.8076

>  <r_i_glide_energy>  (256) 
-21.4546

>  <r_i_glide_einternal>  (256) 
2.79147

>  <r_i_glide_intrahb_reward>  (256) 
-0

>  <i_i_glide_confnum>  (256) 
2

>  <i_i_glide_posenum>  (256) 
38

>  <r_i_glide_eff_state_penalty>  (256) 
0

>  <ligand_id>  (256) 
66

>  <original_smiles>  (256) 
CC(=NO)C1Oc2c(O)ccc3c2C12OC1CN(C)CC(C3)C12O

>  <smiles>  (256) 
[H]ON=C(C([H])([H])[H])C1([H])Oc2c(O[H])c([H])c([H])c3c2C12OC1([H])C([H])([H])N(C([H])([H])[H])C([H])([H])C([H])(C3([H])[H])C12O[H]

$$$$
66:3:2
     RDKit          3D

 44 48  0  0  1  0  0  0  0  0999 V2000
    8.1829   -2.3806    0.2617 C   0  0  0  0  0  0  0  0  0  0  0  0
    7.4986   -3.7439    0.3664 C   0  0  0  0  0  0  0  0  0  0  0  0
    8.0907   -4.8351    0.6519 N   0  0  0  0  0  0  0  0  0  0  0  0
    9.3589   -4.5839    1.2505 O   0  0  0  0  0  0  0  0  0  0  0  0
    6.0216   -3.7419   -0.0503 C   0  0  2  0  0  0  0  0  0  0  0  0
    5.8923   -2.6593   -1.0042 O   0  0  0  0  0  0  0  0  0  0  0  0
    4.5745   -2.3826   -1.1252 C   0  0  0  0  0  0  0  0  0  0  0  0
    3.9156   -2.0592   -2.3253 C   0  0  0  0  0  0  0  0  0  0  0  0
    4.5895   -1.4163   -3.3196 O   0  0  0  0  0  0  0  0  0  0  0  0
    2.6098   -2.5426   -2.5457 C   0  0  0  0  0  0  0  0  0  0  0  0
    2.0439   -3.4587   -1.6348 C   0  0  0  0  0  0  0  0  0  0  0  0
    2.7007   -3.7609   -0.4185 C   0  0  0  0  0  0  0  0  0  0  0  0
    3.8575   -2.9983   -0.1192 C   0  0  0  0  0  0  0  0  0  0  0  0
    4.8351   -3.4213    0.9579 C   0  0  2  0  0  0  0  0  0  0  0  0
    5.4557   -2.6860    2.0540 O   0  0  0  0  0  0  0  0  0  0  0  0
    5.1010   -3.8219    2.9558 C   0  0  2  0  0  0  0  0  0  0  0  0
    6.0264   -5.0631    3.1191 C   0  0  0  0  0  0  0  0  0  0  0  0
    5.3674   -6.3679    2.8354 N   0  0  0  0  0  0  0  0  0  0  0  0
    4.6124   -6.8596    3.9829 C   0  0  0  0  0  0  0  0  0  0  0  0
    4.5527   -6.3819    1.5977 C   0  0  0  0  0  0  0  0  0  0  0  0
    3.3794   -5.3637    1.6475 C   0  0  2  0  0  0  0  0  0  0  0  0
    2.5254   -5.0988    0.3593 C   0  0  0  0  0  0  0  0  0  0  0  0
    3.9402   -4.0569    2.0519 C   0  0  2  0  0  0  0  0  0  0  0  0
    2.8023   -3.3241    2.5028 O   0  0  0  0  0  0  0  0  0  0  0  0
    7.6408   -1.6247    0.8287 H   0  0  0  0  0  0  0  0  0  0  0  0
    8.1814   -2.0786   -0.7820 H   0  0  0  0  0  0  0  0  0  0  0  0
    9.2305   -2.3734    0.5517 H   0  0  0  0  0  0  0  0  0  0  0  0
    9.4033   -5.2848    1.8868 H   0  0  0  0  0  0  0  0  0  0  0  0
    5.8174   -4.6817   -0.5766 H   0  0  0  0  0  0  0  0  0  0  0  0
    4.0154   -1.1096   -4.0004 H   0  0  0  0  0  0  0  0  0  0  0  0
    2.1138   -2.3415   -3.4796 H   0  0  0  0  0  0  0  0  0  0  0  0
    1.1579   -4.0022   -1.9267 H   0  0  0  0  0  0  0  0  0  0  0  0
    4.7624   -3.4423    3.9241 H   0  0  0  0  0  0  0  0  0  0  0  0
    6.9087   -4.9741    2.5309 H   0  0  0  0  0  0  0  0  0  0  0  0
    6.4058   -5.0945    4.1464 H   0  0  0  0  0  0  0  0  0  0  0  0
    4.1285   -7.8112    3.7575 H   0  0  0  0  0  0  0  0  0  0  0  0
    3.8436   -6.1469    4.2980 H   0  0  0  0  0  0  0  0  0  0  0  0
    5.2817   -7.0167    4.8266 H   0  0  0  0  0  0  0  0  0  0  0  0
    5.2023   -6.1937    0.7486 H   0  0  0  0  0  0  0  0  0  0  0  0
    4.1491   -7.3765    1.4243 H   0  0  0  0  0  0  0  0  0  0  0  0
    2.6933   -5.7456    2.4045 H   0  0  0  0  0  0  0  0  0  0  0  0
    1.4870   -5.0834    0.6949 H   0  0  0  0  0  0  0  0  0  0  0  0
    2.6018   -5.9382   -0.3205 H   0  0  0  0  0  0  0  0  0  0  0  0
    2.8149   -2.5001    2.0436 H   0  0  0  0  0  0  0  0  0  0  0  0
  1  2  1  0
  1 25  1  0
  1 26  1  0
  1 27  1  0
  2  3  2  3
  2  5  1  0
  3  4  1  0
  4 28  1  0
  5 14  1  0
  5  6  1  0
  5 29  1  6
  6  7  1  0
  7 13  2  0
  7  8  1  0
  8  9  1  0
  8 10  2  0
  9 30  1  0
 10 11  1  0
 10 31  1  0
 11 12  2  0
 11 32  1  0
 12 22  1  0
 12 13  1  0
 13 14  1  0
 14 23  1  0
 14 15  1  1
 15 16  1  0
 16 23  1  0
 16 17  1  0
 16 33  1  1
 17 18  1  0
 17 34  1  0
 17 35  1  0
 18 19  1  0
 18 20  1  0
 19 36  1  0
 19 37  1  0
 19 38  1  0
 20 21  1  0
 20 39  1  0
 20 40  1  0
 21 22  1  0
 21 23  1  0
 21 41  1  1
 22 42  1  0
 22 43  1  0
 23 24  1  1
 24 44  1  0
M  END
>  <i_m_ct_stereo_status>  (257) 
1

>  <s_m_source_file>  (257) 
/var/tmp/pbs.5076255.sched01/tmppdndq9e4/92von5zo7h.sdf

>  <i_m_source_file_index>  (257) 
17

>  <i_lp_mmshare_version>  (257) 
48012

>  <i_f3d_flags>  (257) 
0

>  <s_epik_input>  (257) 
W09IXVxOPUMoXFtDSDNdKVtDQEBIXTFPYyhjMltDQEBdMTM0KWMoW09IXSlbY0hdW2NIXWMyW0NIMl1bQ0BASF01W0NAQF00KFtPSF0pW0NASF0oTzMpW0NIMl1OKFtDSDNdKVtDSDJdNQ==

>  <s_epik_cmdline>  (257) 
J2VwaWtfcHl0aG9uJywgJy1waHQnLCAnMi4wJywgJy1waCcsICc3LjAnLCAnLXRuJywgJzgnLCAnLW1hJywgJzIwMCcsICctaW1hZScsICc8aW5maWxlLm1hZT4nLCAnLW9tYWUnLCAnPG91dGZpbGUubWFlPic=

>  <r_lp_tautomer_probability>  (257) 
1

>  <r_epik_Ionization_Penalty>  (257) 
1.97623

>  <r_epik_Ionization_Penalty_Charging>  (257) 
0

>  <r_epik_Ionization_Penalty_Neutral>  (257) 
1.97623

>  <r_epik_State_Penalty>  (257) 
2.10456

>  <r_epik_Charging_Adjusted_Penalty>  (257) 
2.10456

>  <i_epik_Tot_Q>  (257) 
0

>  <i_epik_Tot_abs_Q>  (257) 
0

>  <s_epik_Chemistry_Notes>  (257) 
This compound has an imine and may undergo hydrolysis.

>  <s_lp_Force_Field>  (257) 
OPLS3e

>  <r_lp_Energy>  (257) 
125.86

>  <b_lp_Chiralities_Consistent>  (257) 
1

>  <s_lp_Variant>  (257) 
66:0-4

>  <s_i_glide_gridfile>  (257) 
pfpi4k_grid

>  <i_i_glide_lignum>  (257) 
17

>  <i_i_glide_rotatable_bonds>  (257) 
4

>  <r_i_docking_score>  (257) 
-2.89226

>  <r_i_glide_ligand_efficiency>  (257) 
-0.120511

>  <r_i_glide_ligand_efficiency_sa>  (257) 
-0.347614

>  <r_i_glide_ligand_efficiency_ln>  (257) 
-0.692251

>  <r_i_glide_gscore>  (257) 
-2.89226

>  <r_i_glide_lipo>  (257) 
-0.486629

>  <r_i_glide_hbond>  (257) 
0

>  <r_i_glide_metal>  (257) 
-0

>  <r_i_glide_rewards>  (257) 
-1.37899

>  <r_i_glide_evdw>  (257) 
-22.516

>  <r_i_glide_ecoul>  (257) 
-1.17298

>  <r_i_glide_erotb>  (257) 
0.341006

>  <r_i_glide_esite>  (257) 
-0.0658987

>  <r_i_glide_emodel>  (257) 
-24.8152

>  <r_i_glide_energy>  (257) 
-23.689

>  <r_i_glide_einternal>  (257) 
3.34331

>  <r_i_glide_intrahb_reward>  (257) 
-0

>  <i_i_glide_confnum>  (257) 
5

>  <i_i_glide_posenum>  (257) 
31

>  <r_i_glide_eff_state_penalty>  (257) 
0

>  <ligand_id>  (257) 
66

>  <original_smiles>  (257) 
CC(=NO)C1Oc2c(O)ccc3c2C12OC1CN(C)CC(C3)C12O

>  <smiles>  (257) 
[H]ON=C(C([H])([H])[H])C1([H])Oc2c(O[H])c([H])c([H])c3c2C12OC1([H])C([H])([H])N(C([H])([H])[H])C([H])([H])C([H])(C3([H])[H])C12O[H]

$$$$
66:4:0
     RDKit          3D

 44 48  0  0  1  0  0  0  0  0999 V2000
    8.8765   -5.6487    1.9868 C   0  0  0  0  0  0  0  0  0  0  0  0
    7.7024   -6.5290    1.5668 C   0  0  0  0  0  0  0  0  0  0  0  0
    7.9080   -7.7883    1.5439 N   0  0  0  0  0  0  0  0  0  0  0  0
    6.7683   -8.5276    1.1030 O   0  0  0  0  0  0  0  0  0  0  0  0
    6.4414   -5.7814    1.0733 C   0  0  2  0  0  0  0  0  0  0  0  0
    6.9217   -4.4900    0.6085 O   0  0  0  0  0  0  0  0  0  0  0  0
    5.8601   -3.6612    0.4882 C   0  0  0  0  0  0  0  0  0  0  0  0
    5.6414   -2.6968   -0.5118 C   0  0  0  0  0  0  0  0  0  0  0  0
    6.6990   -2.0996   -1.1245 O   0  0  0  0  0  0  0  0  0  0  0  0
    4.3451   -2.4657   -0.9832 C   0  0  0  0  0  0  0  0  0  0  0  0
    3.2771   -3.3005   -0.5412 C   0  0  0  0  0  0  0  0  0  0  0  0
    3.5025   -4.2436    0.4708 C   0  0  0  0  0  0  0  0  0  0  0  0
    4.7609   -4.2193    1.1098 C   0  0  0  0  0  0  0  0  0  0  0  0
    5.2389   -5.3304    2.0064 C   0  0  2  0  0  0  0  0  0  0  0  0
    5.8231   -5.3570    3.3483 O   0  0  0  0  0  0  0  0  0  0  0  0
    4.8751   -6.4538    3.7133 C   0  0  2  0  0  0  0  0  0  0  0  0
    5.2488   -7.9434    3.4923 C   0  0  0  0  0  0  0  0  0  0  0  0
    4.2255   -8.6576    2.6218 N   0  0  1  0  0  0  0  0  0  0  0  0
    3.0765   -9.2169    3.4115 C   0  0  0  0  0  0  0  0  0  0  0  0
    3.7252   -7.9159    1.3948 C   0  0  0  0  0  0  0  0  0  0  0  0
    3.0479   -6.5829    1.7778 C   0  0  2  0  0  0  0  0  0  0  0  0
    2.6663   -5.5527    0.6559 C   0  0  0  0  0  0  0  0  0  0  0  0
    3.9537   -5.8644    2.7009 C   0  0  2  0  0  0  0  0  0  0  0  0
    3.1045   -4.9181    3.3364 O   0  0  0  0  0  0  0  0  0  0  0  0
    9.1296   -4.9345    1.2027 H   0  0  0  0  0  0  0  0  0  0  0  0
    9.7705   -6.2510    2.1400 H   0  0  0  0  0  0  0  0  0  0  0  0
    8.6552   -5.1017    2.9015 H   0  0  0  0  0  0  0  0  0  0  0  0
    6.0892   -7.8768    1.1553 H   0  0  0  0  0  0  0  0  0  0  0  0
    6.0625   -6.2991    0.1941 H   0  0  0  0  0  0  0  0  0  0  0  0
    4.1700   -1.7720   -1.7854 H   0  0  0  0  0  0  0  0  0  0  0  0
    2.3457   -3.2844   -1.0923 H   0  0  0  0  0  0  0  0  0  0  0  0
    4.4820   -6.2772    4.7230 H   0  0  0  0  0  0  0  0  0  0  0  0
    6.2531   -8.0727    3.1410 H   0  0  0  0  0  0  0  0  0  0  0  0
    5.2264   -8.4550    4.4664 H   0  0  0  0  0  0  0  0  0  0  0  0
    2.5576   -8.4106    3.9320 H   0  0  0  0  0  0  0  0  0  0  0  0
    3.4567   -9.9206    4.1504 H   0  0  0  0  0  0  0  0  0  0  0  0
    2.3641   -9.7436    2.7668 H   0  0  0  0  0  0  0  0  0  0  0  0
    4.5242   -7.7652    0.6789 H   0  0  0  0  0  0  0  0  0  0  0  0
    3.0106   -8.5575    0.8891 H   0  0  0  0  0  0  0  0  0  0  0  0
    2.1176   -6.8618    2.2946 H   0  0  0  0  0  0  0  0  0  0  0  0
    1.6865   -5.1830    0.9347 H   0  0  0  0  0  0  0  0  0  0  0  0
    2.5338   -6.0554   -0.3020 H   0  0  0  0  0  0  0  0  0  0  0  0
    3.6685   -4.3885    3.8818 H   0  0  0  0  0  0  0  0  0  0  0  0
    4.6908   -9.4851    2.2638 H   0  0  0  0  0  0  0  0  0  0  0  0
  1  2  1  0
  1 25  1  0
  1 26  1  0
  1 27  1  0
  2  3  2  3
  2  5  1  0
  3  4  1  0
  4 28  1  0
  5 14  1  0
  5  6  1  0
  5 29  1  6
  6  7  1  0
  7 13  2  0
  7  8  1  0
  8  9  1  0
  8 10  2  0
 10 11  1  0
 10 30  1  0
 11 12  2  0
 11 31  1  0
 12 22  1  0
 12 13  1  0
 13 14  1  0
 14 23  1  0
 14 15  1  1
 15 16  1  0
 16 23  1  0
 16 17  1  0
 16 32  1  1
 17 18  1  0
 17 33  1  0
 17 34  1  0
 18 19  1  0
 18 20  1  0
 18 44  1  6
 19 35  1  0
 19 36  1  0
 19 37  1  0
 20 21  1  0
 20 38  1  0
 20 39  1  0
 21 22  1  0
 21 23  1  0
 21 40  1  1
 22 41  1  0
 22 42  1  0
 23 24  1  1
 24 43  1  0
M  CHG  2   9  -1  18   1
M  END
>  <i_m_ct_stereo_status>  (258) 
1

>  <s_m_source_file>  (258) 
/var/tmp/pbs.5076255.sched01/tmppdndq9e4/92von5zo7h.sdf

>  <i_m_source_file_index>  (258) 
18

>  <i_lp_mmshare_version>  (258) 
48012

>  <i_f3d_flags>  (258) 
0

>  <s_epik_input>  (258) 
W09IXVxOPUMoXFtDSDNdKVtDQEBIXTFPYyhjMltDQEBdMTM0KWMoW09IXSlbY0hdW2NIXWMyW0NIMl1bQ0BASF01W0NAQF00KFtPSF0pW0NASF0oTzMpW0NIMl1OKFtDSDNdKVtDSDJdNQ==

>  <s_epik_cmdline>  (258) 
J2VwaWtfcHl0aG9uJywgJy1waHQnLCAnMi4wJywgJy1waCcsICc3LjAnLCAnLXRuJywgJzgnLCAnLW1hJywgJzIwMCcsICctaW1hZScsICc8aW5maWxlLm1hZT4nLCAnLW9tYWUnLCAnPG91dGZpbGUubWFlPic=

>  <r_epik_Ionization_Penalty>  (258) 
2.51366

>  <r_epik_Ionization_Penalty_Charging>  (258) 
2.51357

>  <r_epik_Ionization_Penalty_Neutral>  (258) 
8.97765e-05

>  <r_epik_State_Penalty>  (258) 
2.67499

>  <r_epik_Charging_Adjusted_Penalty>  (258) 
5.18856

>  <i_epik_Tot_Q>  (258) 
0

>  <i_epik_Tot_abs_Q>  (258) 
2

>  <s_epik_Chemistry_Notes>  (258) 
This compound has an imine and may undergo hydrolysis.

>  <s_lp_Force_Field>  (258) 
OPLS3e

>  <r_lp_Energy>  (258) 
126.47

>  <b_lp_Chiralities_Consistent>  (258) 
1

>  <s_lp_Variant>  (258) 
66:0-5

>  <s_i_glide_gridfile>  (258) 
pfpi4k_grid

>  <i_i_glide_lignum>  (258) 
18

>  <i_i_glide_rotatable_bonds>  (258) 
3

>  <r_i_docking_score>  (258) 
-2.81419

>  <r_i_glide_ligand_efficiency>  (258) 
-0.117258

>  <r_i_glide_ligand_efficiency_sa>  (258) 
-0.33823

>  <r_i_glide_ligand_efficiency_ln>  (258) 
-0.673565

>  <r_i_glide_gscore>  (258) 
-2.81419

>  <r_i_glide_lipo>  (258) 
-0.291118

>  <r_i_glide_hbond>  (258) 
-0.2

>  <r_i_glide_metal>  (258) 
-0

>  <r_i_glide_rewards>  (258) 
-1.44306

>  <r_i_glide_evdw>  (258) 
-17.0173

>  <r_i_glide_ecoul>  (258) 
-1.96943

>  <r_i_glide_erotb>  (258) 
0.341006

>  <r_i_glide_esite>  (258) 
-0.0747386

>  <r_i_glide_emodel>  (258) 
-22.1232

>  <r_i_glide_energy>  (258) 
-18.9867

>  <r_i_glide_einternal>  (258) 
0.754672

>  <r_i_glide_intrahb_reward>  (258) 
-0

>  <i_i_glide_confnum>  (258) 
5

>  <i_i_glide_posenum>  (258) 
2

>  <r_i_glide_eff_state_penalty>  (258) 
0

>  <ligand_id>  (258) 
66

>  <original_smiles>  (258) 
CC(=NO)C1Oc2c(O)ccc3c2C12OC1CN(C)CC(C3)C12O

>  <smiles>  (258) 
[H]ON=C(C([H])([H])[H])C1([H])Oc2c([O-])c([H])c([H])c3c2C12OC1([H])C2(O[H])C([H])(C3([H])[H])C([H])([H])[N+]([H])(C([H])([H])[H])C1([H])[H]

$$$$
66:4:1
     RDKit          3D

 44 48  0  0  1  0  0  0  0  0999 V2000
    6.5831   -1.4818    1.8450 C   0  0  0  0  0  0  0  0  0  0  0  0
    5.1811   -1.0854    1.4339 C   0  0  0  0  0  0  0  0  0  0  0  0
    4.8628    0.1309    1.5158 N   0  0  0  0  0  0  0  0  0  0  0  0
    3.4970    0.3975    1.1643 O   0  0  0  0  0  0  0  0  0  0  0  0
    4.2491   -2.2352    1.0308 C   0  0  2  0  0  0  0  0  0  0  0  0
    4.3330   -3.1977    2.1137 O   0  0  0  0  0  0  0  0  0  0  0  0
    3.8307   -4.3660    1.6403 C   0  0  0  0  0  0  0  0  0  0  0  0
    3.0254   -5.2881    2.3350 C   0  0  0  0  0  0  0  0  0  0  0  0
    3.1054   -5.3835    3.6836 O   0  0  0  0  0  0  0  0  0  0  0  0
    2.0192   -5.9969    1.6449 C   0  0  0  0  0  0  0  0  0  0  0  0
    1.7189   -5.6506    0.3217 C   0  0  0  0  0  0  0  0  0  0  0  0
    2.4856   -4.6702   -0.3390 C   0  0  0  0  0  0  0  0  0  0  0  0
    3.6958   -4.2884    0.2795 C   0  0  0  0  0  0  0  0  0  0  0  0
    4.5073   -3.1409   -0.2339 C   0  0  2  0  0  0  0  0  0  0  0  0
    5.9294   -2.9765   -0.5016 O   0  0  0  0  0  0  0  0  0  0  0  0
    5.5562   -2.2790   -1.7710 C   0  0  2  0  0  0  0  0  0  0  0  0
    5.2290   -0.7771   -1.8473 C   0  0  0  0  0  0  0  0  0  0  0  0
    3.9293   -0.5040   -2.5272 N   0  0  1  0  0  0  0  0  0  0  0  0
    3.9469   -0.4663   -4.0105 C   0  0  0  0  0  0  0  0  0  0  0  0
    2.8205   -1.3044   -1.9765 C   0  0  0  0  0  0  0  0  0  0  0  0
    2.9880   -2.7975   -2.2373 C   0  0  2  0  0  0  0  0  0  0  0  0
    2.0049   -3.8144   -1.5528 C   0  0  0  0  0  0  0  0  0  0  0  0
    4.3384   -3.1179   -1.7638 C   0  0  2  0  0  0  0  0  0  0  0  0
    4.6460   -4.2392   -2.5565 O   0  0  0  0  0  0  0  0  0  0  0  0
    6.5421   -2.3384    2.5121 H   0  0  0  0  0  0  0  0  0  0  0  0
    7.0675   -0.6659    2.3786 H   0  0  0  0  0  0  0  0  0  0  0  0
    7.2070   -1.7407    0.9927 H   0  0  0  0  0  0  0  0  0  0  0  0
    3.1739   -0.4440    0.8943 H   0  0  0  0  0  0  0  0  0  0  0  0
    3.2191   -1.8842    1.0103 H   0  0  0  0  0  0  0  0  0  0  0  0
    1.3775   -6.6759    2.1792 H   0  0  0  0  0  0  0  0  0  0  0  0
    0.8140   -6.0188   -0.1386 H   0  0  0  0  0  0  0  0  0  0  0  0
    6.2248   -2.5851   -2.5838 H   0  0  0  0  0  0  0  0  0  0  0  0
    5.2952   -0.2783   -0.8998 H   0  0  0  0  0  0  0  0  0  0  0  0
    5.9345   -0.2487   -2.4226 H   0  0  0  0  0  0  0  0  0  0  0  0
    4.2701   -1.4221   -4.4125 H   0  0  0  0  0  0  0  0  0  0  0  0
    4.5960    0.3154   -4.3707 H   0  0  0  0  0  0  0  0  0  0  0  0
    2.9518   -0.2388   -4.3881 H   0  0  0  0  0  0  0  0  0  0  0  0
    2.7322   -1.0659   -0.9175 H   0  0  0  0  0  0  0  0  0  0  0  0
    1.9470   -0.9613   -2.4697 H   0  0  0  0  0  0  0  0  0  0  0  0
    2.9004   -2.9211   -3.3225 H   0  0  0  0  0  0  0  0  0  0  0  0
    1.7546   -4.5144   -2.3343 H   0  0  0  0  0  0  0  0  0  0  0  0
    1.0354   -3.3626   -1.3732 H   0  0  0  0  0  0  0  0  0  0  0  0
    3.9988   -4.8871   -2.3493 H   0  0  0  0  0  0  0  0  0  0  0  0
    3.7145    0.4481   -2.2616 H   0  0  0  0  0  0  0  0  0  0  0  0
  1  2  1  0
  1 25  1  0
  1 26  1  0
  1 27  1  0
  2  3  2  3
  2  5  1  0
  3  4  1  0
  4 28  1  0
  5 14  1  0
  5  6  1  0
  5 29  1  6
  6  7  1  0
  7 13  2  0
  7  8  1  0
  8  9  1  0
  8 10  2  0
 10 11  1  0
 10 30  1  0
 11 12  2  0
 11 31  1  0
 12 22  1  0
 12 13  1  0
 13 14  1  0
 14 23  1  0
 14 15  1  6
 15 16  1  0
 16 23  1  0
 16 17  1  0
 16 32  1  6
 17 18  1  0
 17 33  1  0
 17 34  1  0
 18 19  1  0
 18 20  1  0
 18 44  1  1
 19 35  1  0
 19 36  1  0
 19 37  1  0
 20 21  1  0
 20 38  1  0
 20 39  1  0
 21 22  1  0
 21 23  1  0
 21 40  1  6
 22 41  1  0
 22 42  1  0
 23 24  1  6
 24 43  1  0
M  CHG  2   9  -1  18   1
M  END
>  <i_m_ct_stereo_status>  (259) 
1

>  <s_m_source_file>  (259) 
/var/tmp/pbs.5076255.sched01/tmppdndq9e4/92von5zo7h.sdf

>  <i_m_source_file_index>  (259) 
18

>  <i_lp_mmshare_version>  (259) 
48012

>  <i_f3d_flags>  (259) 
0

>  <s_epik_input>  (259) 
W09IXVxOPUMoXFtDSDNdKVtDQEBIXTFPYyhjMltDQEBdMTM0KWMoW09IXSlbY0hdW2NIXWMyW0NIMl1bQ0BASF01W0NAQF00KFtPSF0pW0NASF0oTzMpW0NIMl1OKFtDSDNdKVtDSDJdNQ==

>  <s_epik_cmdline>  (259) 
J2VwaWtfcHl0aG9uJywgJy1waHQnLCAnMi4wJywgJy1waCcsICc3LjAnLCAnLXRuJywgJzgnLCAnLW1hJywgJzIwMCcsICctaW1hZScsICc8aW5maWxlLm1hZT4nLCAnLW9tYWUnLCAnPG91dGZpbGUubWFlPic=

>  <r_epik_Ionization_Penalty>  (259) 
2.51366

>  <r_epik_Ionization_Penalty_Charging>  (259) 
2.51357

>  <r_epik_Ionization_Penalty_Neutral>  (259) 
8.97765e-05

>  <r_epik_State_Penalty>  (259) 
2.67499

>  <r_epik_Charging_Adjusted_Penalty>  (259) 
5.18856

>  <i_epik_Tot_Q>  (259) 
0

>  <i_epik_Tot_abs_Q>  (259) 
2

>  <s_epik_Chemistry_Notes>  (259) 
This compound has an imine and may undergo hydrolysis.

>  <s_lp_Force_Field>  (259) 
OPLS3e

>  <r_lp_Energy>  (259) 
126.47

>  <b_lp_Chiralities_Consistent>  (259) 
1

>  <s_lp_Variant>  (259) 
66:0-5

>  <s_i_glide_gridfile>  (259) 
pfpi4k_grid

>  <i_i_glide_lignum>  (259) 
18

>  <i_i_glide_rotatable_bonds>  (259) 
3

>  <r_i_docking_score>  (259) 
-2.3982

>  <r_i_glide_ligand_efficiency>  (259) 
-0.0999249

>  <r_i_glide_ligand_efficiency_sa>  (259) 
-0.288233

>  <r_i_glide_ligand_efficiency_ln>  (259) 
-0.573999

>  <r_i_glide_gscore>  (259) 
-2.3982

>  <r_i_glide_lipo>  (259) 
-0.379547

>  <r_i_glide_hbond>  (259) 
0

>  <r_i_glide_metal>  (259) 
-0

>  <r_i_glide_rewards>  (259) 
-1.30226

>  <r_i_glide_evdw>  (259) 
1.89351

>  <r_i_glide_ecoul>  (259) 
-7.68046

>  <r_i_glide_erotb>  (259) 
0.341006

>  <r_i_glide_esite>  (259) 
0

>  <r_i_glide_emodel>  (259) 
-9.1226

>  <r_i_glide_energy>  (259) 
-5.78695

>  <r_i_glide_einternal>  (259) 
1.34931

>  <r_i_glide_intrahb_reward>  (259) 
-0

>  <i_i_glide_confnum>  (259) 
2

>  <i_i_glide_posenum>  (259) 
39

>  <r_i_glide_eff_state_penalty>  (259) 
0

>  <ligand_id>  (259) 
66

>  <original_smiles>  (259) 
CC(=NO)C1Oc2c(O)ccc3c2C12OC1CN(C)CC(C3)C12O

>  <smiles>  (259) 
[H]ON=C(C([H])([H])[H])C1([H])Oc2c([O-])c([H])c([H])c3c2C12OC1([H])C2(O[H])C([H])(C3([H])[H])C([H])([H])[N+]([H])(C([H])([H])[H])C1([H])[H]

$$$$
66:4:2
     RDKit          3D

 44 48  0  0  1  0  0  0  0  0999 V2000
    7.9842   -6.1612    1.7793 C   0  0  0  0  0  0  0  0  0  0  0  0
    7.4837   -4.7551    1.4869 C   0  0  0  0  0  0  0  0  0  0  0  0
    8.2344   -4.0130    0.7635 N   0  0  0  0  0  0  0  0  0  0  0  0
    7.7160   -2.6846    0.6437 O   0  0  0  0  0  0  0  0  0  0  0  0
    6.1974   -4.3274    2.2517 C   0  0  2  0  0  0  0  0  0  0  0  0
    6.1960   -5.1128    3.4762 O   0  0  0  0  0  0  0  0  0  0  0  0
    4.9539   -5.0448    4.0148 C   0  0  0  0  0  0  0  0  0  0  0  0
    4.6263   -4.9525    5.3834 C   0  0  0  0  0  0  0  0  0  0  0  0
    5.4821   -5.4500    6.3209 O   0  0  0  0  0  0  0  0  0  0  0  0
    3.5090   -4.2076    5.7826 C   0  0  0  0  0  0  0  0  0  0  0  0
    2.8071   -3.4293    4.8412 C   0  0  0  0  0  0  0  0  0  0  0  0
    3.1323   -3.5245    3.4690 C   0  0  0  0  0  0  0  0  0  0  0  0
    4.0692   -4.5367    3.1043 C   0  0  0  0  0  0  0  0  0  0  0  0
    4.7184   -4.5782    1.7519 C   0  0  2  0  0  0  0  0  0  0  0  0
    4.8979   -5.6470    0.7746 O   0  0  0  0  0  0  0  0  0  0  0  0
    4.4512   -4.6939   -0.2785 C   0  0  2  0  0  0  0  0  0  0  0  0
    5.4173   -3.7825   -1.0525 C   0  0  0  0  0  0  0  0  0  0  0  0
    5.0342   -2.3211   -0.9423 N   0  0  1  0  0  0  0  0  0  0  0  0
    4.0629   -1.9035   -1.9972 C   0  0  0  0  0  0  0  0  0  0  0  0
    4.6076   -1.8314    0.4233 C   0  0  0  0  0  0  0  0  0  0  0  0
    3.3642   -2.5957    0.9372 C   0  0  2  0  0  0  0  0  0  0  0  0
    2.8931   -2.4014    2.4212 C   0  0  0  0  0  0  0  0  0  0  0  0
    3.6398   -4.0430    0.7834 C   0  0  2  0  0  0  0  0  0  0  0  0
    2.3518   -4.6481    0.8172 O   0  0  0  0  0  0  0  0  0  0  0  0
    8.0816   -6.3261    2.8542 H   0  0  0  0  0  0  0  0  0  0  0  0
    8.9894   -6.3070    1.3781 H   0  0  0  0  0  0  0  0  0  0  0  0
    7.3102   -6.9170    1.3729 H   0  0  0  0  0  0  0  0  0  0  0  0
    6.8833   -2.7664    1.0785 H   0  0  0  0  0  0  0  0  0  0  0  0
    6.2893   -3.2790    2.5381 H   0  0  0  0  0  0  0  0  0  0  0  0
    3.2964   -4.0913    6.8382 H   0  0  0  0  0  0  0  0  0  0  0  0
    2.1380   -2.6612    5.1786 H   0  0  0  0  0  0  0  0  0  0  0  0
    3.8044   -5.1965   -0.9793 H   0  0  0  0  0  0  0  0  0  0  0  0
    6.4383   -3.9834   -0.7914 H   0  0  0  0  0  0  0  0  0  0  0  0
    5.3726   -4.0558   -2.1211 H   0  0  0  0  0  0  0  0  0  0  0  0
    3.1365   -2.4800   -1.9211 H   0  0  0  0  0  0  0  0  0  0  0  0
    4.4989   -2.0760   -2.9853 H   0  0  0  0  0  0  0  0  0  0  0  0
    3.8231   -0.8361   -1.9100 H   0  0  0  0  0  0  0  0  0  0  0  0
    5.4349   -1.9075    1.1271 H   0  0  0  0  0  0  0  0  0  0  0  0
    4.3856   -0.7626    0.3744 H   0  0  0  0  0  0  0  0  0  0  0  0
    2.5399   -2.2830    0.2867 H   0  0  0  0  0  0  0  0  0  0  0  0
    1.8077   -2.3221    2.3681 H   0  0  0  0  0  0  0  0  0  0  0  0
    3.2508   -1.4430    2.8036 H   0  0  0  0  0  0  0  0  0  0  0  0
    2.5073   -5.5760    0.7225 H   0  0  0  0  0  0  0  0  0  0  0  0
    5.8808   -1.8249   -1.1580 H   0  0  0  0  0  0  0  0  0  0  0  0
  1  2  1  0
  1 25  1  0
  1 26  1  0
  1 27  1  0
  2  3  2  3
  2  5  1  0
  3  4  1  0
  4 28  1  0
  5 14  1  0
  5  6  1  0
  5 29  1  1
  6  7  1  0
  7 13  2  0
  7  8  1  0
  8  9  1  0
  8 10  2  0
 10 11  1  0
 10 30  1  0
 11 12  2  0
 11 31  1  0
 12 22  1  0
 12 13  1  0
 13 14  1  0
 14 23  1  0
 14 15  1  6
 15 16  1  0
 16 23  1  0
 16 17  1  0
 16 32  1  6
 17 18  1  0
 17 33  1  0
 17 34  1  0
 18 19  1  0
 18 20  1  0
 18 44  1  6
 19 35  1  0
 19 36  1  0
 19 37  1  0
 20 21  1  0
 20 38  1  0
 20 39  1  0
 21 22  1  0
 21 23  1  0
 21 40  1  6
 22 41  1  0
 22 42  1  0
 23 24  1  1
 24 43  1  0
M  CHG  2   9  -1  18   1
M  END
>  <i_m_ct_stereo_status>  (260) 
1

>  <s_m_source_file>  (260) 
/var/tmp/pbs.5076255.sched01/tmppdndq9e4/92von5zo7h.sdf

>  <i_m_source_file_index>  (260) 
18

>  <i_lp_mmshare_version>  (260) 
48012

>  <i_f3d_flags>  (260) 
0

>  <s_epik_input>  (260) 
W09IXVxOPUMoXFtDSDNdKVtDQEBIXTFPYyhjMltDQEBdMTM0KWMoW09IXSlbY0hdW2NIXWMyW0NIMl1bQ0BASF01W0NAQF00KFtPSF0pW0NASF0oTzMpW0NIMl1OKFtDSDNdKVtDSDJdNQ==

>  <s_epik_cmdline>  (260) 
J2VwaWtfcHl0aG9uJywgJy1waHQnLCAnMi4wJywgJy1waCcsICc3LjAnLCAnLXRuJywgJzgnLCAnLW1hJywgJzIwMCcsICctaW1hZScsICc8aW5maWxlLm1hZT4nLCAnLW9tYWUnLCAnPG91dGZpbGUubWFlPic=

>  <r_epik_Ionization_Penalty>  (260) 
2.51366

>  <r_epik_Ionization_Penalty_Charging>  (260) 
2.51357

>  <r_epik_Ionization_Penalty_Neutral>  (260) 
8.97765e-05

>  <r_epik_State_Penalty>  (260) 
2.67499

>  <r_epik_Charging_Adjusted_Penalty>  (260) 
5.18856

>  <i_epik_Tot_Q>  (260) 
0

>  <i_epik_Tot_abs_Q>  (260) 
2

>  <s_epik_Chemistry_Notes>  (260) 
This compound has an imine and may undergo hydrolysis.

>  <s_lp_Force_Field>  (260) 
OPLS3e

>  <r_lp_Energy>  (260) 
126.47

>  <b_lp_Chiralities_Consistent>  (260) 
1

>  <s_lp_Variant>  (260) 
66:0-5

>  <s_i_glide_gridfile>  (260) 
pfpi4k_grid

>  <i_i_glide_lignum>  (260) 
18

>  <i_i_glide_rotatable_bonds>  (260) 
3

>  <r_i_docking_score>  (260) 
-2.15863

>  <r_i_glide_ligand_efficiency>  (260) 
-0.0899427

>  <r_i_glide_ligand_efficiency_sa>  (260) 
-0.25944

>  <r_i_glide_ligand_efficiency_ln>  (260) 
-0.516658

>  <r_i_glide_gscore>  (260) 
-2.15863

>  <r_i_glide_lipo>  (260) 
-0.0976607

>  <r_i_glide_hbond>  (260) 
0

>  <r_i_glide_metal>  (260) 
-0

>  <r_i_glide_rewards>  (260) 
-1.28672

>  <r_i_glide_evdw>  (260) 
-12.6471

>  <r_i_glide_ecoul>  (260) 
-3.11026

>  <r_i_glide_erotb>  (260) 
0.341006

>  <r_i_glide_esite>  (260) 
-0.0163581

>  <r_i_glide_emodel>  (260) 
-18.7489

>  <r_i_glide_energy>  (260) 
-15.7573

>  <r_i_glide_einternal>  (260) 
0.58427

>  <r_i_glide_intrahb_reward>  (260) 
-0

>  <i_i_glide_confnum>  (260) 
3

>  <i_i_glide_posenum>  (260) 
3

>  <r_i_glide_eff_state_penalty>  (260) 
0

>  <ligand_id>  (260) 
66

>  <original_smiles>  (260) 
CC(=NO)C1Oc2c(O)ccc3c2C12OC1CN(C)CC(C3)C12O

>  <smiles>  (260) 
[H]ON=C(C([H])([H])[H])C1([H])Oc2c([O-])c([H])c([H])c3c2C12OC1([H])C2(O[H])C([H])(C3([H])[H])C([H])([H])[N+]([H])(C([H])([H])[H])C1([H])[H]

$$$$
66:5:0
     RDKit          3D

 44 48  0  0  1  0  0  0  0  0999 V2000
    8.0275   -4.2540    0.7007 C   0  0  0  0  0  0  0  0  0  0  0  0
    7.5471   -2.9174    0.1330 C   0  0  0  0  0  0  0  0  0  0  0  0
    8.2371   -1.8568   -0.0007 N   0  0  0  0  0  0  0  0  0  0  0  0
    9.5574   -2.0298    0.4801 O   0  0  0  0  0  0  0  0  0  0  0  0
    6.0909   -2.9893   -0.3296 C   0  0  2  0  0  0  0  0  0  0  0  0
    6.1595   -2.9881   -1.7769 O   0  0  0  0  0  0  0  0  0  0  0  0
    4.9012   -2.6950   -2.2199 C   0  0  0  0  0  0  0  0  0  0  0  0
    4.2456   -3.2558   -3.3261 C   0  0  0  0  0  0  0  0  0  0  0  0
    4.9279   -3.8697   -4.3174 O   0  0  0  0  0  0  0  0  0  0  0  0
    2.8442   -3.4438   -3.2611 C   0  0  0  0  0  0  0  0  0  0  0  0
    2.1690   -3.2838   -2.0417 C   0  0  0  0  0  0  0  0  0  0  0  0
    2.8470   -2.7624   -0.9233 C   0  0  0  0  0  0  0  0  0  0  0  0
    4.1380   -2.2343   -1.1802 C   0  0  0  0  0  0  0  0  0  0  0  0
    5.0322   -1.8431   -0.0634 C   0  0  2  0  0  0  0  0  0  0  0  0
    5.8236   -0.6519    0.1363 O   0  0  0  0  0  0  0  0  0  0  0  0
    5.3245   -0.6251    1.5362 C   0  0  2  0  0  0  0  0  0  0  0  0
    6.0111   -1.3834    2.6730 C   0  0  0  0  0  0  0  0  0  0  0  0
    5.1017   -2.3163    3.4268 N   0  0  1  0  0  0  0  0  0  0  0  0
    4.3515   -1.6315    4.5072 C   0  0  0  0  0  0  0  0  0  0  0  0
    4.2283   -3.1749    2.5636 C   0  0  0  0  0  0  0  0  0  0  0  0
    3.2938   -2.3029    1.7004 C   0  0  2  0  0  0  0  0  0  0  0  0
    2.4569   -2.9739    0.5673 C   0  0  0  0  0  0  0  0  0  0  0  0
    4.0998   -1.2750    1.0313 C   0  0  2  0  0  0  0  0  0  0  0  0
    3.1503   -0.2619    0.7070 O   0  0  0  0  0  0  0  0  0  0  0  0
    7.9394   -5.0259   -0.0626 H   0  0  0  0  0  0  0  0  0  0  0  0
    7.4045   -4.5610    1.5410 H   0  0  0  0  0  0  0  0  0  0  0  0
    9.0627   -4.2321    1.0344 H   0  0  0  0  0  0  0  0  0  0  0  0
   10.0565   -1.4744   -0.1184 H   0  0  0  0  0  0  0  0  0  0  0  0
    5.6715   -3.9505   -0.0241 H   0  0  0  0  0  0  0  0  0  0  0  0
    2.3411   -3.9503   -4.0607 H   0  0  0  0  0  0  0  0  0  0  0  0
    1.2035   -3.7595   -1.9200 H   0  0  0  0  0  0  0  0  0  0  0  0
    5.1211    0.3923    1.8433 H   0  0  0  0  0  0  0  0  0  0  0  0
    6.8190   -1.9714    2.2877 H   0  0  0  0  0  0  0  0  0  0  0  0
    6.4539   -0.6507    3.3553 H   0  0  0  0  0  0  0  0  0  0  0  0
    3.7471   -0.8163    4.1028 H   0  0  0  0  0  0  0  0  0  0  0  0
    5.0419   -1.2142    5.2446 H   0  0  0  0  0  0  0  0  0  0  0  0
    3.6914   -2.3340    5.0242 H   0  0  0  0  0  0  0  0  0  0  0  0
    4.8573   -3.8375    1.9683 H   0  0  0  0  0  0  0  0  0  0  0  0
    3.6246   -3.8328    3.1883 H   0  0  0  0  0  0  0  0  0  0  0  0
    2.5931   -1.8324    2.3966 H   0  0  0  0  0  0  0  0  0  0  0  0
    1.5025   -2.4696    0.6397 H   0  0  0  0  0  0  0  0  0  0  0  0
    2.2589   -4.0222    0.7799 H   0  0  0  0  0  0  0  0  0  0  0  0
    2.5176   -0.6690    0.1173 H   0  0  0  0  0  0  0  0  0  0  0  0
    5.7083   -2.9634    3.9103 H   0  0  0  0  0  0  0  0  0  0  0  0
  1  2  1  0
  1 25  1  0
  1 26  1  0
  1 27  1  0
  2  3  2  3
  2  5  1  0
  3  4  1  0
  4 28  1  0
  5 14  1  0
  5  6  1  0
  5 29  1  1
  6  7  1  0
  7 13  2  0
  7  8  1  0
  8  9  1  0
  8 10  2  0
 10 11  1  0
 10 30  1  0
 11 12  2  0
 11 31  1  0
 12 22  1  0
 12 13  1  0
 13 14  1  0
 14 23  1  0
 14 15  1  6
 15 16  1  0
 16 23  1  0
 16 17  1  0
 16 32  1  1
 17 18  1  0
 17 33  1  0
 17 34  1  0
 18 19  1  0
 18 20  1  0
 18 44  1  1
 19 35  1  0
 19 36  1  0
 19 37  1  0
 20 21  1  0
 20 38  1  0
 20 39  1  0
 21 22  1  0
 21 23  1  0
 21 40  1  1
 22 41  1  0
 22 42  1  0
 23 24  1  6
 24 43  1  0
M  CHG  2   9  -1  18   1
M  END
>  <i_m_ct_stereo_status>  (261) 
1

>  <s_m_source_file>  (261) 
/var/tmp/pbs.5076255.sched01/tmppdndq9e4/92von5zo7h.sdf

>  <i_m_source_file_index>  (261) 
19

>  <i_lp_mmshare_version>  (261) 
48012

>  <i_f3d_flags>  (261) 
0

>  <s_epik_input>  (261) 
W09IXVxOPUMoXFtDSDNdKVtDQEBIXTFPYyhjMltDQEBdMTM0KWMoW09IXSlbY0hdW2NIXWMyW0NIMl1bQ0BASF01W0NAQF00KFtPSF0pW0NASF0oTzMpW0NIMl1OKFtDSDNdKVtDSDJdNQ==

>  <s_epik_cmdline>  (261) 
J2VwaWtfcHl0aG9uJywgJy1waHQnLCAnMi4wJywgJy1waCcsICc3LjAnLCAnLXRuJywgJzgnLCAnLW1hJywgJzIwMCcsICctaW1hZScsICc8aW5maWxlLm1hZT4nLCAnLW9tYWUnLCAnPG91dGZpbGUubWFlPic=

>  <r_epik_Ionization_Penalty>  (261) 
2.51366

>  <r_epik_Ionization_Penalty_Charging>  (261) 
2.51357

>  <r_epik_Ionization_Penalty_Neutral>  (261) 
8.97765e-05

>  <r_epik_State_Penalty>  (261) 
2.67499

>  <r_epik_Charging_Adjusted_Penalty>  (261) 
5.18856

>  <i_epik_Tot_Q>  (261) 
0

>  <i_epik_Tot_abs_Q>  (261) 
2

>  <s_epik_Chemistry_Notes>  (261) 
This compound has an imine and may undergo hydrolysis.

>  <s_lp_Force_Field>  (261) 
OPLS3e

>  <r_lp_Energy>  (261) 
125.944

>  <b_lp_Chiralities_Consistent>  (261) 
1

>  <s_lp_Variant>  (261) 
66:0-6

>  <s_i_glide_gridfile>  (261) 
pfpi4k_grid

>  <i_i_glide_lignum>  (261) 
19

>  <i_i_glide_rotatable_bonds>  (261) 
3

>  <r_i_docking_score>  (261) 
-4.30603

>  <r_i_glide_ligand_efficiency>  (261) 
-0.179418

>  <r_i_glide_ligand_efficiency_sa>  (261) 
-0.517531

>  <r_i_glide_ligand_efficiency_ln>  (261) 
-1.03063

>  <r_i_glide_gscore>  (261) 
-4.30603

>  <r_i_glide_lipo>  (261) 
-0.987648

>  <r_i_glide_hbond>  (261) 
-0.154224

>  <r_i_glide_metal>  (261) 
-0

>  <r_i_glide_rewards>  (261) 
-1.34268

>  <r_i_glide_evdw>  (261) 
-15.5375

>  <r_i_glide_ecoul>  (261) 
-8.47781

>  <r_i_glide_erotb>  (261) 
0.341006

>  <r_i_glide_esite>  (261) 
-0.113944

>  <r_i_glide_emodel>  (261) 
-32.5239

>  <r_i_glide_energy>  (261) 
-24.0153

>  <r_i_glide_einternal>  (261) 
1.80522

>  <r_i_glide_intrahb_reward>  (261) 
-0

>  <i_i_glide_confnum>  (261) 
2

>  <i_i_glide_posenum>  (261) 
37

>  <r_i_glide_eff_state_penalty>  (261) 
0

>  <ligand_id>  (261) 
66

>  <original_smiles>  (261) 
CC(=NO)C1Oc2c(O)ccc3c2C12OC1CN(C)CC(C3)C12O

>  <smiles>  (261) 
[H]ON=C(C([H])([H])[H])C1([H])Oc2c([O-])c([H])c([H])c3c2C12OC1([H])C2(O[H])C([H])(C3([H])[H])C([H])([H])[N+]([H])(C([H])([H])[H])C1([H])[H]

$$$$
66:5:1
     RDKit          3D

 44 48  0  0  1  0  0  0  0  0999 V2000
    8.2174   -3.2860   -0.6678 C   0  0  0  0  0  0  0  0  0  0  0  0
    7.2152   -2.2498   -0.1953 C   0  0  0  0  0  0  0  0  0  0  0  0
    7.4591   -1.2160    0.4810 N   0  0  0  0  0  0  0  0  0  0  0  0
    8.8262   -1.0845    0.8068 O   0  0  0  0  0  0  0  0  0  0  0  0
    5.8148   -2.5047   -0.7112 C   0  0  2  0  0  0  0  0  0  0  0  0
    5.6566   -1.6155   -1.8453 O   0  0  0  0  0  0  0  0  0  0  0  0
    4.3169   -1.5970   -2.1134 C   0  0  0  0  0  0  0  0  0  0  0  0
    3.6900   -1.6425   -3.3967 C   0  0  0  0  0  0  0  0  0  0  0  0
    4.2108   -1.0855   -4.5317 O   0  0  0  0  0  0  0  0  0  0  0  0
    2.5008   -2.3699   -3.5457 C   0  0  0  0  0  0  0  0  0  0  0  0
    2.0014   -3.1432   -2.4885 C   0  0  0  0  0  0  0  0  0  0  0  0
    2.6092   -3.1083   -1.2298 C   0  0  0  0  0  0  0  0  0  0  0  0
    3.6161   -2.1410   -1.0499 C   0  0  0  0  0  0  0  0  0  0  0  0
    4.5078   -2.1937    0.1206 C   0  0  2  0  0  0  0  0  0  0  0  0
    4.8658   -1.1467    1.0373 O   0  0  0  0  0  0  0  0  0  0  0  0
    4.6600   -2.1264    2.1437 C   0  0  2  0  0  0  0  0  0  0  0  0
    5.7400   -3.1231    2.6192 C   0  0  0  0  0  0  0  0  0  0  0  0
    5.2910   -4.5467    2.6126 N   0  0  1  0  0  0  0  0  0  0  0  0
    4.5620   -4.9336    3.8401 C   0  0  0  0  0  0  0  0  0  0  0  0
    4.5893   -4.9641    1.3650 C   0  0  0  0  0  0  0  0  0  0  0  0
    3.2964   -4.1450    1.1639 C   0  0  2  0  0  0  0  0  0  0  0  0
    2.5535   -4.2675   -0.2054 C   0  0  0  0  0  0  0  0  0  0  0  0
    3.6285   -2.7239    1.2840 C   0  0  2  0  0  0  0  0  0  0  0  0
    2.3691   -2.0990    1.5205 O   0  0  0  0  0  0  0  0  0  0  0  0
    8.2210   -3.3114   -1.7596 H   0  0  0  0  0  0  0  0  0  0  0  0
    7.9218   -4.2736   -0.3069 H   0  0  0  0  0  0  0  0  0  0  0  0
    9.2345   -3.0755   -0.3316 H   0  0  0  0  0  0  0  0  0  0  0  0
    8.7952   -0.2315    1.2423 H   0  0  0  0  0  0  0  0  0  0  0  0
    5.7700   -3.5237   -1.0764 H   0  0  0  0  0  0  0  0  0  0  0  0
    2.0409   -2.4567   -4.5146 H   0  0  0  0  0  0  0  0  0  0  0  0
    1.2379   -3.8551   -2.6847 H   0  0  0  0  0  0  0  0  0  0  0  0
    4.2004   -1.6266    2.9932 H   0  0  0  0  0  0  0  0  0  0  0  0
    6.6579   -3.0766    2.0688 H   0  0  0  0  0  0  0  0  0  0  0  0
    6.0056   -2.8603    3.6319 H   0  0  0  0  0  0  0  0  0  0  0  0
    3.6755   -4.3222    3.9833 H   0  0  0  0  0  0  0  0  0  0  0  0
    5.1882   -4.8224    4.7196 H   0  0  0  0  0  0  0  0  0  0  0  0
    4.2492   -5.9731    3.7926 H   0  0  0  0  0  0  0  0  0  0  0  0
    5.2757   -4.8807    0.5293 H   0  0  0  0  0  0  0  0  0  0  0  0
    4.3413   -6.0170    1.4209 H   0  0  0  0  0  0  0  0  0  0  0  0
    2.5936   -4.4557    1.9532 H   0  0  0  0  0  0  0  0  0  0  0  0
    1.5058   -4.3413    0.0253 H   0  0  0  0  0  0  0  0  0  0  0  0
    2.7659   -5.2178   -0.6833 H   0  0  0  0  0  0  0  0  0  0  0  0
    2.1340   -1.6502    0.7137 H   0  0  0  0  0  0  0  0  0  0  0  0
    6.1364   -5.0924    2.6428 H   0  0  0  0  0  0  0  0  0  0  0  0
  1  2  1  0
  1 25  1  0
  1 26  1  0
  1 27  1  0
  2  3  2  3
  2  5  1  0
  3  4  1  0
  4 28  1  0
  5 14  1  0
  5  6  1  0
  5 29  1  6
  6  7  1  0
  7 13  2  0
  7  8  1  0
  8  9  1  0
  8 10  2  0
 10 11  1  0
 10 30  1  0
 11 12  2  0
 11 31  1  0
 12 22  1  0
 12 13  1  0
 13 14  1  0
 14 23  1  0
 14 15  1  1
 15 16  1  0
 16 23  1  0
 16 17  1  0
 16 32  1  1
 17 18  1  0
 17 33  1  0
 17 34  1  0
 18 19  1  0
 18 20  1  0
 18 44  1  1
 19 35  1  0
 19 36  1  0
 19 37  1  0
 20 21  1  0
 20 38  1  0
 20 39  1  0
 21 22  1  0
 21 23  1  0
 21 40  1  1
 22 41  1  0
 22 42  1  0
 23 24  1  1
 24 43  1  0
M  CHG  2   9  -1  18   1
M  END
>  <i_m_ct_stereo_status>  (262) 
1

>  <s_m_source_file>  (262) 
/var/tmp/pbs.5076255.sched01/tmppdndq9e4/92von5zo7h.sdf

>  <i_m_source_file_index>  (262) 
19

>  <i_lp_mmshare_version>  (262) 
48012

>  <i_f3d_flags>  (262) 
0

>  <s_epik_input>  (262) 
W09IXVxOPUMoXFtDSDNdKVtDQEBIXTFPYyhjMltDQEBdMTM0KWMoW09IXSlbY0hdW2NIXWMyW0NIMl1bQ0BASF01W0NAQF00KFtPSF0pW0NASF0oTzMpW0NIMl1OKFtDSDNdKVtDSDJdNQ==

>  <s_epik_cmdline>  (262) 
J2VwaWtfcHl0aG9uJywgJy1waHQnLCAnMi4wJywgJy1waCcsICc3LjAnLCAnLXRuJywgJzgnLCAnLW1hJywgJzIwMCcsICctaW1hZScsICc8aW5maWxlLm1hZT4nLCAnLW9tYWUnLCAnPG91dGZpbGUubWFlPic=

>  <r_epik_Ionization_Penalty>  (262) 
2.51366

>  <r_epik_Ionization_Penalty_Charging>  (262) 
2.51357

>  <r_epik_Ionization_Penalty_Neutral>  (262) 
8.97765e-05

>  <r_epik_State_Penalty>  (262) 
2.67499

>  <r_epik_Charging_Adjusted_Penalty>  (262) 
5.18856

>  <i_epik_Tot_Q>  (262) 
0

>  <i_epik_Tot_abs_Q>  (262) 
2

>  <s_epik_Chemistry_Notes>  (262) 
This compound has an imine and may undergo hydrolysis.

>  <s_lp_Force_Field>  (262) 
OPLS3e

>  <r_lp_Energy>  (262) 
125.944

>  <b_lp_Chiralities_Consistent>  (262) 
1

>  <s_lp_Variant>  (262) 
66:0-6

>  <s_i_glide_gridfile>  (262) 
pfpi4k_grid

>  <i_i_glide_lignum>  (262) 
19

>  <i_i_glide_rotatable_bonds>  (262) 
3

>  <r_i_docking_score>  (262) 
-3.80199

>  <r_i_glide_ligand_efficiency>  (262) 
-0.158416

>  <r_i_glide_ligand_efficiency_sa>  (262) 
-0.456952

>  <r_i_glide_ligand_efficiency_ln>  (262) 
-0.909991

>  <r_i_glide_gscore>  (262) 
-3.80199

>  <r_i_glide_lipo>  (262) 
-0.778072

>  <r_i_glide_hbond>  (262) 
-0.469981

>  <r_i_glide_metal>  (262) 
-0

>  <r_i_glide_rewards>  (262) 
-1.14306

>  <r_i_glide_evdw>  (262) 
-14.4198

>  <r_i_glide_ecoul>  (262) 
-6.06329

>  <r_i_glide_erotb>  (262) 
0.341006

>  <r_i_glide_esite>  (262) 
-0.1214

>  <r_i_glide_emodel>  (262) 
-28.0369

>  <r_i_glide_energy>  (262) 
-20.4831

>  <r_i_glide_einternal>  (262) 
1.54559

>  <r_i_glide_intrahb_reward>  (262) 
-0

>  <i_i_glide_confnum>  (262) 
1

>  <i_i_glide_posenum>  (262) 
22

>  <r_i_glide_eff_state_penalty>  (262) 
0

>  <ligand_id>  (262) 
66

>  <original_smiles>  (262) 
CC(=NO)C1Oc2c(O)ccc3c2C12OC1CN(C)CC(C3)C12O

>  <smiles>  (262) 
[H]ON=C(C([H])([H])[H])C1([H])Oc2c([O-])c([H])c([H])c3c2C12OC1([H])C2(O[H])C([H])(C3([H])[H])C([H])([H])[N+]([H])(C([H])([H])[H])C1([H])[H]

$$$$
66:5:2
     RDKit          3D

 44 48  0  0  1  0  0  0  0  0999 V2000
    8.1660   -3.8801   -0.1026 C   0  0  0  0  0  0  0  0  0  0  0  0
    7.3559   -2.5901   -0.0405 C   0  0  0  0  0  0  0  0  0  0  0  0
    7.7936   -1.4591    0.3563 N   0  0  0  0  0  0  0  0  0  0  0  0
    9.1688   -1.5356    0.7422 O   0  0  0  0  0  0  0  0  0  0  0  0
    5.9408   -2.7578   -0.5909 C   0  0  2  0  0  0  0  0  0  0  0  0
    5.8480   -1.8436   -1.7079 O   0  0  0  0  0  0  0  0  0  0  0  0
    4.5223   -1.7340   -1.9887 C   0  0  0  0  0  0  0  0  0  0  0  0
    3.9241   -1.6921   -3.2669 C   0  0  0  0  0  0  0  0  0  0  0  0
    4.5892   -1.1656   -4.3156 O   0  0  0  0  0  0  0  0  0  0  0  0
    2.6894   -2.3208   -3.4866 C   0  0  0  0  0  0  0  0  0  0  0  0
    2.1188   -3.1008   -2.4730 C   0  0  0  0  0  0  0  0  0  0  0  0
    2.7004   -3.1379   -1.1958 C   0  0  0  0  0  0  0  0  0  0  0  0
    3.7704   -2.2448   -0.9616 C   0  0  0  0  0  0  0  0  0  0  0  0
    4.6432   -2.3810    0.2285 C   0  0  2  0  0  0  0  0  0  0  0  0
    5.1073   -1.4091    1.2006 O   0  0  0  0  0  0  0  0  0  0  0  0
    4.7699   -2.3959    2.2644 C   0  0  2  0  0  0  0  0  0  0  0  0
    5.7580   -3.4805    2.7324 C   0  0  0  0  0  0  0  0  0  0  0  0
    5.2190   -4.8781    2.6616 N   0  0  1  0  0  0  0  0  0  0  0  0
    4.4305   -5.2481    3.8647 C   0  0  0  0  0  0  0  0  0  0  0  0
    4.5167   -5.2091    1.3802 C   0  0  0  0  0  0  0  0  0  0  0  0
    3.2868   -4.2944    1.1733 C   0  0  2  0  0  0  0  0  0  0  0  0
    2.5517   -4.3233   -0.2080 C   0  0  0  0  0  0  0  0  0  0  0  0
    3.7136   -2.8932    1.3515 C   0  0  2  0  0  0  0  0  0  0  0  0
    2.4998   -2.1910    1.5961 O   0  0  0  0  0  0  0  0  0  0  0  0
    8.2396   -4.2051   -1.1359 H   0  0  0  0  0  0  0  0  0  0  0  0
    7.6697   -4.6728    0.4549 H   0  0  0  0  0  0  0  0  0  0  0  0
    9.1760   -3.7748    0.2809 H   0  0  0  0  0  0  0  0  0  0  0  0
    9.6261   -1.3179   -0.0645 H   0  0  0  0  0  0  0  0  0  0  0  0
    5.8429   -3.7750   -0.9870 H   0  0  0  0  0  0  0  0  0  0  0  0
    2.2610   -2.3443   -4.4705 H   0  0  0  0  0  0  0  0  0  0  0  0
    1.3407   -3.7813   -2.6995 H   0  0  0  0  0  0  0  0  0  0  0  0
    4.3295   -1.8823    3.1184 H   0  0  0  0  0  0  0  0  0  0  0  0
    6.6738   -3.4608    2.1660 H   0  0  0  0  0  0  0  0  0  0  0  0
    6.0203   -3.2805    3.7712 H   0  0  0  0  0  0  0  0  0  0  0  0
    3.5824   -4.5714    4.0002 H   0  0  0  0  0  0  0  0  0  0  0  0
    5.0550   -5.2004    4.7615 H   0  0  0  0  0  0  0  0  0  0  0  0
    4.0535   -6.2705    3.7714 H   0  0  0  0  0  0  0  0  0  0  0  0
    5.2330   -5.1454    0.5601 H   0  0  0  0  0  0  0  0  0  0  0  0
    4.1961   -6.2498    1.4055 H   0  0  0  0  0  0  0  0  0  0  0  0
    2.5595   -4.5775    1.9445 H   0  0  0  0  0  0  0  0  0  0  0  0
    1.4953   -4.3267    0.0150 H   0  0  0  0  0  0  0  0  0  0  0  0
    2.7152   -5.2759   -0.7070 H   0  0  0  0  0  0  0  0  0  0  0  0
    2.2468   -1.8029    0.7664 H   0  0  0  0  0  0  0  0  0  0  0  0
    6.0313   -5.4786    2.6933 H   0  0  0  0  0  0  0  0  0  0  0  0
  1  2  1  0
  1 25  1  0
  1 26  1  0
  1 27  1  0
  2  3  2  3
  2  5  1  0
  3  4  1  0
  4 28  1  0
  5 14  1  0
  5  6  1  0
  5 29  1  6
  6  7  1  0
  7 13  2  0
  7  8  1  0
  8  9  1  0
  8 10  2  0
 10 11  1  0
 10 30  1  0
 11 12  2  0
 11 31  1  0
 12 22  1  0
 12 13  1  0
 13 14  1  0
 14 23  1  0
 14 15  1  1
 15 16  1  0
 16 23  1  0
 16 17  1  0
 16 32  1  1
 17 18  1  0
 17 33  1  0
 17 34  1  0
 18 19  1  0
 18 20  1  0
 18 44  1  1
 19 35  1  0
 19 36  1  0
 19 37  1  0
 20 21  1  0
 20 38  1  0
 20 39  1  0
 21 22  1  0
 21 23  1  0
 21 40  1  1
 22 41  1  0
 22 42  1  0
 23 24  1  1
 24 43  1  0
M  CHG  2   9  -1  18   1
M  END
>  <i_m_ct_stereo_status>  (263) 
1

>  <s_m_source_file>  (263) 
/var/tmp/pbs.5076255.sched01/tmppdndq9e4/92von5zo7h.sdf

>  <i_m_source_file_index>  (263) 
19

>  <i_lp_mmshare_version>  (263) 
48012

>  <i_f3d_flags>  (263) 
0

>  <s_epik_input>  (263) 
W09IXVxOPUMoXFtDSDNdKVtDQEBIXTFPYyhjMltDQEBdMTM0KWMoW09IXSlbY0hdW2NIXWMyW0NIMl1bQ0BASF01W0NAQF00KFtPSF0pW0NASF0oTzMpW0NIMl1OKFtDSDNdKVtDSDJdNQ==

>  <s_epik_cmdline>  (263) 
J2VwaWtfcHl0aG9uJywgJy1waHQnLCAnMi4wJywgJy1waCcsICc3LjAnLCAnLXRuJywgJzgnLCAnLW1hJywgJzIwMCcsICctaW1hZScsICc8aW5maWxlLm1hZT4nLCAnLW9tYWUnLCAnPG91dGZpbGUubWFlPic=

>  <r_epik_Ionization_Penalty>  (263) 
2.51366

>  <r_epik_Ionization_Penalty_Charging>  (263) 
2.51357

>  <r_epik_Ionization_Penalty_Neutral>  (263) 
8.97765e-05

>  <r_epik_State_Penalty>  (263) 
2.67499

>  <r_epik_Charging_Adjusted_Penalty>  (263) 
5.18856

>  <i_epik_Tot_Q>  (263) 
0

>  <i_epik_Tot_abs_Q>  (263) 
2

>  <s_epik_Chemistry_Notes>  (263) 
This compound has an imine and may undergo hydrolysis.

>  <s_lp_Force_Field>  (263) 
OPLS3e

>  <r_lp_Energy>  (263) 
125.944

>  <b_lp_Chiralities_Consistent>  (263) 
1

>  <s_lp_Variant>  (263) 
66:0-6

>  <s_i_glide_gridfile>  (263) 
pfpi4k_grid

>  <i_i_glide_lignum>  (263) 
19

>  <i_i_glide_rotatable_bonds>  (263) 
3

>  <r_i_docking_score>  (263) 
-3.70575

>  <r_i_glide_ligand_efficiency>  (263) 
-0.154406

>  <r_i_glide_ligand_efficiency_sa>  (263) 
-0.445385

>  <r_i_glide_ligand_efficiency_ln>  (263) 
-0.886957

>  <r_i_glide_gscore>  (263) 
-3.70575

>  <r_i_glide_lipo>  (263) 
-0.728021

>  <r_i_glide_hbond>  (263) 
-0.287167

>  <r_i_glide_metal>  (263) 
-0

>  <r_i_glide_rewards>  (263) 
-1.21763

>  <r_i_glide_evdw>  (263) 
-14.9898

>  <r_i_glide_ecoul>  (263) 
-6.366

>  <r_i_glide_erotb>  (263) 
0.341006

>  <r_i_glide_esite>  (263) 
-0.10955

>  <r_i_glide_emodel>  (263) 
-28.0833

>  <r_i_glide_energy>  (263) 
-21.3558

>  <r_i_glide_einternal>  (263) 
2.85874

>  <r_i_glide_intrahb_reward>  (263) 
-0

>  <i_i_glide_confnum>  (263) 
1

>  <i_i_glide_posenum>  (263) 
7

>  <r_i_glide_eff_state_penalty>  (263) 
0

>  <ligand_id>  (263) 
66

>  <original_smiles>  (263) 
CC(=NO)C1Oc2c(O)ccc3c2C12OC1CN(C)CC(C3)C12O

>  <smiles>  (263) 
[H]ON=C(C([H])([H])[H])C1([H])Oc2c([O-])c([H])c([H])c3c2C12OC1([H])C2(O[H])C([H])(C3([H])[H])C([H])([H])[N+]([H])(C([H])([H])[H])C1([H])[H]

$$$$
67:0:0
     RDKit          3D

 42 45  0  0  1  0  0  0  0  0999 V2000
    0.6872   -2.2533    4.9793 O   0  0  0  0  0  0  0  0  0  0  0  0
    1.0229   -1.5640    4.0066 C   0  0  0  0  0  0  0  0  0  0  0  0
    0.3916   -0.2162    3.7611 C   0  0  0  0  0  0  0  0  0  0  0  0
   -0.6206    0.3636    4.5978 C   0  0  0  0  0  0  0  0  0  0  0  0
   -1.1819   -0.3082    5.8601 C   0  0  0  0  0  0  0  0  0  0  0  0
   -2.0919    0.4642    6.4587 F   0  0  0  0  0  0  0  0  0  0  0  0
   -1.8015   -1.4560    5.5687 F   0  0  0  0  0  0  0  0  0  0  0  0
   -0.2314   -0.5249    6.7738 F   0  0  0  0  0  0  0  0  0  0  0  0
   -1.1341    1.6348    4.2533 C   0  0  0  0  0  0  0  0  0  0  0  0
   -0.6772    2.3161    3.1200 C   0  0  0  0  0  0  0  0  0  0  0  0
    0.3075    1.7452    2.3094 C   0  0  0  0  0  0  0  0  0  0  0  0
    0.8584    0.4952    2.6294 C   0  0  0  0  0  0  0  0  0  0  0  0
    1.8763    0.0076    1.7992 N   0  0  0  0  0  0  0  0  0  0  0  0
    2.3806   -1.1628    2.0323 C   0  0  0  0  0  0  0  0  0  0  0  0
    3.4333   -1.7168    1.0497 C   0  0  0  0  0  0  0  0  0  0  0  0
    4.9147   -1.3755    1.3838 C   0  0  0  0  0  0  0  0  0  0  0  0
    5.8172   -1.9276    0.4012 N   0  0  0  0  0  0  0  0  0  0  0  0
    6.8427   -2.8260    0.5968 C   0  0  0  0  0  0  0  0  0  0  0  0
    7.3766   -3.0167   -0.6348 C   0  0  0  0  0  0  0  0  0  0  0  0
    6.6413   -2.2657   -1.5662 N   0  0  0  0  0  0  0  0  0  0  0  0
    5.7366   -1.6063   -0.9297 N   0  0  0  0  0  0  0  0  0  0  0  0
    1.9731   -1.9919    3.1207 N   0  0  0  0  0  0  0  0  0  0  0  0
    2.5710   -3.2568    3.3566 C   0  0  0  0  0  0  0  0  0  0  0  0
    3.9233   -3.3420    3.7474 C   0  0  0  0  0  0  0  0  0  0  0  0
    4.5567   -4.5934    3.8309 C   0  0  0  0  0  0  0  0  0  0  0  0
    3.7969   -5.7823    3.7101 C   0  0  0  0  0  0  0  0  0  0  0  0
    4.3802   -6.9902    3.9184 F   0  0  0  0  0  0  0  0  0  0  0  0
    2.4065   -5.7023    3.4486 C   0  0  0  0  0  0  0  0  0  0  0  0
    1.7975   -4.4427    3.2374 C   0  0  0  0  0  0  0  0  0  0  0  0
   -1.8908    2.1028    4.8588 H   0  0  0  0  0  0  0  0  0  0  0  0
   -1.0658    3.2837    2.8570 H   0  0  0  0  0  0  0  0  0  0  0  0
    0.6680    2.2511    1.4336 H   0  0  0  0  0  0  0  0  0  0  0  0
    3.2837   -2.7890    0.9009 H   0  0  0  0  0  0  0  0  0  0  0  0
    3.1736   -1.2986    0.0691 H   0  0  0  0  0  0  0  0  0  0  0  0
    5.0745   -0.3018    1.4588 H   0  0  0  0  0  0  0  0  0  0  0  0
    5.2680   -1.8157    2.3256 H   0  0  0  0  0  0  0  0  0  0  0  0
    7.1099   -3.2413    1.5730 H   0  0  0  0  0  0  0  0  0  0  0  0
    8.2044   -3.6185   -0.9583 H   0  0  0  0  0  0  0  0  0  0  0  0
    4.4776   -2.4330    3.9563 H   0  0  0  0  0  0  0  0  0  0  0  0
    5.6193   -4.6412    4.0168 H   0  0  0  0  0  0  0  0  0  0  0  0
    1.7953   -6.6056    3.4286 H   0  0  0  0  0  0  0  0  0  0  0  0
    0.7298   -4.3754    3.0354 H   0  0  0  0  0  0  0  0  0  0  0  0
  1  2  2  0
  2 22  1  0
  2  3  1  0
  3 12  2  0
  3  4  1  0
  4  5  1  0
  4  9  2  0
  5  6  1  0
  5  7  1  0
  5  8  1  0
  9 10  1  0
  9 30  1  0
 10 11  2  0
 10 31  1  0
 11 12  1  0
 11 32  1  0
 12 13  1  0
 13 14  2  0
 14 15  1  0
 14 22  1  0
 15 16  1  0
 15 33  1  0
 15 34  1  0
 16 17  1  0
 16 35  1  0
 16 36  1  0
 17 21  1  0
 17 18  1  0
 18 19  2  0
 18 37  1  0
 19 20  1  0
 19 38  1  0
 20 21  2  0
 22 23  1  0
 23 29  1  0
 23 24  2  0
 24 25  1  0
 24 39  1  0
 25 26  2  0
 25 40  1  0
 26 27  1  0
 26 28  1  0
 28 29  2  0
 28 41  1  0
 29 42  1  0
M  END
>  <i_m_ct_stereo_status>  (264) 
1

>  <s_m_source_file>  (264) 
/var/tmp/pbs.5076255.sched01/tmppdndq9e4/92von5zo7h.sdf

>  <i_m_source_file_index>  (264) 
20

>  <i_lp_mmshare_version>  (264) 
48012

>  <i_f3d_flags>  (264) 
0

>  <s_epik_input>  (264) 
bjFuW2NIXVtjSF1uMVtDSDJdW0NIMl1jKG5jKGMyMylbY0hdW2NIXVtjSF1jM0MoRikoRilGKW4oYzI9TyktYzRbY0hdW2NIXWMoRilbY0hdW2NIXTQ=

>  <s_epik_cmdline>  (264) 
J2VwaWtfcHl0aG9uJywgJy1waHQnLCAnMi4wJywgJy1waCcsICc3LjAnLCAnLXRuJywgJzgnLCAnLW1hJywgJzIwMCcsICctaW1hZScsICc8aW5maWxlLm1hZT4nLCAnLW9tYWUnLCAnPG91dGZpbGUubWFlPic=

>  <r_lp_tautomer_probability>  (264) 
1

>  <r_epik_Ionization_Penalty>  (264) 
8.44653e-06

>  <r_epik_Ionization_Penalty_Charging>  (264) 
2.31111e-11

>  <r_epik_Ionization_Penalty_Neutral>  (264) 
8.44651e-06

>  <r_epik_State_Penalty>  (264) 
-0

>  <r_epik_Charging_Adjusted_Penalty>  (264) 
2.31111e-11

>  <i_epik_Tot_Q>  (264) 
0

>  <i_epik_Tot_abs_Q>  (264) 
0

>  <s_lp_Force_Field>  (264) 
OPLS3e

>  <r_lp_Energy>  (264) 
50.4752

>  <b_lp_Chiralities_Consistent>  (264) 
1

>  <s_lp_Variant>  (264) 
67:0-1

>  <s_i_glide_gridfile>  (264) 
pfpi4k_grid

>  <i_i_glide_lignum>  (264) 
20

>  <i_i_glide_rotatable_bonds>  (264) 
5

>  <r_i_docking_score>  (264) 
-3.03525

>  <r_i_glide_ligand_efficiency>  (264) 
-0.104664

>  <r_i_glide_ligand_efficiency_sa>  (264) 
-0.321561

>  <r_i_glide_ligand_efficiency_ln>  (264) 
-0.694996

>  <r_i_glide_gscore>  (264) 
-3.03525

>  <r_i_glide_lipo>  (264) 
-0.229347

>  <r_i_glide_hbond>  (264) 
0

>  <r_i_glide_metal>  (264) 
-0

>  <r_i_glide_rewards>  (264) 
-0.753903

>  <r_i_glide_evdw>  (264) 
-27.3048

>  <r_i_glide_ecoul>  (264) 
-5.26242

>  <r_i_glide_erotb>  (264) 
0.482733

>  <r_i_glide_esite>  (264) 
-0.380133

>  <r_i_glide_emodel>  (264) 
-37.5165

>  <r_i_glide_energy>  (264) 
-32.5672

>  <r_i_glide_einternal>  (264) 
0.634609

>  <r_i_glide_intrahb_reward>  (264) 
-0

>  <i_i_glide_confnum>  (264) 
3

>  <i_i_glide_posenum>  (264) 
27

>  <r_i_glide_eff_state_penalty>  (264) 
0

>  <ligand_id>  (264) 
67

>  <original_smiles>  (264) 
O=c1c2c(C(F)(F)F)cccc2nc(CCn2ccnn2)n1-c1ccc(F)cc1

>  <smiles>  (264) 
[H]c1nnn(C([H])([H])C([H])([H])c2nc3c([H])c([H])c([H])c(C(F)(F)F)c3c(=O)n2-c2c([H])c([H])c(F)c([H])c2[H])c1[H]

$$$$
67:0:1
     RDKit          3D

 42 45  0  0  1  0  0  0  0  0999 V2000
    4.0861   -0.5714    0.4798 O   0  0  0  0  0  0  0  0  0  0  0  0
    3.7097   -1.5321    1.1480 C   0  0  0  0  0  0  0  0  0  0  0  0
    4.0088   -2.9474    0.7076 C   0  0  0  0  0  0  0  0  0  0  0  0
    4.6931   -3.2794   -0.5086 C   0  0  0  0  0  0  0  0  0  0  0  0
    5.1968   -2.2476   -1.5340 C   0  0  0  0  0  0  0  0  0  0  0  0
    5.7716   -2.8457   -2.5763 F   0  0  0  0  0  0  0  0  0  0  0  0
    4.2045   -1.5081   -2.0292 F   0  0  0  0  0  0  0  0  0  0  0  0
    6.1287   -1.4585   -0.9979 F   0  0  0  0  0  0  0  0  0  0  0  0
    4.9263   -4.6440   -0.7882 C   0  0  0  0  0  0  0  0  0  0  0  0
    4.5044   -5.6611    0.0814 C   0  0  0  0  0  0  0  0  0  0  0  0
    3.8330   -5.3282    1.2641 C   0  0  0  0  0  0  0  0  0  0  0  0
    3.5817   -3.9830    1.5810 C   0  0  0  0  0  0  0  0  0  0  0  0
    2.9058   -3.7276    2.7794 N   0  0  0  0  0  0  0  0  0  0  0  0
    2.6653   -2.5004    3.1092 C   0  0  0  0  0  0  0  0  0  0  0  0
    1.9532   -2.2466    4.4575 C   0  0  0  0  0  0  0  0  0  0  0  0
    0.4435   -2.5634    4.4421 C   0  0  0  0  0  0  0  0  0  0  0  0
    0.0154   -3.0968    5.7218 N   0  0  0  0  0  0  0  0  0  0  0  0
   -0.1805   -4.4161    6.0749 C   0  0  0  0  0  0  0  0  0  0  0  0
   -0.5378   -4.3507    7.3872 C   0  0  0  0  0  0  0  0  0  0  0  0
   -0.5411   -3.0177    7.7798 N   0  0  0  0  0  0  0  0  0  0  0  0
   -0.1905   -2.2743    6.7710 N   0  0  0  0  0  0  0  0  0  0  0  0
    3.0348   -1.3764    2.3273 N   0  0  0  0  0  0  0  0  0  0  0  0
    2.7596   -0.0543    2.7579 C   0  0  0  0  0  0  0  0  0  0  0  0
    3.4937    0.5173    3.8210 C   0  0  0  0  0  0  0  0  0  0  0  0
    3.1865    1.8157    4.2652 C   0  0  0  0  0  0  0  0  0  0  0  0
    2.1677    2.5542    3.6264 C   0  0  0  0  0  0  0  0  0  0  0  0
    1.8757    3.8047    4.0544 F   0  0  0  0  0  0  0  0  0  0  0  0
    1.4513    1.9893    2.5493 C   0  0  0  0  0  0  0  0  0  0  0  0
    1.7468    0.6860    2.1151 C   0  0  0  0  0  0  0  0  0  0  0  0
    5.4113   -4.9327   -1.7064 H   0  0  0  0  0  0  0  0  0  0  0  0
    4.6695   -6.6947   -0.1745 H   0  0  0  0  0  0  0  0  0  0  0  0
    3.4966   -6.1088    1.9316 H   0  0  0  0  0  0  0  0  0  0  0  0
    2.4586   -2.8776    5.1917 H   0  0  0  0  0  0  0  0  0  0  0  0
    2.0588   -1.2442    4.8685 H   0  0  0  0  0  0  0  0  0  0  0  0
   -0.1327   -1.6598    4.2064 H   0  0  0  0  0  0  0  0  0  0  0  0
    0.2048   -3.3019    3.6787 H   0  0  0  0  0  0  0  0  0  0  0  0
   -0.0405   -5.2445    5.3973 H   0  0  0  0  0  0  0  0  0  0  0  0
   -0.7780   -5.1362    8.0813 H   0  0  0  0  0  0  0  0  0  0  0  0
    4.2694   -0.0505    4.3138 H   0  0  0  0  0  0  0  0  0  0  0  0
    3.7204    2.2367    5.1062 H   0  0  0  0  0  0  0  0  0  0  0  0
    0.6711    2.5495    2.0564 H   0  0  0  0  0  0  0  0  0  0  0  0
    1.1977    0.2454    1.2952 H   0  0  0  0  0  0  0  0  0  0  0  0
  1  2  2  0
  2 22  1  0
  2  3  1  0
  3 12  2  0
  3  4  1  0
  4  5  1  0
  4  9  2  0
  5  6  1  0
  5  7  1  0
  5  8  1  0
  9 10  1  0
  9 30  1  0
 10 11  2  0
 10 31  1  0
 11 12  1  0
 11 32  1  0
 12 13  1  0
 13 14  2  0
 14 15  1  0
 14 22  1  0
 15 16  1  0
 15 33  1  0
 15 34  1  0
 16 17  1  0
 16 35  1  0
 16 36  1  0
 17 21  1  0
 17 18  1  0
 18 19  2  0
 18 37  1  0
 19 20  1  0
 19 38  1  0
 20 21  2  0
 22 23  1  0
 23 29  1  0
 23 24  2  0
 24 25  1  0
 24 39  1  0
 25 26  2  0
 25 40  1  0
 26 27  1  0
 26 28  1  0
 28 29  2  0
 28 41  1  0
 29 42  1  0
M  END
>  <i_m_ct_stereo_status>  (265) 
1

>  <s_m_source_file>  (265) 
/var/tmp/pbs.5076255.sched01/tmppdndq9e4/92von5zo7h.sdf

>  <i_m_source_file_index>  (265) 
20

>  <i_lp_mmshare_version>  (265) 
48012

>  <i_f3d_flags>  (265) 
0

>  <s_epik_input>  (265) 
bjFuW2NIXVtjSF1uMVtDSDJdW0NIMl1jKG5jKGMyMylbY0hdW2NIXVtjSF1jM0MoRikoRilGKW4oYzI9TyktYzRbY0hdW2NIXWMoRilbY0hdW2NIXTQ=

>  <s_epik_cmdline>  (265) 
J2VwaWtfcHl0aG9uJywgJy1waHQnLCAnMi4wJywgJy1waCcsICc3LjAnLCAnLXRuJywgJzgnLCAnLW1hJywgJzIwMCcsICctaW1hZScsICc8aW5maWxlLm1hZT4nLCAnLW9tYWUnLCAnPG91dGZpbGUubWFlPic=

>  <r_lp_tautomer_probability>  (265) 
1

>  <r_epik_Ionization_Penalty>  (265) 
8.44653e-06

>  <r_epik_Ionization_Penalty_Charging>  (265) 
2.31111e-11

>  <r_epik_Ionization_Penalty_Neutral>  (265) 
8.44651e-06

>  <r_epik_State_Penalty>  (265) 
-0

>  <r_epik_Charging_Adjusted_Penalty>  (265) 
2.31111e-11

>  <i_epik_Tot_Q>  (265) 
0

>  <i_epik_Tot_abs_Q>  (265) 
0

>  <s_lp_Force_Field>  (265) 
OPLS3e

>  <r_lp_Energy>  (265) 
50.4752

>  <b_lp_Chiralities_Consistent>  (265) 
1

>  <s_lp_Variant>  (265) 
67:0-1

>  <s_i_glide_gridfile>  (265) 
pfpi4k_grid

>  <i_i_glide_lignum>  (265) 
20

>  <i_i_glide_rotatable_bonds>  (265) 
5

>  <r_i_docking_score>  (265) 
-2.84972

>  <r_i_glide_ligand_efficiency>  (265) 
-0.0982663

>  <r_i_glide_ligand_efficiency_sa>  (265) 
-0.301905

>  <r_i_glide_ligand_efficiency_ln>  (265) 
-0.652514

>  <r_i_glide_gscore>  (265) 
-2.84972

>  <r_i_glide_lipo>  (265) 
-0.13257

>  <r_i_glide_hbond>  (265) 
0

>  <r_i_glide_metal>  (265) 
-0

>  <r_i_glide_rewards>  (265) 
-0.856152

>  <r_i_glide_evdw>  (265) 
-26.1186

>  <r_i_glide_ecoul>  (265) 
-5.03241

>  <r_i_glide_erotb>  (265) 
0.482733

>  <r_i_glide_esite>  (265) 
-0.28294

>  <r_i_glide_emodel>  (265) 
-35.6773

>  <r_i_glide_energy>  (265) 
-31.151

>  <r_i_glide_einternal>  (265) 
3.08337

>  <r_i_glide_intrahb_reward>  (265) 
-0

>  <i_i_glide_confnum>  (265) 
2

>  <i_i_glide_posenum>  (265) 
16

>  <r_i_glide_eff_state_penalty>  (265) 
0

>  <ligand_id>  (265) 
67

>  <original_smiles>  (265) 
O=c1c2c(C(F)(F)F)cccc2nc(CCn2ccnn2)n1-c1ccc(F)cc1

>  <smiles>  (265) 
[H]c1nnn(C([H])([H])C([H])([H])c2nc3c([H])c([H])c([H])c(C(F)(F)F)c3c(=O)n2-c2c([H])c([H])c(F)c([H])c2[H])c1[H]

$$$$
67:0:2
     RDKit          3D

 42 45  0  0  1  0  0  0  0  0999 V2000
    0.8707   -2.4755    4.3827 O   0  0  0  0  0  0  0  0  0  0  0  0
    1.3064   -1.6582    3.5704 C   0  0  0  0  0  0  0  0  0  0  0  0
    0.7851   -0.2464    3.5796 C   0  0  0  0  0  0  0  0  0  0  0  0
   -0.1938    0.2607    4.5064 C   0  0  0  0  0  0  0  0  0  0  0  0
   -0.8166   -0.5742    5.6395 C   0  0  0  0  0  0  0  0  0  0  0  0
   -1.6871    0.1460    6.3427 F   0  0  0  0  0  0  0  0  0  0  0  0
   -1.5059   -1.6107    5.1703 F   0  0  0  0  0  0  0  0  0  0  0  0
    0.1028   -0.9972    6.5068 F   0  0  0  0  0  0  0  0  0  0  0  0
   -0.6057    1.6087    4.3825 C   0  0  0  0  0  0  0  0  0  0  0  0
   -0.0863    2.4432    3.3784 C   0  0  0  0  0  0  0  0  0  0  0  0
    0.8679    1.9399    2.4819 C   0  0  0  0  0  0  0  0  0  0  0  0
    1.3141    0.6187    2.5832 C   0  0  0  0  0  0  0  0  0  0  0  0
    2.2943    0.2080    1.6733 N   0  0  0  0  0  0  0  0  0  0  0  0
    2.6948   -1.0131    1.6999 C   0  0  0  0  0  0  0  0  0  0  0  0
    3.7323   -1.4234    0.6268 C   0  0  0  0  0  0  0  0  0  0  0  0
    5.2117   -1.4329    1.1062 C   0  0  0  0  0  0  0  0  0  0  0  0
    6.0968   -2.0265    0.1104 N   0  0  0  0  0  0  0  0  0  0  0  0
    7.2382   -2.7724    0.3017 C   0  0  0  0  0  0  0  0  0  0  0  0
    7.6527   -3.0532   -0.9624 C   0  0  0  0  0  0  0  0  0  0  0  0
    6.7581   -2.4795   -1.8651 N   0  0  0  0  0  0  0  0  0  0  0  0
    5.8380   -1.8574   -1.2105 N   0  0  0  0  0  0  0  0  0  0  0  0
    2.2538   -2.0007    2.6423 N   0  0  0  0  0  0  0  0  0  0  0  0
    2.7540   -3.3417    2.6346 C   0  0  0  0  0  0  0  0  0  0  0  0
    2.5707   -4.1887    1.5157 C   0  0  0  0  0  0  0  0  0  0  0  0
    3.1178   -5.4816    1.4845 C   0  0  0  0  0  0  0  0  0  0  0  0
    3.7969   -5.9822    2.6156 C   0  0  0  0  0  0  0  0  0  0  0  0
    4.3149   -7.2355    2.5942 F   0  0  0  0  0  0  0  0  0  0  0  0
    3.9379   -5.1701    3.7632 C   0  0  0  0  0  0  0  0  0  0  0  0
    3.4276   -3.8570    3.7680 C   0  0  0  0  0  0  0  0  0  0  0  0
   -1.3343    2.0180    5.0632 H   0  0  0  0  0  0  0  0  0  0  0  0
   -0.4054    3.4674    3.2838 H   0  0  0  0  0  0  0  0  0  0  0  0
    1.2681    2.5722    1.6989 H   0  0  0  0  0  0  0  0  0  0  0  0
    3.5310   -2.3842    0.1515 H   0  0  0  0  0  0  0  0  0  0  0  0
    3.6153   -0.7178   -0.2097 H   0  0  0  0  0  0  0  0  0  0  0  0
    5.5551   -0.4143    1.3234 H   0  0  0  0  0  0  0  0  0  0  0  0
    5.3082   -2.0175    2.0285 H   0  0  0  0  0  0  0  0  0  0  0  0
    7.6337   -3.0272    1.2687 H   0  0  0  0  0  0  0  0  0  0  0  0
    8.5096   -3.6074   -1.3169 H   0  0  0  0  0  0  0  0  0  0  0  0
    2.0006   -3.8462    0.6632 H   0  0  0  0  0  0  0  0  0  0  0  0
    3.0241   -6.0713    0.5804 H   0  0  0  0  0  0  0  0  0  0  0  0
    4.4348   -5.5514    4.6456 H   0  0  0  0  0  0  0  0  0  0  0  0
    3.5557   -3.2376    4.6447 H   0  0  0  0  0  0  0  0  0  0  0  0
  1  2  2  0
  2 22  1  0
  2  3  1  0
  3 12  2  0
  3  4  1  0
  4  5  1  0
  4  9  2  0
  5  6  1  0
  5  7  1  0
  5  8  1  0
  9 10  1  0
  9 30  1  0
 10 11  2  0
 10 31  1  0
 11 12  1  0
 11 32  1  0
 12 13  1  0
 13 14  2  0
 14 15  1  0
 14 22  1  0
 15 16  1  0
 15 33  1  0
 15 34  1  0
 16 17  1  0
 16 35  1  0
 16 36  1  0
 17 21  1  0
 17 18  1  0
 18 19  2  0
 18 37  1  0
 19 20  1  0
 19 38  1  0
 20 21  2  0
 22 23  1  0
 23 29  1  0
 23 24  2  0
 24 25  1  0
 24 39  1  0
 25 26  2  0
 25 40  1  0
 26 27  1  0
 26 28  1  0
 28 29  2  0
 28 41  1  0
 29 42  1  0
M  END
>  <i_m_ct_stereo_status>  (266) 
1

>  <s_m_source_file>  (266) 
/var/tmp/pbs.5076255.sched01/tmppdndq9e4/92von5zo7h.sdf

>  <i_m_source_file_index>  (266) 
20

>  <i_lp_mmshare_version>  (266) 
48012

>  <i_f3d_flags>  (266) 
0

>  <s_epik_input>  (266) 
bjFuW2NIXVtjSF1uMVtDSDJdW0NIMl1jKG5jKGMyMylbY0hdW2NIXVtjSF1jM0MoRikoRilGKW4oYzI9TyktYzRbY0hdW2NIXWMoRilbY0hdW2NIXTQ=

>  <s_epik_cmdline>  (266) 
J2VwaWtfcHl0aG9uJywgJy1waHQnLCAnMi4wJywgJy1waCcsICc3LjAnLCAnLXRuJywgJzgnLCAnLW1hJywgJzIwMCcsICctaW1hZScsICc8aW5maWxlLm1hZT4nLCAnLW9tYWUnLCAnPG91dGZpbGUubWFlPic=

>  <r_lp_tautomer_probability>  (266) 
1

>  <r_epik_Ionization_Penalty>  (266) 
8.44653e-06

>  <r_epik_Ionization_Penalty_Charging>  (266) 
2.31111e-11

>  <r_epik_Ionization_Penalty_Neutral>  (266) 
8.44651e-06

>  <r_epik_State_Penalty>  (266) 
-0

>  <r_epik_Charging_Adjusted_Penalty>  (266) 
2.31111e-11

>  <i_epik_Tot_Q>  (266) 
0

>  <i_epik_Tot_abs_Q>  (266) 
0

>  <s_lp_Force_Field>  (266) 
OPLS3e

>  <r_lp_Energy>  (266) 
50.4752

>  <b_lp_Chiralities_Consistent>  (266) 
1

>  <s_lp_Variant>  (266) 
67:0-1

>  <s_i_glide_gridfile>  (266) 
pfpi4k_grid

>  <i_i_glide_lignum>  (266) 
20

>  <i_i_glide_rotatable_bonds>  (266) 
5

>  <r_i_docking_score>  (266) 
-2.82114

>  <r_i_glide_ligand_efficiency>  (266) 
-0.0972808

>  <r_i_glide_ligand_efficiency_sa>  (266) 
-0.298877

>  <r_i_glide_ligand_efficiency_ln>  (266) 
-0.64597

>  <r_i_glide_gscore>  (266) 
-2.82114

>  <r_i_glide_lipo>  (266) 
-0.232265

>  <r_i_glide_hbond>  (266) 
0

>  <r_i_glide_metal>  (266) 
-0

>  <r_i_glide_rewards>  (266) 
-0.68434

>  <r_i_glide_evdw>  (266) 
-27.9096

>  <r_i_glide_ecoul>  (266) 
-4.32507

>  <r_i_glide_erotb>  (266) 
0.482733

>  <r_i_glide_esite>  (266) 
-0.343032

>  <r_i_glide_emodel>  (266) 
-36.9478

>  <r_i_glide_energy>  (266) 
-32.2346

>  <r_i_glide_einternal>  (266) 
1.69464

>  <r_i_glide_intrahb_reward>  (266) 
-0

>  <i_i_glide_confnum>  (266) 
6

>  <i_i_glide_posenum>  (266) 
19

>  <r_i_glide_eff_state_penalty>  (266) 
0

>  <ligand_id>  (266) 
67

>  <original_smiles>  (266) 
O=c1c2c(C(F)(F)F)cccc2nc(CCn2ccnn2)n1-c1ccc(F)cc1

>  <smiles>  (266) 
[H]c1nnn(C([H])([H])C([H])([H])c2nc3c([H])c([H])c([H])c(C(F)(F)F)c3c(=O)n2-c2c([H])c([H])c(F)c([H])c2[H])c1[H]

$$$$
69:0:0
     RDKit          3D

 15 16  0  0  1  0  0  0  0  0999 V2000
    0.2174   -6.6563    0.7933 N   0  0  0  0  0  0  0  0  0  0  0  0
    0.2574   -7.2966    1.7562 C   0  0  0  0  0  0  0  0  0  0  0  0
    0.2656   -8.0037    2.9784 C   0  0  0  0  0  0  0  0  0  0  0  0
   -0.3895   -7.6026    4.1623 C   0  0  0  0  0  0  0  0  0  0  0  0
   -0.1860   -8.4245    5.1636 N   0  0  0  0  0  0  0  0  0  0  0  0
    0.6027   -9.4141    4.6206 N   0  0  0  0  0  0  0  0  0  0  0  0
    1.0694  -10.5131    5.2691 C   0  0  0  0  0  0  0  0  0  0  0  0
    1.8661  -11.3817    4.5607 C   0  0  0  0  0  0  0  0  0  0  0  0
    2.1559  -11.0875    3.2098 C   0  0  0  0  0  0  0  0  0  0  0  0
    1.7020  -10.0152    2.5650 N   0  0  0  0  0  0  0  0  0  0  0  0
    0.9140   -9.1749    3.2597 C   0  0  0  0  0  0  0  0  0  0  0  0
   -0.9971   -6.7209    4.3139 H   0  0  0  0  0  0  0  0  0  0  0  0
    0.7912  -10.6480    6.3095 H   0  0  0  0  0  0  0  0  0  0  0  0
    2.2529  -12.2718    5.0438 H   0  0  0  0  0  0  0  0  0  0  0  0
    2.7784  -11.7690    2.6352 H   0  0  0  0  0  0  0  0  0  0  0  0
  1  2  3  0
  2  3  1  0
  3 11  2  0
  3  4  1  0
  4  5  2  0
  4 12  1  0
  5  6  1  0
  6 11  1  0
  6  7  1  0
  7  8  2  0
  7 13  1  0
  8  9  1  0
  8 14  1  0
  9 10  2  0
  9 15  1  0
 10 11  1  0
M  END
>  <i_m_ct_stereo_status>  (267) 
1

>  <s_m_source_file>  (267) 
/var/tmp/pbs.5076255.sched01/tmppdndq9e4/92von5zo7h.sdf

>  <i_m_source_file_index>  (267) 
22

>  <i_lp_mmshare_version>  (267) 
48012

>  <i_f3d_flags>  (267) 
0

>  <s_epik_input>  (267) 
TiNDYyhbY0hdbjEpYyhuMTIpbltjSF1bY0hdW2NIXTI=

>  <s_epik_cmdline>  (267) 
J2VwaWtfcHl0aG9uJywgJy1waHQnLCAnMi4wJywgJy1waCcsICc3LjAnLCAnLXRuJywgJzgnLCAnLW1hJywgJzIwMCcsICctaW1hZScsICc8aW5maWxlLm1hZT4nLCAnLW9tYWUnLCAnPG91dGZpbGUubWFlPic=

>  <r_lp_tautomer_probability>  (267) 
1

>  <r_epik_Ionization_Penalty>  (267) 
8.25081e-12

>  <r_epik_Ionization_Penalty_Charging>  (267) 
0

>  <r_epik_Ionization_Penalty_Neutral>  (267) 
8.25081e-12

>  <r_epik_State_Penalty>  (267) 
-0

>  <r_epik_Charging_Adjusted_Penalty>  (267) 
0

>  <i_epik_Tot_Q>  (267) 
0

>  <i_epik_Tot_abs_Q>  (267) 
0

>  <s_lp_Force_Field>  (267) 
OPLS3e

>  <r_lp_Energy>  (267) 
11.6171

>  <b_lp_Chiralities_Consistent>  (267) 
1

>  <s_lp_Variant>  (267) 
69:0-1

>  <s_i_glide_gridfile>  (267) 
pfpi4k_grid

>  <i_i_glide_lignum>  (267) 
22

>  <i_i_glide_rotatable_bonds>  (267) 
1

>  <r_i_docking_score>  (267) 
-4.06465

>  <r_i_glide_ligand_efficiency>  (267) 
-0.369514

>  <r_i_glide_ligand_efficiency_sa>  (267) 
-0.821791

>  <r_i_glide_ligand_efficiency_ln>  (267) 
-1.19623

>  <r_i_glide_gscore>  (267) 
-4.06465

>  <r_i_glide_lipo>  (267) 
-0.0795007

>  <r_i_glide_hbond>  (267) 
-0.16

>  <r_i_glide_metal>  (267) 
-0

>  <r_i_glide_rewards>  (267) 
-2.25

>  <r_i_glide_evdw>  (267) 
-16.4071

>  <r_i_glide_ecoul>  (267) 
-4.08941

>  <r_i_glide_erotb>  (267) 
0

>  <r_i_glide_esite>  (267) 
-0.141382

>  <r_i_glide_emodel>  (267) 
-26.5265

>  <r_i_glide_energy>  (267) 
-20.4965

>  <r_i_glide_einternal>  (267) 
-0.277

>  <r_i_glide_intrahb_reward>  (267) 
-0

>  <i_i_glide_confnum>  (267) 
1

>  <i_i_glide_posenum>  (267) 
4

>  <r_i_glide_eff_state_penalty>  (267) 
0

>  <ligand_id>  (267) 
69

>  <original_smiles>  (267) 
N#Cc1cnn2cccnc12

>  <smiles>  (267) 
[H]c1nc2c(C#N)c([H])nn2c([H])c1[H]

$$$$
69:0:1
     RDKit          3D

 15 16  0  0  1  0  0  0  0  0999 V2000
    2.7045   -5.1688    1.0536 N   0  0  0  0  0  0  0  0  0  0  0  0
    3.1435   -4.2524    0.4972 C   0  0  0  0  0  0  0  0  0  0  0  0
    3.6893   -3.1135   -0.1466 C   0  0  0  0  0  0  0  0  0  0  0  0
    4.6394   -2.2264    0.4104 C   0  0  0  0  0  0  0  0  0  0  0  0
    4.9845   -1.2591   -0.4107 N   0  0  0  0  0  0  0  0  0  0  0  0
    4.2228   -1.5025   -1.5356 N   0  0  0  0  0  0  0  0  0  0  0  0
    4.2152   -0.7639   -2.6767 C   0  0  0  0  0  0  0  0  0  0  0  0
    3.4068   -1.1785   -3.7095 C   0  0  0  0  0  0  0  0  0  0  0  0
    2.6150   -2.3353   -3.5195 C   0  0  0  0  0  0  0  0  0  0  0  0
    2.6009   -3.0540   -2.4046 N   0  0  0  0  0  0  0  0  0  0  0  0
    3.4075   -2.6547   -1.4029 C   0  0  0  0  0  0  0  0  0  0  0  0
    5.0856   -2.2792    1.3957 H   0  0  0  0  0  0  0  0  0  0  0  0
    4.8393    0.1207   -2.7008 H   0  0  0  0  0  0  0  0  0  0  0  0
    3.3472   -0.6065   -4.6291 H   0  0  0  0  0  0  0  0  0  0  0  0
    1.9463   -2.6687   -4.3091 H   0  0  0  0  0  0  0  0  0  0  0  0
  1  2  3  0
  2  3  1  0
  3 11  2  0
  3  4  1  0
  4  5  2  0
  4 12  1  0
  5  6  1  0
  6 11  1  0
  6  7  1  0
  7  8  2  0
  7 13  1  0
  8  9  1  0
  8 14  1  0
  9 10  2  0
  9 15  1  0
 10 11  1  0
M  END
>  <i_m_ct_stereo_status>  (268) 
1

>  <s_m_source_file>  (268) 
/var/tmp/pbs.5076255.sched01/tmppdndq9e4/92von5zo7h.sdf

>  <i_m_source_file_index>  (268) 
22

>  <i_lp_mmshare_version>  (268) 
48012

>  <i_f3d_flags>  (268) 
0

>  <s_epik_input>  (268) 
TiNDYyhbY0hdbjEpYyhuMTIpbltjSF1bY0hdW2NIXTI=

>  <s_epik_cmdline>  (268) 
J2VwaWtfcHl0aG9uJywgJy1waHQnLCAnMi4wJywgJy1waCcsICc3LjAnLCAnLXRuJywgJzgnLCAnLW1hJywgJzIwMCcsICctaW1hZScsICc8aW5maWxlLm1hZT4nLCAnLW9tYWUnLCAnPG91dGZpbGUubWFlPic=

>  <r_lp_tautomer_probability>  (268) 
1

>  <r_epik_Ionization_Penalty>  (268) 
8.25081e-12

>  <r_epik_Ionization_Penalty_Charging>  (268) 
0

>  <r_epik_Ionization_Penalty_Neutral>  (268) 
8.25081e-12

>  <r_epik_State_Penalty>  (268) 
-0

>  <r_epik_Charging_Adjusted_Penalty>  (268) 
0

>  <i_epik_Tot_Q>  (268) 
0

>  <i_epik_Tot_abs_Q>  (268) 
0

>  <s_lp_Force_Field>  (268) 
OPLS3e

>  <r_lp_Energy>  (268) 
11.6171

>  <b_lp_Chiralities_Consistent>  (268) 
1

>  <s_lp_Variant>  (268) 
69:0-1

>  <s_i_glide_gridfile>  (268) 
pfpi4k_grid

>  <i_i_glide_lignum>  (268) 
22

>  <i_i_glide_rotatable_bonds>  (268) 
1

>  <r_i_docking_score>  (268) 
-3.8151

>  <r_i_glide_ligand_efficiency>  (268) 
-0.346828

>  <r_i_glide_ligand_efficiency_sa>  (268) 
-0.771338

>  <r_i_glide_ligand_efficiency_ln>  (268) 
-1.12278

>  <r_i_glide_gscore>  (268) 
-3.8151

>  <r_i_glide_lipo>  (268) 
-0.512279

>  <r_i_glide_hbond>  (268) 
0

>  <r_i_glide_metal>  (268) 
-0

>  <r_i_glide_rewards>  (268) 
-2.25

>  <r_i_glide_evdw>  (268) 
-19.8768

>  <r_i_glide_ecoul>  (268) 
0.197709

>  <r_i_glide_erotb>  (268) 
0

>  <r_i_glide_esite>  (268) 
-0.0886417

>  <r_i_glide_emodel>  (268) 
-25.365

>  <r_i_glide_energy>  (268) 
-19.6791

>  <r_i_glide_einternal>  (268) 
-0.289962

>  <r_i_glide_intrahb_reward>  (268) 
-0

>  <i_i_glide_confnum>  (268) 
2

>  <i_i_glide_posenum>  (268) 
23

>  <r_i_glide_eff_state_penalty>  (268) 
0

>  <ligand_id>  (268) 
69

>  <original_smiles>  (268) 
N#Cc1cnn2cccnc12

>  <smiles>  (268) 
[H]c1nc2c(C#N)c([H])nn2c([H])c1[H]

$$$$
69:0:2
     RDKit          3D

 15 16  0  0  1  0  0  0  0  0999 V2000
   -1.0138   -4.2729    6.8792 N   0  0  0  0  0  0  0  0  0  0  0  0
   -0.5835   -5.2535    6.4378 C   0  0  0  0  0  0  0  0  0  0  0  0
   -0.0326   -6.4637    5.9312 C   0  0  0  0  0  0  0  0  0  0  0  0
    1.0517   -7.1641    6.5050 C   0  0  0  0  0  0  0  0  0  0  0  0
    1.3575   -8.2618    5.8508 N   0  0  0  0  0  0  0  0  0  0  0  0
    0.4475   -8.2978    4.8182 N   0  0  0  0  0  0  0  0  0  0  0  0
    0.3604   -9.2563    3.8543 C   0  0  0  0  0  0  0  0  0  0  0  0
   -0.6132   -9.1111    2.8927 C   0  0  0  0  0  0  0  0  0  0  0  0
   -1.4754   -7.9955    2.9726 C   0  0  0  0  0  0  0  0  0  0  0  0
   -1.3977   -7.0508    3.9044 N   0  0  0  0  0  0  0  0  0  0  0  0
   -0.4373   -7.1900    4.8408 C   0  0  0  0  0  0  0  0  0  0  0  0
    1.6223   -6.8934    7.3835 H   0  0  0  0  0  0  0  0  0  0  0  0
    1.0631  -10.0805    3.8955 H   0  0  0  0  0  0  0  0  0  0  0  0
   -0.7232   -9.8518    2.1050 H   0  0  0  0  0  0  0  0  0  0  0  0
   -2.2570   -7.8743    2.2290 H   0  0  0  0  0  0  0  0  0  0  0  0
  1  2  3  0
  2  3  1  0
  3 11  2  0
  3  4  1  0
  4  5  2  0
  4 12  1  0
  5  6  1  0
  6 11  1  0
  6  7  1  0
  7  8  2  0
  7 13  1  0
  8  9  1  0
  8 14  1  0
  9 10  2  0
  9 15  1  0
 10 11  1  0
M  END
>  <i_m_ct_stereo_status>  (269) 
1

>  <s_m_source_file>  (269) 
/var/tmp/pbs.5076255.sched01/tmppdndq9e4/92von5zo7h.sdf

>  <i_m_source_file_index>  (269) 
22

>  <i_lp_mmshare_version>  (269) 
48012

>  <i_f3d_flags>  (269) 
0

>  <s_epik_input>  (269) 
TiNDYyhbY0hdbjEpYyhuMTIpbltjSF1bY0hdW2NIXTI=

>  <s_epik_cmdline>  (269) 
J2VwaWtfcHl0aG9uJywgJy1waHQnLCAnMi4wJywgJy1waCcsICc3LjAnLCAnLXRuJywgJzgnLCAnLW1hJywgJzIwMCcsICctaW1hZScsICc8aW5maWxlLm1hZT4nLCAnLW9tYWUnLCAnPG91dGZpbGUubWFlPic=

>  <r_lp_tautomer_probability>  (269) 
1

>  <r_epik_Ionization_Penalty>  (269) 
8.25081e-12

>  <r_epik_Ionization_Penalty_Charging>  (269) 
0

>  <r_epik_Ionization_Penalty_Neutral>  (269) 
8.25081e-12

>  <r_epik_State_Penalty>  (269) 
-0

>  <r_epik_Charging_Adjusted_Penalty>  (269) 
0

>  <i_epik_Tot_Q>  (269) 
0

>  <i_epik_Tot_abs_Q>  (269) 
0

>  <s_lp_Force_Field>  (269) 
OPLS3e

>  <r_lp_Energy>  (269) 
11.6171

>  <b_lp_Chiralities_Consistent>  (269) 
1

>  <s_lp_Variant>  (269) 
69:0-1

>  <s_i_glide_gridfile>  (269) 
pfpi4k_grid

>  <i_i_glide_lignum>  (269) 
22

>  <i_i_glide_rotatable_bonds>  (269) 
1

>  <r_i_docking_score>  (269) 
-3.45124

>  <r_i_glide_ligand_efficiency>  (269) 
-0.313749

>  <r_i_glide_ligand_efficiency_sa>  (269) 
-0.697772

>  <r_i_glide_ligand_efficiency_ln>  (269) 
-1.0157

>  <r_i_glide_gscore>  (269) 
-3.45124

>  <r_i_glide_lipo>  (269) 
0

>  <r_i_glide_hbond>  (269) 
-0.0148868

>  <r_i_glide_metal>  (269) 
-0

>  <r_i_glide_rewards>  (269) 
-2.33788

>  <r_i_glide_evdw>  (269) 
-14.488

>  <r_i_glide_ecoul>  (269) 
-2.09615

>  <r_i_glide_erotb>  (269) 
0

>  <r_i_glide_esite>  (269) 
-0.0596546

>  <r_i_glide_emodel>  (269) 
-21.7267

>  <r_i_glide_energy>  (269) 
-16.5842

>  <r_i_glide_einternal>  (269) 
-0.277032

>  <r_i_glide_intrahb_reward>  (269) 
-0

>  <i_i_glide_confnum>  (269) 
1

>  <i_i_glide_posenum>  (269) 
9

>  <r_i_glide_eff_state_penalty>  (269) 
0

>  <ligand_id>  (269) 
69

>  <original_smiles>  (269) 
N#Cc1cnn2cccnc12

>  <smiles>  (269) 
[H]c1nc2c(C#N)c([H])nn2c([H])c1[H]

$$$$
70:0:0
     RDKit          3D

 65 70  0  0  1  0  0  0  0  0999 V2000
    8.9382   -4.2353    1.0603 C   0  0  0  0  0  0  0  0  0  0  0  0
    7.5946   -4.0815    0.3408 C   0  0  2  0  0  0  0  0  0  0  0  0
    7.1539   -2.6147    0.0019 C   0  0  2  0  0  0  0  0  0  0  0  0
    7.0597   -1.9287    1.2448 O   0  0  0  0  0  0  0  0  0  0  0  0
    6.0216   -2.3624    1.9063 C   0  0  0  0  0  0  0  0  0  0  0  0
    5.6158   -1.9768    2.9984 O   0  0  0  0  0  0  0  0  0  0  0  0
    5.3572   -3.4007    0.9962 C   0  0  1  0  0  0  0  0  0  0  0  0
    3.9105   -3.6402    1.4968 C   0  0  1  0  0  0  0  0  0  0  0  0
    2.8545   -3.9686    0.4578 C   0  0  0  0  0  0  0  0  0  0  0  0
    2.8278   -3.8554   -0.8873 C   0  0  0  0  0  0  0  0  0  0  0  0
    3.8417   -3.4369   -1.9634 C   0  0  2  0  0  0  0  0  0  0  0  0
    5.3270   -3.3881   -1.6036 C   0  0  0  0  0  0  0  0  0  0  0  0
    5.6350   -2.6339   -0.3192 C   0  0  2  0  0  0  0  0  0  0  0  0
    4.9851   -1.1946   -0.4270 C   0  0  0  0  0  0  0  0  0  0  0  0
    4.7009   -0.6611   -1.8356 C   0  0  0  0  0  0  0  0  0  0  0  0
    3.3490   -1.0459   -2.4248 C   0  0  1  0  0  0  0  0  0  0  0  0
    3.0394   -0.1216   -3.4509 O   0  0  0  0  0  0  0  0  0  0  0  0
    3.3032   -2.4434   -3.0133 C   0  0  0  0  0  0  0  0  0  0  0  0
    4.0958   -2.5083   -4.3157 C   0  0  0  0  0  0  0  0  0  0  0  0
    1.8781   -2.8039   -3.4460 C   0  0  0  0  0  0  0  0  0  0  0  0
    3.9274   -4.5721    2.7593 C   0  0  1  0  0  0  0  0  0  0  0  0
    2.6316   -4.8543    3.2439 O   0  0  0  0  0  0  0  0  0  0  0  0
    4.8609   -5.8308    2.7091 C   0  0  2  0  0  0  0  0  0  0  0  0
    6.3067   -5.3436    2.4092 C   0  0  1  0  0  0  0  0  0  0  0  0
    7.2945   -6.3453    2.5599 O   0  0  0  0  0  0  0  0  0  0  0  0
    6.2982   -4.6860    0.9955 C   0  0  2  0  0  0  0  0  0  0  0  0
    5.9803   -5.7842    0.1209 O   0  0  0  0  0  0  0  0  0  0  0  0
    4.8058   -6.5741    0.2715 C   0  0  0  0  0  0  0  0  0  0  0  0
    4.4392   -6.9531    1.7150 C   0  0  1  0  0  0  0  0  0  0  0  0
    5.0077   -8.3407    2.0981 C   0  0  0  0  0  0  0  0  0  0  0  0
    3.0379   -7.1540    1.7631 O   0  0  0  0  0  0  0  0  0  0  0  0
    8.8746   -3.8643    2.0751 H   0  0  0  0  0  0  0  0  0  0  0  0
    9.7099   -3.6462    0.5783 H   0  0  0  0  0  0  0  0  0  0  0  0
    9.2665   -5.2703    1.0873 H   0  0  0  0  0  0  0  0  0  0  0  0
    7.7673   -4.5475   -0.6246 H   0  0  0  0  0  0  0  0  0  0  0  0
    7.7832   -2.1052   -0.7388 H   0  0  0  0  0  0  0  0  0  0  0  0
    3.5134   -2.6903    1.8582 H   0  0  0  0  0  0  0  0  0  0  0  0
    1.9497   -4.3535    0.9022 H   0  0  0  0  0  0  0  0  0  0  0  0
    1.9133   -4.2199   -1.3144 H   0  0  0  0  0  0  0  0  0  0  0  0
    3.8797   -4.2555   -2.6307 H   0  0  0  0  0  0  0  0  0  0  0  0
    5.7047   -4.3940   -1.6092 H   0  0  0  0  0  0  0  0  0  0  0  0
    5.9092   -2.9503   -2.4071 H   0  0  0  0  0  0  0  0  0  0  0  0
    4.0578   -1.1672    0.1545 H   0  0  0  0  0  0  0  0  0  0  0  0
    5.6113   -0.4386    0.0536 H   0  0  0  0  0  0  0  0  0  0  0  0
    4.5854    0.4038   -1.7333 H   0  0  0  0  0  0  0  0  0  0  0  0
    5.5520   -0.7670   -2.5040 H   0  0  0  0  0  0  0  0  0  0  0  0
    2.6153   -0.9681   -1.6419 H   0  0  0  0  0  0  0  0  0  0  0  0
    2.6959    0.6738   -3.0541 H   0  0  0  0  0  0  0  0  0  0  0  0
    3.6196   -1.9097   -5.0992 H   0  0  0  0  0  0  0  0  0  0  0  0
    4.2160   -3.5351   -4.6776 H   0  0  0  0  0  0  0  0  0  0  0  0
    5.0578   -2.0661   -4.1455 H   0  0  0  0  0  0  0  0  0  0  0  0
    1.5340   -2.1857   -4.2757 H   0  0  0  0  0  0  0  0  0  0  0  0
    1.1671   -2.6816   -2.6331 H   0  0  0  0  0  0  0  0  0  0  0  0
    1.8397   -3.8345   -3.7961 H   0  0  0  0  0  0  0  0  0  0  0  0
    4.3336   -3.9740    3.5730 H   0  0  0  0  0  0  0  0  0  0  0  0
    2.3316   -5.6274    2.7763 H   0  0  0  0  0  0  0  0  0  0  0  0
    4.8571   -6.2614    3.7132 H   0  0  0  0  0  0  0  0  0  0  0  0
    6.5748   -4.6410    3.1891 H   0  0  0  0  0  0  0  0  0  0  0  0
    8.1508   -5.9444    2.4960 H   0  0  0  0  0  0  0  0  0  0  0  0
    3.9953   -6.0960   -0.2580 H   0  0  0  0  0  0  0  0  0  0  0  0
    4.9758   -7.4873   -0.2946 H   0  0  0  0  0  0  0  0  0  0  0  0
    6.0843   -8.4119    1.9460 H   0  0  0  0  0  0  0  0  0  0  0  0
    4.5650   -9.1411    1.4996 H   0  0  0  0  0  0  0  0  0  0  0  0
    4.8072   -8.5748    3.1461 H   0  0  0  0  0  0  0  0  0  0  0  0
    2.8471   -7.9656    1.3106 H   0  0  0  0  0  0  0  0  0  0  0  0
  1  2  1  0
  1 32  1  0
  1 33  1  0
  1 34  1  0
  2 26  1  0
  2  3  1  0
  2 35  1  6
  3 13  1  0
  3  4  1  0
  3 36  1  6
  4  5  1  0
  5  6  2  0
  7  5  1  1
  7 13  1  0
  7 26  1  0
  7  8  1  0
  8  9  1  0
  8 21  1  0
  8 37  1  1
  9 10  2  0
  9 38  1  0
 10 11  1  0
 10 39  1  0
 11 18  1  0
 11 12  1  0
 11 40  1  6
 12 13  1  0
 12 41  1  0
 12 42  1  0
 13 14  1  1
 14 15  1  0
 14 43  1  0
 14 44  1  0
 15 16  1  0
 15 45  1  0
 15 46  1  0
 16 17  1  0
 16 18  1  0
 16 47  1  1
 17 48  1  0
 18 19  1  0
 18 20  1  0
 19 49  1  0
 19 50  1  0
 19 51  1  0
 20 52  1  0
 20 53  1  0
 20 54  1  0
 21 22  1  0
 21 23  1  0
 21 55  1  1
 22 56  1  0
 23 29  1  0
 23 24  1  0
 23 57  1  1
 24 25  1  0
 24 26  1  0
 24 58  1  1
 25 59  1  0
 26 27  1  6
 27 28  1  0
 28 29  1  0
 28 60  1  0
 28 61  1  0
 29 30  1  0
 29 31  1  6
 30 62  1  0
 30 63  1  0
 30 64  1  0
 31 65  1  0
M  END
>  <i_m_ct_stereo_status>  (270) 
1

>  <s_m_source_file>  (270) 
/var/tmp/pbs.5076255.sched01/tmppdndq9e4/92von5zo7h.sdf

>  <i_m_source_file_index>  (270) 
23

>  <i_lp_mmshare_version>  (270) 
48012

>  <i_f3d_flags>  (270) 
0

>  <s_epik_input>  (270) 
Tz1DMU9bQ0BIXShbQ0BdMjNbQ0BAXTE0NSlbQ0BASF0oW0NIM10pW0NAQF01NltDQEhdKFtPSF0pW0NASF0oW0NAQF0oW0NIMl1PNikoW0NIM10pW09IXSlbQ0BIXShbT0hdKVtDQEBIXTRbQ0hdPVtDSF1bQ0BIXShbQ0gyXTIpQyhbQ0gzXSkoW0NIM10pW0NASF0oW09IXSlbQ0gyXVtDSDJdMw==

>  <s_epik_cmdline>  (270) 
J2VwaWtfcHl0aG9uJywgJy1waHQnLCAnMi4wJywgJy1waCcsICc3LjAnLCAnLXRuJywgJzgnLCAnLW1hJywgJzIwMCcsICctaW1hZScsICc8aW5maWxlLm1hZT4nLCAnLW9tYWUnLCAnPG91dGZpbGUubWFlPic=

>  <r_lp_tautomer_probability>  (270) 
1

>  <r_epik_Ionization_Penalty>  (270) 
1.03615e-06

>  <r_epik_Ionization_Penalty_Charging>  (270) 
0

>  <r_epik_Ionization_Penalty_Neutral>  (270) 
1.03615e-06

>  <r_epik_State_Penalty>  (270) 
-0

>  <r_epik_Charging_Adjusted_Penalty>  (270) 
0

>  <i_epik_Tot_Q>  (270) 
0

>  <i_epik_Tot_abs_Q>  (270) 
0

>  <s_epik_Chemistry_Notes>  (270) 
This compound has an ester and may undergo hydrolysis at high or low pH.

>  <s_lp_Force_Field>  (270) 
OPLS3e

>  <r_lp_Energy>  (270) 
86.5125

>  <b_lp_Chiralities_Consistent>  (270) 
1

>  <s_lp_Variant>  (270) 
70:0-1

>  <s_i_glide_gridfile>  (270) 
pfpi4k_grid

>  <i_i_glide_lignum>  (270) 
23

>  <i_i_glide_rotatable_bonds>  (270) 
4

>  <r_i_docking_score>  (270) 
-3.40872

>  <r_i_glide_ligand_efficiency>  (270) 
-0.109959

>  <r_i_glide_ligand_efficiency_sa>  (270) 
-0.345422

>  <r_i_glide_ligand_efficiency_ln>  (270) 
-0.76877

>  <r_i_glide_gscore>  (270) 
-3.40872

>  <r_i_glide_lipo>  (270) 
-0.919176

>  <r_i_glide_hbond>  (270) 
-0.32

>  <r_i_glide_metal>  (270) 
-0

>  <r_i_glide_rewards>  (270) 
-1.02544

>  <r_i_glide_evdw>  (270) 
-11.1778

>  <r_i_glide_ecoul>  (270) 
-3.90141

>  <r_i_glide_erotb>  (270) 
0

>  <r_i_glide_esite>  (270) 
0

>  <r_i_glide_emodel>  (270) 
-20.6136

>  <r_i_glide_energy>  (270) 
-15.0792

>  <r_i_glide_einternal>  (270) 
1.37011

>  <r_i_glide_intrahb_reward>  (270) 
-0.5

>  <i_i_glide_confnum>  (270) 
1

>  <i_i_glide_posenum>  (270) 
1

>  <r_i_glide_eff_state_penalty>  (270) 
0

>  <ligand_id>  (270) 
70

>  <original_smiles>  (270) 
CC1C2OC(=O)C34C(C=CC5CC23CCC(O)C5(C)C)C(O)C2C(O)C14OCC2(C)O

>  <smiles>  (270) 
[H]OC1([H])C2([H])C([H])=C([H])C3([H])C([H])([H])C4(C([H])([H])C([H])([H])C([H])(O[H])C3(C([H])([H])[H])C([H])([H])[H])C3([H])OC(=O)C24C2(OC([H])([H])C(O[H])(C([H])([H])[H])C1([H])C2([H])O[H])C3([H])C([H])([H])[H]

$$$$
70:0:1
     RDKit          3D

 65 70  0  0  1  0  0  0  0  0999 V2000
    8.9208   -4.2298    1.0638 C   0  0  0  0  0  0  0  0  0  0  0  0
    7.5760   -4.0760    0.3412 C   0  0  2  0  0  0  0  0  0  0  0  0
    7.1374   -2.6086    0.0106 C   0  0  2  0  0  0  0  0  0  0  0  0
    7.0293   -1.9334    1.2434 O   0  0  0  0  0  0  0  0  0  0  0  0
    5.9823   -2.3769    1.9049 C   0  0  0  0  0  0  0  0  0  0  0  0
    5.5652   -1.9940    2.9963 O   0  0  0  0  0  0  0  0  0  0  0  0
    5.3299   -3.4135    0.9820 C   0  0  1  0  0  0  0  0  0  0  0  0
    3.8862   -3.6510    1.4844 C   0  0  1  0  0  0  0  0  0  0  0  0
    2.8375   -3.9764    0.4449 C   0  0  0  0  0  0  0  0  0  0  0  0
    2.8202   -3.8576   -0.8968 C   0  0  0  0  0  0  0  0  0  0  0  0
    3.8384   -3.4325   -1.9698 C   0  0  2  0  0  0  0  0  0  0  0  0
    5.3221   -3.3886   -1.6049 C   0  0  0  0  0  0  0  0  0  0  0  0
    5.6207   -2.6347   -0.3213 C   0  0  2  0  0  0  0  0  0  0  0  0
    4.9659   -1.2039   -0.4299 C   0  0  0  0  0  0  0  0  0  0  0  0
    4.6960   -0.6692   -1.8423 C   0  0  0  0  0  0  0  0  0  0  0  0
    3.3549   -1.0559   -2.4390 C   0  0  1  0  0  0  0  0  0  0  0  0
    3.0592   -0.1288   -3.4672 O   0  0  0  0  0  0  0  0  0  0  0  0
    3.3008   -2.4435   -3.0175 C   0  0  0  0  0  0  0  0  0  0  0  0
    4.1011   -2.5094   -4.3180 C   0  0  0  0  0  0  0  0  0  0  0  0
    1.8846   -2.8105   -3.4641 C   0  0  0  0  0  0  0  0  0  0  0  0
    3.9001   -4.5896    2.7433 C   0  0  1  0  0  0  0  0  0  0  0  0
    2.6042   -4.8577    3.2352 O   0  0  0  0  0  0  0  0  0  0  0  0
    4.8334   -5.8487    2.6950 C   0  0  2  0  0  0  0  0  0  0  0  0
    6.2813   -5.3513    2.4028 C   0  0  1  0  0  0  0  0  0  0  0  0
    7.2710   -6.3514    2.5483 O   0  0  0  0  0  0  0  0  0  0  0  0
    6.2792   -4.6893    0.9908 C   0  0  2  0  0  0  0  0  0  0  0  0
    5.9742   -5.7828    0.1139 O   0  0  0  0  0  0  0  0  0  0  0  0
    4.8026   -6.5789    0.2567 C   0  0  0  0  0  0  0  0  0  0  0  0
    4.4294   -6.9703    1.6913 C   0  0  1  0  0  0  0  0  0  0  0  0
    5.0016   -8.3540    2.0754 C   0  0  0  0  0  0  0  0  0  0  0  0
    3.0357   -7.2035    1.6791 O   0  0  0  0  0  0  0  0  0  0  0  0
    8.8564   -3.8542    2.0736 H   0  0  0  0  0  0  0  0  0  0  0  0
    9.6953   -3.6407    0.5746 H   0  0  0  0  0  0  0  0  0  0  0  0
    9.2512   -5.2679    1.0959 H   0  0  0  0  0  0  0  0  0  0  0  0
    7.7553   -4.5444   -0.6234 H   0  0  0  0  0  0  0  0  0  0  0  0
    7.7652   -2.1048   -0.7329 H   0  0  0  0  0  0  0  0  0  0  0  0
    3.4898   -2.6979    1.8386 H   0  0  0  0  0  0  0  0  0  0  0  0
    1.9398   -4.3838    0.8797 H   0  0  0  0  0  0  0  0  0  0  0  0
    1.9132   -4.2216   -1.3355 H   0  0  0  0  0  0  0  0  0  0  0  0
    3.8918   -4.2571   -2.6331 H   0  0  0  0  0  0  0  0  0  0  0  0
    5.6946   -4.3973   -1.6143 H   0  0  0  0  0  0  0  0  0  0  0  0
    5.9065   -2.9544   -2.4065 H   0  0  0  0  0  0  0  0  0  0  0  0
    4.0353   -1.1788    0.1438 H   0  0  0  0  0  0  0  0  0  0  0  0
    5.5869   -0.4439    0.0498 H   0  0  0  0  0  0  0  0  0  0  0  0
    4.5664    0.3844   -1.7478 H   0  0  0  0  0  0  0  0  0  0  0  0
    5.5445   -0.7702   -2.5085 H   0  0  0  0  0  0  0  0  0  0  0  0
    2.6188   -0.9758   -1.6336 H   0  0  0  0  0  0  0  0  0  0  0  0
    2.6780    0.6518   -3.0835 H   0  0  0  0  0  0  0  0  0  0  0  0
    3.6104   -1.8947   -5.0777 H   0  0  0  0  0  0  0  0  0  0  0  0
    4.2262   -3.5398   -4.6731 H   0  0  0  0  0  0  0  0  0  0  0  0
    5.0568   -2.0551   -4.1166 H   0  0  0  0  0  0  0  0  0  0  0  0
    1.5419   -2.1938   -4.2940 H   0  0  0  0  0  0  0  0  0  0  0  0
    1.1631   -2.7028   -2.6566 H   0  0  0  0  0  0  0  0  0  0  0  0
    1.8615   -3.8387   -3.8181 H   0  0  0  0  0  0  0  0  0  0  0  0
    4.3149   -3.9979    3.5587 H   0  0  0  0  0  0  0  0  0  0  0  0
    2.2001   -4.0295    3.4597 H   0  0  0  0  0  0  0  0  0  0  0  0
    4.8275   -6.2777    3.6985 H   0  0  0  0  0  0  0  0  0  0  0  0
    6.5466   -4.6488    3.1836 H   0  0  0  0  0  0  0  0  0  0  0  0
    8.1255   -5.9658    2.4134 H   0  0  0  0  0  0  0  0  0  0  0  0
    3.9896   -6.1041   -0.2743 H   0  0  0  0  0  0  0  0  0  0  0  0
    4.9739   -7.4973   -0.2995 H   0  0  0  0  0  0  0  0  0  0  0  0
    6.0780   -8.4217    1.9285 H   0  0  0  0  0  0  0  0  0  0  0  0
    4.5588   -9.1478    1.4711 H   0  0  0  0  0  0  0  0  0  0  0  0
    4.7924   -8.5912    3.1196 H   0  0  0  0  0  0  0  0  0  0  0  0
    2.7822   -7.5308    2.5308 H   0  0  0  0  0  0  0  0  0  0  0  0
  1  2  1  0
  1 32  1  0
  1 33  1  0
  1 34  1  0
  2 26  1  0
  2  3  1  0
  2 35  1  6
  3 13  1  0
  3  4  1  0
  3 36  1  6
  4  5  1  0
  5  6  2  0
  7  5  1  1
  7 13  1  0
  7 26  1  0
  7  8  1  0
  8  9  1  0
  8 21  1  0
  8 37  1  1
  9 10  2  0
  9 38  1  0
 10 11  1  0
 10 39  1  0
 11 18  1  0
 11 12  1  0
 11 40  1  6
 12 13  1  0
 12 41  1  0
 12 42  1  0
 13 14  1  1
 14 15  1  0
 14 43  1  0
 14 44  1  0
 15 16  1  0
 15 45  1  0
 15 46  1  0
 16 17  1  0
 16 18  1  0
 16 47  1  1
 17 48  1  0
 18 19  1  0
 18 20  1  0
 19 49  1  0
 19 50  1  0
 19 51  1  0
 20 52  1  0
 20 53  1  0
 20 54  1  0
 21 22  1  0
 21 23  1  0
 21 55  1  1
 22 56  1  0
 23 29  1  0
 23 24  1  0
 23 57  1  1
 24 25  1  0
 24 26  1  0
 24 58  1  1
 25 59  1  0
 26 27  1  6
 27 28  1  0
 28 29  1  0
 28 60  1  0
 28 61  1  0
 29 30  1  0
 29 31  1  6
 30 62  1  0
 30 63  1  0
 30 64  1  0
 31 65  1  0
M  END
>  <i_m_ct_stereo_status>  (271) 
1

>  <s_m_source_file>  (271) 
/var/tmp/pbs.5076255.sched01/tmppdndq9e4/92von5zo7h.sdf

>  <i_m_source_file_index>  (271) 
23

>  <i_lp_mmshare_version>  (271) 
48012

>  <i_f3d_flags>  (271) 
0

>  <s_epik_input>  (271) 
Tz1DMU9bQ0BIXShbQ0BdMjNbQ0BAXTE0NSlbQ0BASF0oW0NIM10pW0NAQF01NltDQEhdKFtPSF0pW0NASF0oW0NAQF0oW0NIMl1PNikoW0NIM10pW09IXSlbQ0BIXShbT0hdKVtDQEBIXTRbQ0hdPVtDSF1bQ0BIXShbQ0gyXTIpQyhbQ0gzXSkoW0NIM10pW0NASF0oW09IXSlbQ0gyXVtDSDJdMw==

>  <s_epik_cmdline>  (271) 
J2VwaWtfcHl0aG9uJywgJy1waHQnLCAnMi4wJywgJy1waCcsICc3LjAnLCAnLXRuJywgJzgnLCAnLW1hJywgJzIwMCcsICctaW1hZScsICc8aW5maWxlLm1hZT4nLCAnLW9tYWUnLCAnPG91dGZpbGUubWFlPic=

>  <r_lp_tautomer_probability>  (271) 
1

>  <r_epik_Ionization_Penalty>  (271) 
1.03615e-06

>  <r_epik_Ionization_Penalty_Charging>  (271) 
0

>  <r_epik_Ionization_Penalty_Neutral>  (271) 
1.03615e-06

>  <r_epik_State_Penalty>  (271) 
-0

>  <r_epik_Charging_Adjusted_Penalty>  (271) 
0

>  <i_epik_Tot_Q>  (271) 
0

>  <i_epik_Tot_abs_Q>  (271) 
0

>  <s_epik_Chemistry_Notes>  (271) 
This compound has an ester and may undergo hydrolysis at high or low pH.

>  <s_lp_Force_Field>  (271) 
OPLS3e

>  <r_lp_Energy>  (271) 
86.5125

>  <b_lp_Chiralities_Consistent>  (271) 
1

>  <s_lp_Variant>  (271) 
70:0-1

>  <s_i_glide_gridfile>  (271) 
pfpi4k_grid

>  <i_i_glide_lignum>  (271) 
23

>  <i_i_glide_rotatable_bonds>  (271) 
4

>  <r_i_docking_score>  (271) 
-3.16316

>  <r_i_glide_ligand_efficiency>  (271) 
-0.102037

>  <r_i_glide_ligand_efficiency_sa>  (271) 
-0.320538

>  <r_i_glide_ligand_efficiency_ln>  (271) 
-0.71339

>  <r_i_glide_gscore>  (271) 
-3.16316

>  <r_i_glide_lipo>  (271) 
-0.92286

>  <r_i_glide_hbond>  (271) 
-0.32

>  <r_i_glide_metal>  (271) 
-0

>  <r_i_glide_rewards>  (271) 
-0.52511

>  <r_i_glide_evdw>  (271) 
-13.4383

>  <r_i_glide_ecoul>  (271) 
-4.82184

>  <r_i_glide_erotb>  (271) 
0

>  <r_i_glide_esite>  (271) 
0

>  <r_i_glide_emodel>  (271) 
-18.5098

>  <r_i_glide_energy>  (271) 
-18.2601

>  <r_i_glide_einternal>  (271) 
1.32667

>  <r_i_glide_intrahb_reward>  (271) 
-0

>  <i_i_glide_confnum>  (271) 
2

>  <i_i_glide_posenum>  (271) 
24

>  <r_i_glide_eff_state_penalty>  (271) 
0

>  <ligand_id>  (271) 
70

>  <original_smiles>  (271) 
CC1C2OC(=O)C34C(C=CC5CC23CCC(O)C5(C)C)C(O)C2C(O)C14OCC2(C)O

>  <smiles>  (271) 
[H]OC1([H])C2([H])C([H])=C([H])C3([H])C([H])([H])C4(C([H])([H])C([H])([H])C([H])(O[H])C3(C([H])([H])[H])C([H])([H])[H])C3([H])OC(=O)C24C2(OC([H])([H])C(O[H])(C([H])([H])[H])C1([H])C2([H])O[H])C3([H])C([H])([H])[H]

$$$$
70:0:2
     RDKit          3D

 65 70  0  0  1  0  0  0  0  0999 V2000
    8.9290   -4.2331    1.0543 C   0  0  0  0  0  0  0  0  0  0  0  0
    7.5858   -4.0686    0.3379 C   0  0  2  0  0  0  0  0  0  0  0  0
    7.1440   -2.6083   -0.0033 C   0  0  2  0  0  0  0  0  0  0  0  0
    7.0429   -1.9180    1.2542 O   0  0  0  0  0  0  0  0  0  0  0  0
    6.0000   -2.3657    1.8969 C   0  0  0  0  0  0  0  0  0  0  0  0
    5.5850   -1.9794    2.9957 O   0  0  0  0  0  0  0  0  0  0  0  0
    5.3460   -3.3980    0.9883 C   0  0  1  0  0  0  0  0  0  0  0  0
    3.8965   -3.6381    1.4885 C   0  0  1  0  0  0  0  0  0  0  0  0
    2.8481   -3.9729    0.4550 C   0  0  0  0  0  0  0  0  0  0  0  0
    2.8228   -3.8570   -0.8958 C   0  0  0  0  0  0  0  0  0  0  0  0
    3.8403   -3.4336   -1.9622 C   0  0  2  0  0  0  0  0  0  0  0  0
    5.3244   -3.3811   -1.6039 C   0  0  0  0  0  0  0  0  0  0  0  0
    5.6298   -2.6255   -0.3195 C   0  0  2  0  0  0  0  0  0  0  0  0
    4.9792   -1.1916   -0.4291 C   0  0  0  0  0  0  0  0  0  0  0  0
    4.7112   -0.6593   -1.8399 C   0  0  0  0  0  0  0  0  0  0  0  0
    3.3636   -1.0341   -2.4264 C   0  0  1  0  0  0  0  0  0  0  0  0
    3.0635   -0.1062   -3.4580 O   0  0  0  0  0  0  0  0  0  0  0  0
    3.2997   -2.4266   -2.9889 C   0  0  0  0  0  0  0  0  0  0  0  0
    4.1096   -2.4946   -4.2635 C   0  0  0  0  0  0  0  0  0  0  0  0
    1.8850   -2.7919   -3.4518 C   0  0  0  0  0  0  0  0  0  0  0  0
    3.9126   -4.5767    2.7474 C   0  0  1  0  0  0  0  0  0  0  0  0
    2.6221   -4.8478    3.2433 O   0  0  0  0  0  0  0  0  0  0  0  0
    4.8430   -5.8370    2.6921 C   0  0  2  0  0  0  0  0  0  0  0  0
    6.2901   -5.3445    2.3970 C   0  0  1  0  0  0  0  0  0  0  0  0
    7.2863   -6.3295    2.5457 O   0  0  0  0  0  0  0  0  0  0  0  0
    6.2876   -4.6797    0.9879 C   0  0  2  0  0  0  0  0  0  0  0  0
    5.9851   -5.7860    0.1164 O   0  0  0  0  0  0  0  0  0  0  0  0
    4.8049   -6.5674    0.2519 C   0  0  0  0  0  0  0  0  0  0  0  0
    4.4319   -6.9594    1.6896 C   0  0  1  0  0  0  0  0  0  0  0  0
    5.0066   -8.3428    2.0716 C   0  0  0  0  0  0  0  0  0  0  0  0
    3.0402   -7.1837    1.6814 O   0  0  0  0  0  0  0  0  0  0  0  0
    8.8660   -3.9140    2.0746 H   0  0  0  0  0  0  0  0  0  0  0  0
    9.7018   -3.6353    0.5819 H   0  0  0  0  0  0  0  0  0  0  0  0
    9.2532   -5.2671    1.0790 H   0  0  0  0  0  0  0  0  0  0  0  0
    7.7596   -4.5305   -0.6283 H   0  0  0  0  0  0  0  0  0  0  0  0
    7.7734   -2.0930   -0.7373 H   0  0  0  0  0  0  0  0  0  0  0  0
    3.5020   -2.6851    1.8450 H   0  0  0  0  0  0  0  0  0  0  0  0
    1.9441   -4.3673    0.8901 H   0  0  0  0  0  0  0  0  0  0  0  0
    1.9119   -4.2191   -1.3296 H   0  0  0  0  0  0  0  0  0  0  0  0
    3.8722   -4.2541   -2.6343 H   0  0  0  0  0  0  0  0  0  0  0  0
    5.7001   -4.3875   -1.6121 H   0  0  0  0  0  0  0  0  0  0  0  0
    5.9086   -2.9416   -2.4033 H   0  0  0  0  0  0  0  0  0  0  0  0
    4.0489   -1.1631    0.1487 H   0  0  0  0  0  0  0  0  0  0  0  0
    5.6001   -0.4312    0.0532 H   0  0  0  0  0  0  0  0  0  0  0  0
    4.5786    0.3975   -1.7413 H   0  0  0  0  0  0  0  0  0  0  0  0
    5.5669   -0.7561   -2.5091 H   0  0  0  0  0  0  0  0  0  0  0  0
    2.6472   -0.9479   -1.6171 H   0  0  0  0  0  0  0  0  0  0  0  0
    2.7009    0.6820   -3.0760 H   0  0  0  0  0  0  0  0  0  0  0  0
    3.6207   -1.8922   -5.0320 H   0  0  0  0  0  0  0  0  0  0  0  0
    4.2233   -3.5190   -4.6324 H   0  0  0  0  0  0  0  0  0  0  0  0
    5.0687   -2.0378   -4.1043 H   0  0  0  0  0  0  0  0  0  0  0  0
    1.5425   -2.1733   -4.2826 H   0  0  0  0  0  0  0  0  0  0  0  0
    1.1609   -2.6937   -2.6471 H   0  0  0  0  0  0  0  0  0  0  0  0
    1.8760   -3.8183   -3.8136 H   0  0  0  0  0  0  0  0  0  0  0  0
    4.3316   -3.9855    3.5605 H   0  0  0  0  0  0  0  0  0  0  0  0
    2.2195   -4.0146    3.4855 H   0  0  0  0  0  0  0  0  0  0  0  0
    4.8381   -6.2667    3.6988 H   0  0  0  0  0  0  0  0  0  0  0  0
    6.5627   -4.6445    3.1798 H   0  0  0  0  0  0  0  0  0  0  0  0
    7.1559   -6.9974    1.8720 H   0  0  0  0  0  0  0  0  0  0  0  0
    3.9951   -6.0867   -0.2750 H   0  0  0  0  0  0  0  0  0  0  0  0
    4.9708   -7.4816   -0.3134 H   0  0  0  0  0  0  0  0  0  0  0  0
    6.0821   -8.4235    1.9209 H   0  0  0  0  0  0  0  0  0  0  0  0
    4.5569   -9.1368    1.4699 H   0  0  0  0  0  0  0  0  0  0  0  0
    4.8021   -8.5807    3.1189 H   0  0  0  0  0  0  0  0  0  0  0  0
    2.7829   -7.5015    2.5462 H   0  0  0  0  0  0  0  0  0  0  0  0
  1  2  1  0
  1 32  1  0
  1 33  1  0
  1 34  1  0
  2 26  1  0
  2  3  1  0
  2 35  1  6
  3 13  1  0
  3  4  1  0
  3 36  1  6
  4  5  1  0
  5  6  2  0
  7  5  1  1
  7 13  1  0
  7 26  1  0
  7  8  1  0
  8  9  1  0
  8 21  1  0
  8 37  1  1
  9 10  2  0
  9 38  1  0
 10 11  1  0
 10 39  1  0
 11 18  1  0
 11 12  1  0
 11 40  1  6
 12 13  1  0
 12 41  1  0
 12 42  1  0
 13 14  1  1
 14 15  1  0
 14 43  1  0
 14 44  1  0
 15 16  1  0
 15 45  1  0
 15 46  1  0
 16 17  1  0
 16 18  1  0
 16 47  1  1
 17 48  1  0
 18 19  1  0
 18 20  1  0
 19 49  1  0
 19 50  1  0
 19 51  1  0
 20 52  1  0
 20 53  1  0
 20 54  1  0
 21 22  1  0
 21 23  1  0
 21 55  1  1
 22 56  1  0
 23 29  1  0
 23 24  1  0
 23 57  1  1
 24 25  1  0
 24 26  1  0
 24 58  1  1
 25 59  1  0
 26 27  1  6
 27 28  1  0
 28 29  1  0
 28 60  1  0
 28 61  1  0
 29 30  1  0
 29 31  1  6
 30 62  1  0
 30 63  1  0
 30 64  1  0
 31 65  1  0
M  END
>  <i_m_ct_stereo_status>  (272) 
1

>  <s_m_source_file>  (272) 
/var/tmp/pbs.5076255.sched01/tmppdndq9e4/92von5zo7h.sdf

>  <i_m_source_file_index>  (272) 
23

>  <i_lp_mmshare_version>  (272) 
48012

>  <i_f3d_flags>  (272) 
0

>  <s_epik_input>  (272) 
Tz1DMU9bQ0BIXShbQ0BdMjNbQ0BAXTE0NSlbQ0BASF0oW0NIM10pW0NAQF01NltDQEhdKFtPSF0pW0NASF0oW0NAQF0oW0NIMl1PNikoW0NIM10pW09IXSlbQ0BIXShbT0hdKVtDQEBIXTRbQ0hdPVtDSF1bQ0BIXShbQ0gyXTIpQyhbQ0gzXSkoW0NIM10pW0NASF0oW09IXSlbQ0gyXVtDSDJdMw==

>  <s_epik_cmdline>  (272) 
J2VwaWtfcHl0aG9uJywgJy1waHQnLCAnMi4wJywgJy1waCcsICc3LjAnLCAnLXRuJywgJzgnLCAnLW1hJywgJzIwMCcsICctaW1hZScsICc8aW5maWxlLm1hZT4nLCAnLW9tYWUnLCAnPG91dGZpbGUubWFlPic=

>  <r_lp_tautomer_probability>  (272) 
1

>  <r_epik_Ionization_Penalty>  (272) 
1.03615e-06

>  <r_epik_Ionization_Penalty_Charging>  (272) 
0

>  <r_epik_Ionization_Penalty_Neutral>  (272) 
1.03615e-06

>  <r_epik_State_Penalty>  (272) 
-0

>  <r_epik_Charging_Adjusted_Penalty>  (272) 
0

>  <i_epik_Tot_Q>  (272) 
0

>  <i_epik_Tot_abs_Q>  (272) 
0

>  <s_epik_Chemistry_Notes>  (272) 
This compound has an ester and may undergo hydrolysis at high or low pH.

>  <s_lp_Force_Field>  (272) 
OPLS3e

>  <r_lp_Energy>  (272) 
86.5125

>  <b_lp_Chiralities_Consistent>  (272) 
1

>  <s_lp_Variant>  (272) 
70:0-1

>  <s_i_glide_gridfile>  (272) 
pfpi4k_grid

>  <i_i_glide_lignum>  (272) 
23

>  <i_i_glide_rotatable_bonds>  (272) 
4

>  <r_i_docking_score>  (272) 
-3.0445

>  <r_i_glide_ligand_efficiency>  (272) 
-0.0982097

>  <r_i_glide_ligand_efficiency_sa>  (272) 
-0.308514

>  <r_i_glide_ligand_efficiency_ln>  (272) 
-0.686628

>  <r_i_glide_gscore>  (272) 
-3.0445

>  <r_i_glide_lipo>  (272) 
-0.912432

>  <r_i_glide_hbond>  (272) 
-0.32

>  <r_i_glide_metal>  (272) 
-0

>  <r_i_glide_rewards>  (272) 
-0.526601

>  <r_i_glide_evdw>  (272) 
-12.65

>  <r_i_glide_ecoul>  (272) 
-4.35312

>  <r_i_glide_erotb>  (272) 
0

>  <r_i_glide_esite>  (272) 
0

>  <r_i_glide_emodel>  (272) 
-17.164

>  <r_i_glide_energy>  (272) 
-17.0031

>  <r_i_glide_einternal>  (272) 
0.919871

>  <r_i_glide_intrahb_reward>  (272) 
-0

>  <i_i_glide_confnum>  (272) 
1

>  <i_i_glide_posenum>  (272) 
18

>  <r_i_glide_eff_state_penalty>  (272) 
0

>  <ligand_id>  (272) 
70

>  <original_smiles>  (272) 
CC1C2OC(=O)C34C(C=CC5CC23CCC(O)C5(C)C)C(O)C2C(O)C14OCC2(C)O

>  <smiles>  (272) 
[H]OC1([H])C2([H])C([H])=C([H])C3([H])C([H])([H])C4(C([H])([H])C([H])([H])C([H])(O[H])C3(C([H])([H])[H])C([H])([H])[H])C3([H])OC(=O)C24C2(OC([H])([H])C(O[H])(C([H])([H])[H])C1([H])C2([H])O[H])C3([H])C([H])([H])[H]

$$$$
71:0:0
     RDKit          3D

 30 32  0  0  1  0  0  0  0  0999 V2000
    4.4317   -9.6824    2.5574 C   0  0  0  0  0  0  0  0  0  0  0  0
    4.9975   -8.3756    2.6570 O   0  0  0  0  0  0  0  0  0  0  0  0
    4.3757   -7.3812    1.9405 C   0  0  0  0  0  0  0  0  0  0  0  0
    2.9646   -7.2765    1.8612 C   0  0  0  0  0  0  0  0  0  0  0  0
    2.3611   -6.2528    1.1003 C   0  0  0  0  0  0  0  0  0  0  0  0
    1.0035   -6.1018    0.9414 O   0  0  0  0  0  0  0  0  0  0  0  0
    0.1456   -7.0099    1.6136 C   0  0  0  0  0  0  0  0  0  0  0  0
    3.2035   -5.3345    0.4606 C   0  0  0  0  0  0  0  0  0  0  0  0
    2.8530   -4.2518   -0.3203 O   0  0  0  0  0  0  0  0  0  0  0  0
    4.0624   -3.7334   -0.7027 C   0  0  0  0  0  0  0  0  0  0  0  0
    4.0264   -2.5683   -1.5842 C   0  0  0  0  0  0  0  0  0  0  0  0
    4.9417   -1.6020   -1.5721 N   0  0  0  0  0  0  0  0  0  0  0  0
    4.5072   -0.7085   -2.5281 N   0  0  0  0  0  0  0  0  0  0  0  0
    3.4228   -1.1228   -3.1047 N   0  0  0  0  0  0  0  0  0  0  0  0
    3.0929   -2.2963   -2.5129 N   0  0  0  0  0  0  0  0  0  0  0  0
    1.9224   -3.0380   -2.9404 C   0  0  0  0  0  0  0  0  0  0  0  0
    5.1525   -4.3579   -0.2164 N   0  0  0  0  0  0  0  0  0  0  0  0
    4.6120   -5.3906    0.5287 C   0  0  0  0  0  0  0  0  0  0  0  0
    5.1929   -6.4241    1.2946 C   0  0  0  0  0  0  0  0  0  0  0  0
    4.9354  -10.3667    3.2446 H   0  0  0  0  0  0  0  0  0  0  0  0
    4.5770  -10.0499    1.5406 H   0  0  0  0  0  0  0  0  0  0  0  0
    3.3683   -9.7467    2.7921 H   0  0  0  0  0  0  0  0  0  0  0  0
    2.3401   -7.9750    2.3925 H   0  0  0  0  0  0  0  0  0  0  0  0
   -0.8884   -6.7477    1.3991 H   0  0  0  0  0  0  0  0  0  0  0  0
    0.2766   -6.9541    2.6944 H   0  0  0  0  0  0  0  0  0  0  0  0
    0.3011   -8.0353    1.2803 H   0  0  0  0  0  0  0  0  0  0  0  0
    1.2003   -3.0963   -2.1246 H   0  0  0  0  0  0  0  0  0  0  0  0
    2.2124   -4.0446   -3.2378 H   0  0  0  0  0  0  0  0  0  0  0  0
    1.4507   -2.5590   -3.8005 H   0  0  0  0  0  0  0  0  0  0  0  0
    6.2684   -6.4942    1.3736 H   0  0  0  0  0  0  0  0  0  0  0  0
  1  2  1  0
  1 20  1  0
  1 21  1  0
  1 22  1  0
  2  3  1  0
  3 19  2  0
  3  4  1  0
  4  5  2  0
  4 23  1  0
  5  6  1  0
  5  8  1  0
  6  7  1  0
  7 24  1  0
  7 25  1  0
  7 26  1  0
  8 18  2  0
  8  9  1  0
  9 10  1  0
 10 11  1  0
 10 17  2  0
 11 15  1  0
 11 12  2  0
 12 13  1  0
 13 14  2  0
 14 15  1  0
 15 16  1  0
 16 27  1  0
 16 28  1  0
 16 29  1  0
 17 18  1  0
 18 19  1  0
 19 30  1  0
M  END
>  <i_m_ct_stereo_status>  (273) 
1

>  <s_m_source_file>  (273) 
/var/tmp/pbs.5076255.sched01/tmppdndq9e4/92von5zo7h.sdf

>  <i_m_source_file_index>  (273) 
24

>  <i_lp_mmshare_version>  (273) 
48012

>  <i_f3d_flags>  (273) 
0

>  <s_epik_input>  (273) 
W0NIM11PYzFbY0hdYyhPW0NIM10pW2NIXWMoYzEyKW5jKG8yKS1jM25ubm4zW0NIM10=

>  <s_epik_cmdline>  (273) 
J2VwaWtfcHl0aG9uJywgJy1waHQnLCAnMi4wJywgJy1waCcsICc3LjAnLCAnLXRuJywgJzgnLCAnLW1hJywgJzIwMCcsICctaW1hZScsICc8aW5maWxlLm1hZT4nLCAnLW9tYWUnLCAnPG91dGZpbGUubWFlPic=

>  <r_lp_tautomer_probability>  (273) 
1

>  <r_epik_Ionization_Penalty>  (273) 
1.70136e-09

>  <r_epik_Ionization_Penalty_Charging>  (273) 
0

>  <r_epik_Ionization_Penalty_Neutral>  (273) 
1.70136e-09

>  <r_epik_State_Penalty>  (273) 
-0

>  <r_epik_Charging_Adjusted_Penalty>  (273) 
0

>  <i_epik_Tot_Q>  (273) 
0

>  <i_epik_Tot_abs_Q>  (273) 
0

>  <s_lp_Force_Field>  (273) 
OPLS3e

>  <r_lp_Energy>  (273) 
21.811

>  <b_lp_Chiralities_Consistent>  (273) 
1

>  <s_lp_Variant>  (273) 
71:0-1

>  <s_i_glide_gridfile>  (273) 
pfpi4k_grid

>  <i_i_glide_lignum>  (273) 
24

>  <i_i_glide_rotatable_bonds>  (273) 
3

>  <r_i_docking_score>  (273) 
-4.14457

>  <r_i_glide_ligand_efficiency>  (273) 
-0.218135

>  <r_i_glide_ligand_efficiency_sa>  (273) 
-0.582072

>  <r_i_glide_ligand_efficiency_ln>  (273) 
-1.05074

>  <r_i_glide_gscore>  (273) 
-4.14457

>  <r_i_glide_lipo>  (273) 
-0.353086

>  <r_i_glide_hbond>  (273) 
-0.16

>  <r_i_glide_metal>  (273) 
-0

>  <r_i_glide_rewards>  (273) 
-1.62793

>  <r_i_glide_evdw>  (273) 
-26.6352

>  <r_i_glide_ecoul>  (273) 
-5.43076

>  <r_i_glide_erotb>  (273) 
0.259621

>  <r_i_glide_esite>  (273) 
-0.116799

>  <r_i_glide_emodel>  (273) 
-36.5897

>  <r_i_glide_energy>  (273) 
-32.0659

>  <r_i_glide_einternal>  (273) 
8.06593

>  <r_i_glide_intrahb_reward>  (273) 
-0

>  <i_i_glide_confnum>  (273) 
4

>  <i_i_glide_posenum>  (273) 
13

>  <r_i_glide_eff_state_penalty>  (273) 
0

>  <ligand_id>  (273) 
71

>  <original_smiles>  (273) 
COc1cc(OC)c2oc(-c3nnnn3C)nc2c1

>  <smiles>  (273) 
[H]c1c(OC([H])([H])[H])c([H])c2nc(-c3nnnn3C([H])([H])[H])oc2c1OC([H])([H])[H]

$$$$
71:0:1
     RDKit          3D

 30 32  0  0  1  0  0  0  0  0999 V2000
    3.3096  -10.0957    3.1296 C   0  0  0  0  0  0  0  0  0  0  0  0
    4.2453   -9.1446    2.6099 O   0  0  0  0  0  0  0  0  0  0  0  0
    3.7459   -8.0339    1.9626 C   0  0  0  0  0  0  0  0  0  0  0  0
    2.3644   -7.7380    1.9227 C   0  0  0  0  0  0  0  0  0  0  0  0
    1.8816   -6.5931    1.2640 C   0  0  0  0  0  0  0  0  0  0  0  0
    0.5498   -6.2601    1.1802 O   0  0  0  0  0  0  0  0  0  0  0  0
   -0.3786   -7.1116    1.8366 C   0  0  0  0  0  0  0  0  0  0  0  0
    2.8189   -5.7603    0.6447 C   0  0  0  0  0  0  0  0  0  0  0  0
    2.5936   -4.6038   -0.0703 O   0  0  0  0  0  0  0  0  0  0  0  0
    3.8532   -4.2071   -0.4330 C   0  0  0  0  0  0  0  0  0  0  0  0
    3.9338   -2.9875   -1.2399 C   0  0  0  0  0  0  0  0  0  0  0  0
    4.9147   -2.0957   -1.1383 N   0  0  0  0  0  0  0  0  0  0  0  0
    4.5805   -1.1167   -2.0532 N   0  0  0  0  0  0  0  0  0  0  0  0
    3.4810   -1.4068   -2.6763 N   0  0  0  0  0  0  0  0  0  0  0  0
    3.0468   -2.5841   -2.1722 N   0  0  0  0  0  0  0  0  0  0  0  0
    1.8287   -3.2014   -2.6778 C   0  0  0  0  0  0  0  0  0  0  0  0
    4.8650   -4.9956   -0.0178 N   0  0  0  0  0  0  0  0  0  0  0  0
    4.2097   -6.0045    0.6655 C   0  0  0  0  0  0  0  0  0  0  0  0
    4.6668   -7.1607    1.3373 C   0  0  0  0  0  0  0  0  0  0  0  0
    3.7987  -10.9425    3.6260 H   0  0  0  0  0  0  0  0  0  0  0  0
    2.7019  -10.4974    2.3132 H   0  0  0  0  0  0  0  0  0  0  0  0
    2.6504   -9.6295    3.8685 H   0  0  0  0  0  0  0  0  0  0  0  0
    1.6586   -8.3971    2.3926 H   0  0  0  0  0  0  0  0  0  0  0  0
   -1.3851   -6.7269    1.7047 H   0  0  0  0  0  0  0  0  0  0  0  0
   -0.1927   -7.1525    2.9094 H   0  0  0  0  0  0  0  0  0  0  0  0
   -0.3659   -8.1261    1.4383 H   0  0  0  0  0  0  0  0  0  0  0  0
    1.0720   -3.2541   -1.8923 H   0  0  0  0  0  0  0  0  0  0  0  0
    2.0488   -4.2085   -3.0280 H   0  0  0  0  0  0  0  0  0  0  0  0
    1.4258   -2.6346   -3.5213 H   0  0  0  0  0  0  0  0  0  0  0  0
    5.7258   -7.3808    1.3703 H   0  0  0  0  0  0  0  0  0  0  0  0
  1  2  1  0
  1 20  1  0
  1 21  1  0
  1 22  1  0
  2  3  1  0
  3 19  2  0
  3  4  1  0
  4  5  2  0
  4 23  1  0
  5  6  1  0
  5  8  1  0
  6  7  1  0
  7 24  1  0
  7 25  1  0
  7 26  1  0
  8 18  2  0
  8  9  1  0
  9 10  1  0
 10 11  1  0
 10 17  2  0
 11 15  1  0
 11 12  2  0
 12 13  1  0
 13 14  2  0
 14 15  1  0
 15 16  1  0
 16 27  1  0
 16 28  1  0
 16 29  1  0
 17 18  1  0
 18 19  1  0
 19 30  1  0
M  END
>  <i_m_ct_stereo_status>  (274) 
1

>  <s_m_source_file>  (274) 
/var/tmp/pbs.5076255.sched01/tmppdndq9e4/92von5zo7h.sdf

>  <i_m_source_file_index>  (274) 
24

>  <i_lp_mmshare_version>  (274) 
48012

>  <i_f3d_flags>  (274) 
0

>  <s_epik_input>  (274) 
W0NIM11PYzFbY0hdYyhPW0NIM10pW2NIXWMoYzEyKW5jKG8yKS1jM25ubm4zW0NIM10=

>  <s_epik_cmdline>  (274) 
J2VwaWtfcHl0aG9uJywgJy1waHQnLCAnMi4wJywgJy1waCcsICc3LjAnLCAnLXRuJywgJzgnLCAnLW1hJywgJzIwMCcsICctaW1hZScsICc8aW5maWxlLm1hZT4nLCAnLW9tYWUnLCAnPG91dGZpbGUubWFlPic=

>  <r_lp_tautomer_probability>  (274) 
1

>  <r_epik_Ionization_Penalty>  (274) 
1.70136e-09

>  <r_epik_Ionization_Penalty_Charging>  (274) 
0

>  <r_epik_Ionization_Penalty_Neutral>  (274) 
1.70136e-09

>  <r_epik_State_Penalty>  (274) 
-0

>  <r_epik_Charging_Adjusted_Penalty>  (274) 
0

>  <i_epik_Tot_Q>  (274) 
0

>  <i_epik_Tot_abs_Q>  (274) 
0

>  <s_lp_Force_Field>  (274) 
OPLS3e

>  <r_lp_Energy>  (274) 
21.811

>  <b_lp_Chiralities_Consistent>  (274) 
1

>  <s_lp_Variant>  (274) 
71:0-1

>  <s_i_glide_gridfile>  (274) 
pfpi4k_grid

>  <i_i_glide_lignum>  (274) 
24

>  <i_i_glide_rotatable_bonds>  (274) 
3

>  <r_i_docking_score>  (274) 
-4.12084

>  <r_i_glide_ligand_efficiency>  (274) 
-0.216886

>  <r_i_glide_ligand_efficiency_sa>  (274) 
-0.57874

>  <r_i_glide_ligand_efficiency_ln>  (274) 
-1.04472

>  <r_i_glide_gscore>  (274) 
-4.12084

>  <r_i_glide_lipo>  (274) 
-0.330396

>  <r_i_glide_hbond>  (274) 
-0.16

>  <r_i_glide_metal>  (274) 
-0

>  <r_i_glide_rewards>  (274) 
-1.62793

>  <r_i_glide_evdw>  (274) 
-25.4999

>  <r_i_glide_ecoul>  (274) 
-5.45045

>  <r_i_glide_erotb>  (274) 
0.259621

>  <r_i_glide_esite>  (274) 
-0.169575

>  <r_i_glide_emodel>  (274) 
-35.6142

>  <r_i_glide_energy>  (274) 
-30.9503

>  <r_i_glide_einternal>  (274) 
7.78988

>  <r_i_glide_intrahb_reward>  (274) 
-0

>  <i_i_glide_confnum>  (274) 
4

>  <i_i_glide_posenum>  (274) 
8

>  <r_i_glide_eff_state_penalty>  (274) 
0

>  <ligand_id>  (274) 
71

>  <original_smiles>  (274) 
COc1cc(OC)c2oc(-c3nnnn3C)nc2c1

>  <smiles>  (274) 
[H]c1c(OC([H])([H])[H])c([H])c2nc(-c3nnnn3C([H])([H])[H])oc2c1OC([H])([H])[H]

$$$$
71:0:2
     RDKit          3D

 30 32  0  0  1  0  0  0  0  0999 V2000
    3.2926  -11.8453    3.5485 C   0  0  0  0  0  0  0  0  0  0  0  0
    2.1104  -11.0682    3.4173 O   0  0  0  0  0  0  0  0  0  0  0  0
    2.2025   -9.8273    2.8301 C   0  0  0  0  0  0  0  0  0  0  0  0
    1.0137   -9.0669    2.7752 C   0  0  0  0  0  0  0  0  0  0  0  0
    1.0087   -7.7738    2.1932 C   0  0  0  0  0  0  0  0  0  0  0  0
   -0.1005   -6.9591    2.0914 O   0  0  0  0  0  0  0  0  0  0  0  0
   -1.3272   -7.4527    2.6091 C   0  0  0  0  0  0  0  0  0  0  0  0
    2.2224   -7.2900    1.6793 C   0  0  0  0  0  0  0  0  0  0  0  0
    2.4713   -6.0763    1.0645 O   0  0  0  0  0  0  0  0  0  0  0  0
    3.8116   -6.1299    0.7792 C   0  0  0  0  0  0  0  0  0  0  0  0
    4.3907   -4.9568    0.1194 C   0  0  0  0  0  0  0  0  0  0  0  0
    5.6950   -4.7143    0.0539 N   0  0  0  0  0  0  0  0  0  0  0  0
    5.7902   -3.5287   -0.6454 N   0  0  0  0  0  0  0  0  0  0  0  0
    4.6197   -3.0774   -0.9701 N   0  0  0  0  0  0  0  0  0  0  0  0
    3.7173   -3.9648   -0.4905 N   0  0  0  0  0  0  0  0  0  0  0  0
    2.2956   -3.7501   -0.6844 C   0  0  0  0  0  0  0  0  0  0  0  0
    4.4384   -7.2662    1.1356 N   0  0  0  0  0  0  0  0  0  0  0  0
    3.4302   -8.0163    1.7161 C   0  0  0  0  0  0  0  0  0  0  0  0
    3.4090   -9.2992    2.2969 C   0  0  0  0  0  0  0  0  0  0  0  0
    3.0534  -12.7796    4.0515 H   0  0  0  0  0  0  0  0  0  0  0  0
    4.0366  -11.3433    4.1670 H   0  0  0  0  0  0  0  0  0  0  0  0
    3.7355  -12.0919    2.5820 H   0  0  0  0  0  0  0  0  0  0  0  0
    0.1114   -9.5083    3.1838 H   0  0  0  0  0  0  0  0  0  0  0  0
   -2.0991   -6.6953    2.4914 H   0  0  0  0  0  0  0  0  0  0  0  0
   -1.2606   -7.6518    3.6783 H   0  0  0  0  0  0  0  0  0  0  0  0
   -1.6588   -8.3473    2.0791 H   0  0  0  0  0  0  0  0  0  0  0  0
    1.8212   -3.5857    0.2842 H   0  0  0  0  0  0  0  0  0  0  0  0
    1.8392   -4.6218   -1.1582 H   0  0  0  0  0  0  0  0  0  0  0  0
    2.1363   -2.8760   -1.3169 H   0  0  0  0  0  0  0  0  0  0  0  0
    4.3282   -9.8608    2.3096 H   0  0  0  0  0  0  0  0  0  0  0  0
  1  2  1  0
  1 20  1  0
  1 21  1  0
  1 22  1  0
  2  3  1  0
  3 19  2  0
  3  4  1  0
  4  5  2  0
  4 23  1  0
  5  6  1  0
  5  8  1  0
  6  7  1  0
  7 24  1  0
  7 25  1  0
  7 26  1  0
  8 18  2  0
  8  9  1  0
  9 10  1  0
 10 11  1  0
 10 17  2  0
 11 15  1  0
 11 12  2  0
 12 13  1  0
 13 14  2  0
 14 15  1  0
 15 16  1  0
 16 27  1  0
 16 28  1  0
 16 29  1  0
 17 18  1  0
 18 19  1  0
 19 30  1  0
M  END
>  <i_m_ct_stereo_status>  (275) 
1

>  <s_m_source_file>  (275) 
/var/tmp/pbs.5076255.sched01/tmppdndq9e4/92von5zo7h.sdf

>  <i_m_source_file_index>  (275) 
24

>  <i_lp_mmshare_version>  (275) 
48012

>  <i_f3d_flags>  (275) 
0

>  <s_epik_input>  (275) 
W0NIM11PYzFbY0hdYyhPW0NIM10pW2NIXWMoYzEyKW5jKG8yKS1jM25ubm4zW0NIM10=

>  <s_epik_cmdline>  (275) 
J2VwaWtfcHl0aG9uJywgJy1waHQnLCAnMi4wJywgJy1waCcsICc3LjAnLCAnLXRuJywgJzgnLCAnLW1hJywgJzIwMCcsICctaW1hZScsICc8aW5maWxlLm1hZT4nLCAnLW9tYWUnLCAnPG91dGZpbGUubWFlPic=

>  <r_lp_tautomer_probability>  (275) 
1

>  <r_epik_Ionization_Penalty>  (275) 
1.70136e-09

>  <r_epik_Ionization_Penalty_Charging>  (275) 
0

>  <r_epik_Ionization_Penalty_Neutral>  (275) 
1.70136e-09

>  <r_epik_State_Penalty>  (275) 
-0

>  <r_epik_Charging_Adjusted_Penalty>  (275) 
0

>  <i_epik_Tot_Q>  (275) 
0

>  <i_epik_Tot_abs_Q>  (275) 
0

>  <s_lp_Force_Field>  (275) 
OPLS3e

>  <r_lp_Energy>  (275) 
21.811

>  <b_lp_Chiralities_Consistent>  (275) 
1

>  <s_lp_Variant>  (275) 
71:0-1

>  <s_i_glide_gridfile>  (275) 
pfpi4k_grid

>  <i_i_glide_lignum>  (275) 
24

>  <i_i_glide_rotatable_bonds>  (275) 
3

>  <r_i_docking_score>  (275) 
-3.27231

>  <r_i_glide_ligand_efficiency>  (275) 
-0.172227

>  <r_i_glide_ligand_efficiency_sa>  (275) 
-0.45957

>  <r_i_glide_ligand_efficiency_ln>  (275) 
-0.8296

>  <r_i_glide_gscore>  (275) 
-3.27231

>  <r_i_glide_lipo>  (275) 
-0.0926674

>  <r_i_glide_hbond>  (275) 
-0.0698524

>  <r_i_glide_metal>  (275) 
-0

>  <r_i_glide_rewards>  (275) 
-1.63154

>  <r_i_glide_evdw>  (275) 
-24.2618

>  <r_i_glide_ecoul>  (275) 
-3.40278

>  <r_i_glide_erotb>  (275) 
0.259621

>  <r_i_glide_esite>  (275) 
-0.0143676

>  <r_i_glide_emodel>  (275) 
-33.3574

>  <r_i_glide_energy>  (275) 
-27.6645

>  <r_i_glide_einternal>  (275) 
2.45019

>  <r_i_glide_intrahb_reward>  (275) 
-0

>  <i_i_glide_confnum>  (275) 
4

>  <i_i_glide_posenum>  (275) 
9

>  <r_i_glide_eff_state_penalty>  (275) 
0

>  <ligand_id>  (275) 
71

>  <original_smiles>  (275) 
COc1cc(OC)c2oc(-c3nnnn3C)nc2c1

>  <smiles>  (275) 
[H]c1c(OC([H])([H])[H])c([H])c2nc(-c3nnnn3C([H])([H])[H])oc2c1OC([H])([H])[H]

$$$$
72:0:0
     RDKit          3D

 54 58  0  0  1  0  0  0  0  0999 V2000
    0.3642   -3.4080    4.5520 C   0  0  0  0  0  0  0  0  0  0  0  0
    1.8346   -3.2212    4.9487 C   0  0  1  0  0  0  0  0  0  0  0  0
    1.7643   -2.4327    6.1206 O   0  0  0  0  0  0  0  0  0  0  0  0
    2.5195   -4.5770    5.2723 C   0  0  0  0  0  0  0  0  0  0  0  0
    3.6520   -4.7896    4.2391 C   0  0  0  0  0  0  0  0  0  0  0  0
    3.3219   -3.8206    3.0923 C   0  0  2  0  0  0  0  0  0  0  0  0
    2.3184   -4.4715    2.3333 O   0  0  0  0  0  0  0  0  0  0  0  0
    4.4519   -3.4314    2.1077 C   0  0  1  0  0  0  0  0  0  0  0  0
    5.0149   -4.6637    1.3670 C   0  0  0  0  0  0  0  0  0  0  0  0
    6.1912   -4.2880    0.4831 C   0  0  0  0  0  0  0  0  0  0  0  0
    5.8383   -3.1720   -0.5175 C   0  0  1  0  0  0  0  0  0  0  0  0
    7.0251   -2.8241   -1.2034 O   0  0  0  0  0  0  0  0  0  0  0  0
    5.0525   -3.6093   -1.6772 N   0  0  0  0  0  0  0  0  0  0  0  0
    4.5839   -2.3707   -2.3471 C   0  0  1  0  0  0  0  0  0  0  0  0
    3.2494   -1.8971   -1.9511 C   0  0  0  0  0  0  0  0  0  0  0  0
    4.4765   -1.3620   -1.2167 C   0  0  1  0  0  0  0  0  0  0  0  0
    5.0927   -1.9406    0.0613 C   0  0  2  0  0  0  0  0  0  0  0  0
    6.0761   -0.9376    0.7163 C   0  0  0  0  0  0  0  0  0  0  0  0
    3.9640   -2.3544    1.0828 C   0  0  2  0  0  0  0  0  0  0  0  0
    3.2258   -1.1664    1.7976 C   0  0  1  0  0  0  0  0  0  0  0  0
    2.6261   -0.2577    0.8794 O   0  0  0  0  0  0  0  0  0  0  0  0
    2.1513   -1.6034    2.8292 C   0  0  0  0  0  0  0  0  0  0  0  0
    2.7449   -2.6020    3.8446 C   0  0  1  0  0  0  0  0  0  0  0  0
    3.7910   -1.9392    4.5398 O   0  0  0  0  0  0  0  0  0  0  0  0
    0.2440   -4.0484    3.6821 H   0  0  0  0  0  0  0  0  0  0  0  0
   -0.1065   -2.4516    4.3292 H   0  0  0  0  0  0  0  0  0  0  0  0
   -0.2000   -3.8694    5.3610 H   0  0  0  0  0  0  0  0  0  0  0  0
    2.6449   -2.2625    6.4234 H   0  0  0  0  0  0  0  0  0  0  0  0
    2.9207   -4.6172    6.2872 H   0  0  0  0  0  0  0  0  0  0  0  0
    1.7998   -5.3948    5.1976 H   0  0  0  0  0  0  0  0  0  0  0  0
    4.6067   -4.5155    4.6913 H   0  0  0  0  0  0  0  0  0  0  0  0
    3.7316   -5.8273    3.9094 H   0  0  0  0  0  0  0  0  0  0  0  0
    2.0726   -3.8847    1.6362 H   0  0  0  0  0  0  0  0  0  0  0  0
    5.2681   -3.0027    2.6892 H   0  0  0  0  0  0  0  0  0  0  0  0
    5.3367   -5.4241    2.0816 H   0  0  0  0  0  0  0  0  0  0  0  0
    4.2460   -5.1270    0.7419 H   0  0  0  0  0  0  0  0  0  0  0  0
    6.9924   -3.9305    1.1330 H   0  0  0  0  0  0  0  0  0  0  0  0
    6.5731   -5.1725   -0.0191 H   0  0  0  0  0  0  0  0  0  0  0  0
    7.7362   -3.3375   -0.8493 H   0  0  0  0  0  0  0  0  0  0  0  0
    5.6091   -4.1599   -2.3138 H   0  0  0  0  0  0  0  0  0  0  0  0
    5.0545   -2.0941   -3.2772 H   0  0  0  0  0  0  0  0  0  0  0  0
    2.7793   -1.1725   -2.6097 H   0  0  0  0  0  0  0  0  0  0  0  0
    2.5712   -2.5877   -1.4693 H   0  0  0  0  0  0  0  0  0  0  0  0
    4.7643   -0.3429   -1.4612 H   0  0  0  0  0  0  0  0  0  0  0  0
    5.5806   -0.0015    0.9710 H   0  0  0  0  0  0  0  0  0  0  0  0
    6.9005   -0.6550    0.0705 H   0  0  0  0  0  0  0  0  0  0  0  0
    6.5217   -1.3382    1.6261 H   0  0  0  0  0  0  0  0  0  0  0  0
    3.1896   -2.8471    0.5081 H   0  0  0  0  0  0  0  0  0  0  0  0
    3.9636   -0.5866    2.3549 H   0  0  0  0  0  0  0  0  0  0  0  0
    1.9392   -0.6566    0.3389 H   0  0  0  0  0  0  0  0  0  0  0  0
    1.7881   -0.7237    3.3593 H   0  0  0  0  0  0  0  0  0  0  0  0
    1.2966   -2.0345    2.3078 H   0  0  0  0  0  0  0  0  0  0  0  0
    4.2564   -2.5777    5.0626 H   0  0  0  0  0  0  0  0  0  0  0  0
    4.2405   -4.0961   -1.3593 H   0  0  0  0  0  0  0  0  0  0  0  0
  1  2  1  0
  1 25  1  0
  1 26  1  0
  1 27  1  0
  2 23  1  0
  2  3  1  1
  2  4  1  0
  3 28  1  0
  4  5  1  0
  4 29  1  0
  4 30  1  0
  5  6  1  0
  5 31  1  0
  5 32  1  0
  6 23  1  0
  6  7  1  6
  6  8  1  0
  7 33  1  0
  8 19  1  0
  8  9  1  0
  8 34  1  1
  9 10  1  0
  9 35  1  0
  9 36  1  0
 10 11  1  0
 10 37  1  0
 10 38  1  0
 11 17  1  0
 11 12  1  6
 11 13  1  0
 12 39  1  0
 13 14  1  0
 13 40  1  0
 13 54  1  0
 14 16  1  0
 14 15  1  0
 14 41  1  6
 15 16  1  0
 15 42  1  0
 15 43  1  0
 16 17  1  0
 16 44  1  6
 17 18  1  1
 17 19  1  0
 18 45  1  0
 18 46  1  0
 18 47  1  0
 19 20  1  0
 19 48  1  6
 20 21  1  0
 20 22  1  0
 20 49  1  1
 21 50  1  0
 22 23  1  0
 22 51  1  0
 22 52  1  0
 23 24  1  1
 24 53  1  0
M  CHG  1  13   1
M  END
>  <i_m_ct_stereo_status>  (276) 
1

>  <s_m_source_file>  (276) 
/var/tmp/pbs.5076255.sched01/tmppdndq9e4/92von5zo7h.sdf

>  <i_m_source_file_index>  (276) 
25

>  <i_lp_mmshare_version>  (276) 
48012

>  <i_f3d_flags>  (276) 
0

>  <s_epik_input>  (276) 
W0NIMl0xW0NIMl1bQ0BAXShbQ0gzXSkoW09IXSlbQ0BdMihbT0hdKVtDSDJdW0NASF0oW09IXSlbQ0BIXShbQ0BIXTNbQ0BAXTEyW09IXSlbQ0BAXTQoW0NIM10pW0NAQF0oW09IXSkoW0NIMl1bQ0gyXTMpW05IXVtDQEBIXTVbQ0BIXTRbQ0gyXTU=

>  <s_epik_cmdline>  (276) 
J2VwaWtfcHl0aG9uJywgJy1waHQnLCAnMi4wJywgJy1waCcsICc3LjAnLCAnLXRuJywgJzgnLCAnLW1hJywgJzIwMCcsICctaW1hZScsICc8aW5maWxlLm1hZT4nLCAnLW9tYWUnLCAnPG91dGZpbGUubWFlPic=

>  <r_epik_Ionization_Penalty>  (276) 
0.00305649

>  <r_epik_Ionization_Penalty_Charging>  (276) 
0.00290111

>  <r_epik_Ionization_Penalty_Neutral>  (276) 
0.000155379

>  <r_epik_State_Penalty>  (276) 
0.00203231

>  <r_epik_Charging_Adjusted_Penalty>  (276) 
0.00493342

>  <i_epik_Tot_Q>  (276) 
1

>  <i_epik_Tot_abs_Q>  (276) 
1

>  <s_lp_Force_Field>  (276) 
OPLS3e

>  <r_lp_Energy>  (276) 
50.0596

>  <b_lp_Chiralities_Consistent>  (276) 
1

>  <s_lp_Variant>  (276) 
72:0-1

>  <s_i_glide_gridfile>  (276) 
pfpi4k_grid

>  <i_i_glide_lignum>  (276) 
25

>  <i_i_glide_rotatable_bonds>  (276) 
5

>  <r_i_docking_score>  (276) 
-4.18328

>  <r_i_glide_ligand_efficiency>  (276) 
-0.174303

>  <r_i_glide_ligand_efficiency_sa>  (276) 
-0.502777

>  <r_i_glide_ligand_efficiency_ln>  (276) 
-1.00125

>  <r_i_glide_gscore>  (276) 
-4.18328

>  <r_i_glide_lipo>  (276) 
-0.380267

>  <r_i_glide_hbond>  (276) 
-0.182014

>  <r_i_glide_metal>  (276) 
-0

>  <r_i_glide_rewards>  (276) 
-1.16033

>  <r_i_glide_evdw>  (276) 
-21.4406

>  <r_i_glide_ecoul>  (276) 
-9.25754

>  <r_i_glide_erotb>  (276) 
0

>  <r_i_glide_esite>  (276) 
0

>  <r_i_glide_emodel>  (276) 
-40.7441

>  <r_i_glide_energy>  (276) 
-30.6981

>  <r_i_glide_einternal>  (276) 
0.238704

>  <r_i_glide_intrahb_reward>  (276) 
-0

>  <i_i_glide_confnum>  (276) 
1

>  <i_i_glide_posenum>  (276) 
19

>  <r_i_glide_eff_state_penalty>  (276) 
0

>  <ligand_id>  (276) 
72

>  <original_smiles>  (276) 
CC1(O)CCC2(O)C3CCC4(O)NC5CC5C4(C)C3C(O)CC12O

>  <smiles>  (276) 
[H]OC1([H])C([H])([H])C2(O[H])C(O[H])(C([H])([H])[H])C([H])([H])C([H])([H])C2(O[H])C2([H])C([H])([H])C([H])([H])C3(O[H])C(C([H])([H])[H])(C12[H])C1([H])C([H])([H])C1([H])[N+]3([H])[H]

$$$$
72:0:1
     RDKit          3D

 54 58  0  0  1  0  0  0  0  0999 V2000
    0.4170   -3.3840    4.5318 C   0  0  0  0  0  0  0  0  0  0  0  0
    1.8999   -3.2329    4.9125 C   0  0  1  0  0  0  0  0  0  0  0  0
    1.9000   -2.4583    6.0940 O   0  0  0  0  0  0  0  0  0  0  0  0
    2.5518   -4.6071    5.2213 C   0  0  0  0  0  0  0  0  0  0  0  0
    3.6743   -4.8295    4.1804 C   0  0  0  0  0  0  0  0  0  0  0  0
    3.3561   -3.8468    3.0412 C   0  0  2  0  0  0  0  0  0  0  0  0
    2.3334   -4.4683    2.2820 O   0  0  0  0  0  0  0  0  0  0  0  0
    4.4884   -3.4632    2.0556 C   0  0  1  0  0  0  0  0  0  0  0  0
    5.0220   -4.6978    1.3016 C   0  0  0  0  0  0  0  0  0  0  0  0
    6.2016   -4.3306    0.4184 C   0  0  0  0  0  0  0  0  0  0  0  0
    5.8641   -3.1996   -0.5683 C   0  0  1  0  0  0  0  0  0  0  0  0
    7.0544   -2.8635   -1.2518 O   0  0  0  0  0  0  0  0  0  0  0  0
    5.0615   -3.6079   -1.7264 N   0  0  0  0  0  0  0  0  0  0  0  0
    4.6084   -2.3566   -2.3832 C   0  0  1  0  0  0  0  0  0  0  0  0
    3.2887   -1.8583   -1.9722 C   0  0  0  0  0  0  0  0  0  0  0  0
    4.5307   -1.3551   -1.2415 C   0  0  1  0  0  0  0  0  0  0  0  0
    5.1448   -1.9605    0.0290 C   0  0  2  0  0  0  0  0  0  0  0  0
    6.1503   -0.9852    0.6892 C   0  0  0  0  0  0  0  0  0  0  0  0
    4.0120   -2.3673    1.0497 C   0  0  2  0  0  0  0  0  0  0  0  0
    3.3014   -1.1723    1.7819 C   0  0  1  0  0  0  0  0  0  0  0  0
    2.6906   -0.2627    0.8806 O   0  0  0  0  0  0  0  0  0  0  0  0
    2.2249   -1.6023    2.8134 C   0  0  0  0  0  0  0  0  0  0  0  0
    2.8104   -2.6247    3.8028 C   0  0  1  0  0  0  0  0  0  0  0  0
    3.8882   -1.9825    4.4682 O   0  0  0  0  0  0  0  0  0  0  0  0
    0.2765   -4.0141    3.6577 H   0  0  0  0  0  0  0  0  0  0  0  0
   -0.0464   -2.4211    4.3164 H   0  0  0  0  0  0  0  0  0  0  0  0
   -0.1552   -3.8470    5.3371 H   0  0  0  0  0  0  0  0  0  0  0  0
    1.5574   -1.6062    5.8776 H   0  0  0  0  0  0  0  0  0  0  0  0
    2.9573   -4.6587    6.2338 H   0  0  0  0  0  0  0  0  0  0  0  0
    1.8148   -5.4098    5.1453 H   0  0  0  0  0  0  0  0  0  0  0  0
    4.6355   -4.5769    4.6327 H   0  0  0  0  0  0  0  0  0  0  0  0
    3.7319   -5.8671    3.8434 H   0  0  0  0  0  0  0  0  0  0  0  0
    2.1185   -3.8814    1.5764 H   0  0  0  0  0  0  0  0  0  0  0  0
    5.3154   -3.0598    2.6405 H   0  0  0  0  0  0  0  0  0  0  0  0
    5.3327   -5.4734    2.0064 H   0  0  0  0  0  0  0  0  0  0  0  0
    4.2415   -5.1399    0.6772 H   0  0  0  0  0  0  0  0  0  0  0  0
    7.0128   -3.9998    1.0679 H   0  0  0  0  0  0  0  0  0  0  0  0
    6.5604   -5.2158   -0.0981 H   0  0  0  0  0  0  0  0  0  0  0  0
    7.7672   -3.3574   -0.8778 H   0  0  0  0  0  0  0  0  0  0  0  0
    5.6018   -4.1688   -2.3691 H   0  0  0  0  0  0  0  0  0  0  0  0
    5.0790   -2.0804   -3.3134 H   0  0  0  0  0  0  0  0  0  0  0  0
    2.8235   -1.1200   -2.6177 H   0  0  0  0  0  0  0  0  0  0  0  0
    2.5981   -2.5383   -1.4909 H   0  0  0  0  0  0  0  0  0  0  0  0
    4.8375   -0.3359   -1.4759 H   0  0  0  0  0  0  0  0  0  0  0  0
    5.6748   -0.0428    0.9577 H   0  0  0  0  0  0  0  0  0  0  0  0
    6.9744   -0.7084    0.0401 H   0  0  0  0  0  0  0  0  0  0  0  0
    6.5939   -1.4045    1.5895 H   0  0  0  0  0  0  0  0  0  0  0  0
    3.2265   -2.8421    0.4766 H   0  0  0  0  0  0  0  0  0  0  0  0
    4.0536   -0.6071    2.3350 H   0  0  0  0  0  0  0  0  0  0  0  0
    1.9944   -0.6665    0.3527 H   0  0  0  0  0  0  0  0  0  0  0  0
    1.8831   -0.7212    3.3545 H   0  0  0  0  0  0  0  0  0  0  0  0
    1.3596   -2.0096    2.2935 H   0  0  0  0  0  0  0  0  0  0  0  0
    4.2643   -2.6014    5.0779 H   0  0  0  0  0  0  0  0  0  0  0  0
    4.2433   -4.0876   -1.4101 H   0  0  0  0  0  0  0  0  0  0  0  0
  1  2  1  0
  1 25  1  0
  1 26  1  0
  1 27  1  0
  2 23  1  0
  2  3  1  1
  2  4  1  0
  3 28  1  0
  4  5  1  0
  4 29  1  0
  4 30  1  0
  5  6  1  0
  5 31  1  0
  5 32  1  0
  6 23  1  0
  6  7  1  6
  6  8  1  0
  7 33  1  0
  8 19  1  0
  8  9  1  0
  8 34  1  1
  9 10  1  0
  9 35  1  0
  9 36  1  0
 10 11  1  0
 10 37  1  0
 10 38  1  0
 11 17  1  0
 11 12  1  6
 11 13  1  0
 12 39  1  0
 13 14  1  0
 13 40  1  0
 13 54  1  0
 14 16  1  0
 14 15  1  0
 14 41  1  6
 15 16  1  0
 15 42  1  0
 15 43  1  0
 16 17  1  0
 16 44  1  6
 17 18  1  1
 17 19  1  0
 18 45  1  0
 18 46  1  0
 18 47  1  0
 19 20  1  0
 19 48  1  6
 20 21  1  0
 20 22  1  0
 20 49  1  1
 21 50  1  0
 22 23  1  0
 22 51  1  0
 22 52  1  0
 23 24  1  1
 24 53  1  0
M  CHG  1  13   1
M  END
>  <i_m_ct_stereo_status>  (277) 
1

>  <s_m_source_file>  (277) 
/var/tmp/pbs.5076255.sched01/tmppdndq9e4/92von5zo7h.sdf

>  <i_m_source_file_index>  (277) 
25

>  <i_lp_mmshare_version>  (277) 
48012

>  <i_f3d_flags>  (277) 
0

>  <s_epik_input>  (277) 
W0NIMl0xW0NIMl1bQ0BAXShbQ0gzXSkoW09IXSlbQ0BdMihbT0hdKVtDSDJdW0NASF0oW09IXSlbQ0BIXShbQ0BIXTNbQ0BAXTEyW09IXSlbQ0BAXTQoW0NIM10pW0NAQF0oW09IXSkoW0NIMl1bQ0gyXTMpW05IXVtDQEBIXTVbQ0BIXTRbQ0gyXTU=

>  <s_epik_cmdline>  (277) 
J2VwaWtfcHl0aG9uJywgJy1waHQnLCAnMi4wJywgJy1waCcsICc3LjAnLCAnLXRuJywgJzgnLCAnLW1hJywgJzIwMCcsICctaW1hZScsICc8aW5maWxlLm1hZT4nLCAnLW9tYWUnLCAnPG91dGZpbGUubWFlPic=

>  <r_epik_Ionization_Penalty>  (277) 
0.00305649

>  <r_epik_Ionization_Penalty_Charging>  (277) 
0.00290111

>  <r_epik_Ionization_Penalty_Neutral>  (277) 
0.000155379

>  <r_epik_State_Penalty>  (277) 
0.00203231

>  <r_epik_Charging_Adjusted_Penalty>  (277) 
0.00493342

>  <i_epik_Tot_Q>  (277) 
1

>  <i_epik_Tot_abs_Q>  (277) 
1

>  <s_lp_Force_Field>  (277) 
OPLS3e

>  <r_lp_Energy>  (277) 
50.0596

>  <b_lp_Chiralities_Consistent>  (277) 
1

>  <s_lp_Variant>  (277) 
72:0-1

>  <s_i_glide_gridfile>  (277) 
pfpi4k_grid

>  <i_i_glide_lignum>  (277) 
25

>  <i_i_glide_rotatable_bonds>  (277) 
5

>  <r_i_docking_score>  (277) 
-4.15046

>  <r_i_glide_ligand_efficiency>  (277) 
-0.172936

>  <r_i_glide_ligand_efficiency_sa>  (277) 
-0.498834

>  <r_i_glide_ligand_efficiency_ln>  (277) 
-0.993397

>  <r_i_glide_gscore>  (277) 
-4.15046

>  <r_i_glide_lipo>  (277) 
-0.389427

>  <r_i_glide_hbond>  (277) 
-0.174764

>  <r_i_glide_metal>  (277) 
-0

>  <r_i_glide_rewards>  (277) 
-1.16628

>  <r_i_glide_evdw>  (277) 
-21.7884

>  <r_i_glide_ecoul>  (277) 
-8.87051

>  <r_i_glide_erotb>  (277) 
0

>  <r_i_glide_esite>  (277) 
0

>  <r_i_glide_emodel>  (277) 
-40.5773

>  <r_i_glide_energy>  (277) 
-30.6589

>  <r_i_glide_einternal>  (277) 
0.269569

>  <r_i_glide_intrahb_reward>  (277) 
-0

>  <i_i_glide_confnum>  (277) 
1

>  <i_i_glide_posenum>  (277) 
27

>  <r_i_glide_eff_state_penalty>  (277) 
0

>  <ligand_id>  (277) 
72

>  <original_smiles>  (277) 
CC1(O)CCC2(O)C3CCC4(O)NC5CC5C4(C)C3C(O)CC12O

>  <smiles>  (277) 
[H]OC1([H])C([H])([H])C2(O[H])C(O[H])(C([H])([H])[H])C([H])([H])C([H])([H])C2(O[H])C2([H])C([H])([H])C([H])([H])C3(O[H])C(C([H])([H])[H])(C12[H])C1([H])C([H])([H])C1([H])[N+]3([H])[H]

$$$$
72:0:2
     RDKit          3D

 54 58  0  0  1  0  0  0  0  0999 V2000
    0.4395   -3.0157    4.6180 C   0  0  0  0  0  0  0  0  0  0  0  0
    1.9354   -2.9790    4.9978 C   0  0  1  0  0  0  0  0  0  0  0  0
    1.9961   -2.1718    6.1585 O   0  0  0  0  0  0  0  0  0  0  0  0
    2.4761   -4.3902    5.3475 C   0  0  0  0  0  0  0  0  0  0  0  0
    3.5723   -4.7346    4.3111 C   0  0  0  0  0  0  0  0  0  0  0  0
    3.3325   -3.7652    3.1477 C   0  0  2  0  0  0  0  0  0  0  0  0
    2.2539   -4.3128    2.4082 O   0  0  0  0  0  0  0  0  0  0  0  0
    4.4919   -3.5069    2.1433 C   0  0  1  0  0  0  0  0  0  0  0  0
    4.9151   -4.8024    1.4217 C   0  0  0  0  0  0  0  0  0  0  0  0
    6.1203   -4.5557    0.5216 C   0  0  0  0  0  0  0  0  0  0  0  0
    5.8773   -3.4328   -0.4899 C   0  0  1  0  0  0  0  0  0  0  0  0
    7.1066   -3.1584   -1.1622 O   0  0  0  0  0  0  0  0  0  0  0  0
    5.0398   -3.7985   -1.6408 N   0  0  0  0  0  0  0  0  0  0  0  0
    4.6816   -2.5546   -2.3209 C   0  0  1  0  0  0  0  0  0  0  0  0
    3.4106   -1.9117   -1.9243 C   0  0  0  0  0  0  0  0  0  0  0  0
    4.6967   -1.5027   -1.2158 C   0  0  1  0  0  0  0  0  0  0  0  0
    5.2619   -2.1188    0.0688 C   0  0  2  0  0  0  0  0  0  0  0  0
    6.3431   -1.2075    0.7012 C   0  0  0  0  0  0  0  0  0  0  0  0
    4.1068   -2.4073    1.1090 C   0  0  2  0  0  0  0  0  0  0  0  0
    3.5149   -1.1435    1.8199 C   0  0  1  0  0  0  0  0  0  0  0  0
    2.9942   -0.2282    0.8751 O   0  0  0  0  0  0  0  0  0  0  0  0
    2.4003   -1.4376    2.8521 C   0  0  0  0  0  0  0  0  0  0  0  0
    2.8912   -2.4772    3.8707 C   0  0  1  0  0  0  0  0  0  0  0  0
    4.0260   -1.9092    4.5198 O   0  0  0  0  0  0  0  0  0  0  0  0
    0.2409   -3.6495    3.7561 H   0  0  0  0  0  0  0  0  0  0  0  0
    0.0629   -2.0213    4.3825 H   0  0  0  0  0  0  0  0  0  0  0  0
   -0.1647   -3.4056    5.4374 H   0  0  0  0  0  0  0  0  0  0  0  0
    1.6868   -1.3115    5.9305 H   0  0  0  0  0  0  0  0  0  0  0  0
    2.8817   -4.4439    6.3604 H   0  0  0  0  0  0  0  0  0  0  0  0
    1.6770   -5.1312    5.2990 H   0  0  0  0  0  0  0  0  0  0  0  0
    4.5528   -4.5521    4.7545 H   0  0  0  0  0  0  0  0  0  0  0  0
    3.5421   -5.7837    4.0065 H   0  0  0  0  0  0  0  0  0  0  0  0
    2.0198   -3.6873    1.7459 H   0  0  0  0  0  0  0  0  0  0  0  0
    5.3508   -3.1571    2.7152 H   0  0  0  0  0  0  0  0  0  0  0  0
    5.1657   -5.5766    2.1475 H   0  0  0  0  0  0  0  0  0  0  0  0
    4.0962   -5.1944    0.8177 H   0  0  0  0  0  0  0  0  0  0  0  0
    6.9594   -4.2747    1.1535 H   0  0  0  0  0  0  0  0  0  0  0  0
    6.4072   -5.4846    0.0303 H   0  0  0  0  0  0  0  0  0  0  0  0
    7.1231   -3.4512   -2.0578 H   0  0  0  0  0  0  0  0  0  0  0  0
    5.4559   -4.4777   -2.2644 H   0  0  0  0  0  0  0  0  0  0  0  0
    5.1680   -2.3263   -3.2681 H   0  0  0  0  0  0  0  0  0  0  0  0
    2.9981   -1.1576   -2.5885 H   0  0  0  0  0  0  0  0  0  0  0  0
    2.6659   -2.5184   -1.4177 H   0  0  0  0  0  0  0  0  0  0  0  0
    5.0812   -0.5216   -1.4780 H   0  0  0  0  0  0  0  0  0  0  0  0
    5.9520   -0.2223    0.9454 H   0  0  0  0  0  0  0  0  0  0  0  0
    7.1860   -1.0243    0.0439 H   0  0  0  0  0  0  0  0  0  0  0  0
    6.7506   -1.6435    1.6093 H   0  0  0  0  0  0  0  0  0  0  0  0
    3.2752   -2.8306    0.5568 H   0  0  0  0  0  0  0  0  0  0  0  0
    4.3105   -0.6182    2.3492 H   0  0  0  0  0  0  0  0  0  0  0  0
    2.2529   -0.6042    0.4050 H   0  0  0  0  0  0  0  0  0  0  0  0
    2.1302   -0.5145    3.3700 H   0  0  0  0  0  0  0  0  0  0  0  0
    1.4959   -1.7851    2.3465 H   0  0  0  0  0  0  0  0  0  0  0  0
    4.3519   -2.5360    5.1442 H   0  0  0  0  0  0  0  0  0  0  0  0
    4.1779   -4.1847   -1.2859 H   0  0  0  0  0  0  0  0  0  0  0  0
  1  2  1  0
  1 25  1  0
  1 26  1  0
  1 27  1  0
  2 23  1  0
  2  3  1  1
  2  4  1  0
  3 28  1  0
  4  5  1  0
  4 29  1  0
  4 30  1  0
  5  6  1  0
  5 31  1  0
  5 32  1  0
  6 23  1  0
  6  7  1  6
  6  8  1  0
  7 33  1  0
  8 19  1  0
  8  9  1  0
  8 34  1  1
  9 10  1  0
  9 35  1  0
  9 36  1  0
 10 11  1  0
 10 37  1  0
 10 38  1  0
 11 17  1  0
 11 12  1  6
 11 13  1  0
 12 39  1  0
 13 14  1  0
 13 40  1  0
 13 54  1  0
 14 16  1  0
 14 15  1  0
 14 41  1  6
 15 16  1  0
 15 42  1  0
 15 43  1  0
 16 17  1  0
 16 44  1  6
 17 18  1  1
 17 19  1  0
 18 45  1  0
 18 46  1  0
 18 47  1  0
 19 20  1  0
 19 48  1  6
 20 21  1  0
 20 22  1  0
 20 49  1  1
 21 50  1  0
 22 23  1  0
 22 51  1  0
 22 52  1  0
 23 24  1  1
 24 53  1  0
M  CHG  1  13   1
M  END
>  <i_m_ct_stereo_status>  (278) 
1

>  <s_m_source_file>  (278) 
/var/tmp/pbs.5076255.sched01/tmppdndq9e4/92von5zo7h.sdf

>  <i_m_source_file_index>  (278) 
25

>  <i_lp_mmshare_version>  (278) 
48012

>  <i_f3d_flags>  (278) 
0

>  <s_epik_input>  (278) 
W0NIMl0xW0NIMl1bQ0BAXShbQ0gzXSkoW09IXSlbQ0BdMihbT0hdKVtDSDJdW0NASF0oW09IXSlbQ0BIXShbQ0BIXTNbQ0BAXTEyW09IXSlbQ0BAXTQoW0NIM10pW0NAQF0oW09IXSkoW0NIMl1bQ0gyXTMpW05IXVtDQEBIXTVbQ0BIXTRbQ0gyXTU=

>  <s_epik_cmdline>  (278) 
J2VwaWtfcHl0aG9uJywgJy1waHQnLCAnMi4wJywgJy1waCcsICc3LjAnLCAnLXRuJywgJzgnLCAnLW1hJywgJzIwMCcsICctaW1hZScsICc8aW5maWxlLm1hZT4nLCAnLW9tYWUnLCAnPG91dGZpbGUubWFlPic=

>  <r_epik_Ionization_Penalty>  (278) 
0.00305649

>  <r_epik_Ionization_Penalty_Charging>  (278) 
0.00290111

>  <r_epik_Ionization_Penalty_Neutral>  (278) 
0.000155379

>  <r_epik_State_Penalty>  (278) 
0.00203231

>  <r_epik_Charging_Adjusted_Penalty>  (278) 
0.00493342

>  <i_epik_Tot_Q>  (278) 
1

>  <i_epik_Tot_abs_Q>  (278) 
1

>  <s_lp_Force_Field>  (278) 
OPLS3e

>  <r_lp_Energy>  (278) 
50.0596

>  <b_lp_Chiralities_Consistent>  (278) 
1

>  <s_lp_Variant>  (278) 
72:0-1

>  <s_i_glide_gridfile>  (278) 
pfpi4k_grid

>  <i_i_glide_lignum>  (278) 
25

>  <i_i_glide_rotatable_bonds>  (278) 
5

>  <r_i_docking_score>  (278) 
-4.08993

>  <r_i_glide_ligand_efficiency>  (278) 
-0.170414

>  <r_i_glide_ligand_efficiency_sa>  (278) 
-0.491559

>  <r_i_glide_ligand_efficiency_ln>  (278) 
-0.978909

>  <r_i_glide_gscore>  (278) 
-4.08993

>  <r_i_glide_lipo>  (278) 
-0.340042

>  <r_i_glide_hbond>  (278) 
-0.16

>  <r_i_glide_metal>  (278) 
-0

>  <r_i_glide_rewards>  (278) 
-1.19041

>  <r_i_glide_evdw>  (278) 
-23.1368

>  <r_i_glide_ecoul>  (278) 
-8.2566

>  <r_i_glide_erotb>  (278) 
0

>  <r_i_glide_esite>  (278) 
-0.00415009

>  <r_i_glide_emodel>  (278) 
-40.9349

>  <r_i_glide_energy>  (278) 
-31.3934

>  <r_i_glide_einternal>  (278) 
0.826741

>  <r_i_glide_intrahb_reward>  (278) 
-0

>  <i_i_glide_confnum>  (278) 
1

>  <i_i_glide_posenum>  (278) 
15

>  <r_i_glide_eff_state_penalty>  (278) 
0

>  <ligand_id>  (278) 
72

>  <original_smiles>  (278) 
CC1(O)CCC2(O)C3CCC4(O)NC5CC5C4(C)C3C(O)CC12O

>  <smiles>  (278) 
[H]OC1([H])C([H])([H])C2(O[H])C(O[H])(C([H])([H])[H])C([H])([H])C([H])([H])C2(O[H])C2([H])C([H])([H])C([H])([H])C3(O[H])C(C([H])([H])[H])(C12[H])C1([H])C([H])([H])C1([H])[N+]3([H])[H]

$$$$
73:0:0
     RDKit          3D

 44 46  0  0  1  0  0  0  0  0999 V2000
    0.9605  -10.5863    2.8652 C   0  0  0  0  0  0  0  0  0  0  0  0
    0.2154   -9.8743    3.9407 N   0  0  2  0  0  0  0  0  0  0  0  0
   -0.8627   -8.9494    3.5313 C   0  0  1  0  0  0  0  0  0  0  0  0
   -1.3466   -8.4005    4.8782 C   0  0  0  0  0  0  0  0  0  0  0  0
   -0.1218   -8.5036    5.8125 C   0  0  0  0  0  0  0  0  0  0  0  0
    0.9858   -9.0857    4.9231 C   0  0  2  0  0  0  0  0  0  0  0  0
    1.7789   -7.9597    4.2237 C   0  0  0  0  0  0  0  0  0  0  0  0
    0.8386   -7.0541    3.3679 C   0  0  1  0  0  0  0  0  0  0  0  0
    1.5259   -6.1835    2.4714 O   0  0  0  0  0  0  0  0  0  0  0  0
    2.3068   -6.6642    1.4722 C   0  0  0  0  0  0  0  0  0  0  0  0
    2.5560   -7.8493    1.2805 O   0  0  0  0  0  0  0  0  0  0  0  0
    2.8475   -5.6171    0.6064 C   0  0  0  0  0  0  0  0  0  0  0  0
    2.7911   -4.3102    0.9252 C   0  0  0  0  0  0  0  0  0  0  0  0
    3.2963   -3.2115    0.1049 C   0  0  0  0  0  0  0  0  0  0  0  0
    3.6671   -2.0292    0.7608 C   0  0  0  0  0  0  0  0  0  0  0  0
    4.1860   -0.9526    0.0336 C   0  0  0  0  0  0  0  0  0  0  0  0
    4.3261   -1.0592   -1.3612 C   0  0  0  0  0  0  0  0  0  0  0  0
    3.9659   -2.2376   -2.0385 C   0  0  0  0  0  0  0  0  0  0  0  0
    4.1136   -2.3510   -3.4933 N   0  0  0  0  0  0  0  0  0  0  0  0
    4.1384   -3.4649   -4.0029 O   0  0  0  0  0  0  0  0  0  0  0  0
    4.2150   -1.3093   -4.1539 O   0  0  0  0  0  0  0  0  0  0  0  0
    3.4625   -3.3212   -1.2846 C   0  0  0  0  0  0  0  0  0  0  0  0
   -0.3057   -7.8183    2.6454 C   0  0  0  0  0  0  0  0  0  0  0  0
    1.4919   -9.9233    2.1759 H   0  0  0  0  0  0  0  0  0  0  0  0
    0.2899  -11.1792    2.2467 H   0  0  0  0  0  0  0  0  0  0  0  0
    1.7140  -11.2590    3.2728 H   0  0  0  0  0  0  0  0  0  0  0  0
   -1.6558   -9.4859    3.0075 H   0  0  0  0  0  0  0  0  0  0  0  0
   -1.7587   -7.3861    4.8069 H   0  0  0  0  0  0  0  0  0  0  0  0
   -2.1372   -9.0367    5.2672 H   0  0  0  0  0  0  0  0  0  0  0  0
    0.1661   -7.5441    6.2568 H   0  0  0  0  0  0  0  0  0  0  0  0
   -0.3324   -9.1924    6.6281 H   0  0  0  0  0  0  0  0  0  0  0  0
    1.6633   -9.7322    5.4874 H   0  0  0  0  0  0  0  0  0  0  0  0
    2.3030   -7.3437    4.9661 H   0  0  0  0  0  0  0  0  0  0  0  0
    2.5682   -8.4417    3.6519 H   0  0  0  0  0  0  0  0  0  0  0  0
    0.3528   -6.3824    4.0777 H   0  0  0  0  0  0  0  0  0  0  0  0
    3.3071   -5.9439   -0.3081 H   0  0  0  0  0  0  0  0  0  0  0  0
    2.3383   -4.0075    1.8532 H   0  0  0  0  0  0  0  0  0  0  0  0
    3.5479   -1.9545    1.8333 H   0  0  0  0  0  0  0  0  0  0  0  0
    4.4628   -0.0411    0.5497 H   0  0  0  0  0  0  0  0  0  0  0  0
    4.7077   -0.2167   -1.9132 H   0  0  0  0  0  0  0  0  0  0  0  0
    3.1851   -4.2320   -1.7857 H   0  0  0  0  0  0  0  0  0  0  0  0
    0.0078   -8.2518    1.6953 H   0  0  0  0  0  0  0  0  0  0  0  0
   -1.1075   -7.1155    2.3861 H   0  0  0  0  0  0  0  0  0  0  0  0
   -0.2914  -10.5678    4.4854 H   0  0  0  0  0  0  0  0  0  0  0  0
  1  2  1  0
  1 24  1  0
  1 25  1  0
  1 26  1  0
  2  6  1  0
  2  3  1  0
  2 44  1  1
  3 23  1  0
  3  4  1  0
  3 27  1  6
  4  5  1  0
  4 28  1  0
  4 29  1  0
  5  6  1  0
  5 30  1  0
  5 31  1  0
  6  7  1  0
  6 32  1  1
  7  8  1  0
  7 33  1  0
  7 34  1  0
  8  9  1  0
  8 23  1  0
  8 35  1  1
  9 10  1  0
 10 11  2  0
 10 12  1  0
 12 13  2  3
 12 36  1  0
 13 14  1  0
 13 37  1  0
 14 22  1  0
 14 15  2  0
 15 16  1  0
 15 38  1  0
 16 17  2  0
 16 39  1  0
 17 18  1  0
 17 40  1  0
 18 19  1  0
 18 22  2  0
 19 20  2  0
 19 21  1  0
 22 41  1  0
 23 42  1  0
 23 43  1  0
M  CHG  3   2   1  19   1  21  -1
M  END
>  <i_m_ct_stereo_status>  (279) 
1

>  <s_m_source_file>  (279) 
/var/tmp/pbs.5076255.sched01/tmppdndq9e4/92von5zo7h.sdf

>  <i_m_source_file_index>  (279) 
26

>  <i_lp_mmshare_version>  (279) 
48012

>  <i_f3d_flags>  (279) 
0

>  <s_epik_input>  (279) 
W0NIM11OKFtDQEBIXTEyKVtDQEhdKFtDSDJdW0NIMl0xKVtDSDJdW0NASF0oW0NIMl0yKU9DKD1PKS9bQ0hdPVtDSF0vYzNbY0hdW2NIXVtjSF1jKFtOK10oPU8pW08tXSlbY0hdMw==

>  <s_epik_cmdline>  (279) 
J2VwaWtfcHl0aG9uJywgJy1waHQnLCAnMi4wJywgJy1waCcsICc3LjAnLCAnLXRuJywgJzgnLCAnLW1hJywgJzIwMCcsICctaW1hZScsICc8aW5maWxlLm1hZT4nLCAnLW9tYWUnLCAnPG91dGZpbGUubWFlPic=

>  <r_epik_Ionization_Penalty>  (279) 
0.0064655

>  <r_epik_Ionization_Penalty_Charging>  (279) 
0.0064655

>  <r_epik_Ionization_Penalty_Neutral>  (279) 
0

>  <r_epik_State_Penalty>  (279) 
0.00478368

>  <r_epik_Charging_Adjusted_Penalty>  (279) 
0.0112492

>  <i_epik_Tot_Q>  (279) 
1

>  <i_epik_Tot_abs_Q>  (279) 
3

>  <s_epik_Chemistry_Notes>  (279) 
This compound has an ester and may undergo hydrolysis at high or low pH.

>  <s_lp_Force_Field>  (279) 
OPLS3e

>  <r_lp_Energy>  (279) 
38.9274

>  <b_lp_Chiralities_Consistent>  (279) 
1

>  <s_lp_Variant>  (279) 
73:0-1

>  <s_i_glide_gridfile>  (279) 
pfpi4k_grid

>  <i_i_glide_lignum>  (279) 
26

>  <i_i_glide_rotatable_bonds>  (279) 
5

>  <r_i_docking_score>  (279) 
-3.60867

>  <r_i_glide_ligand_efficiency>  (279) 
-0.156899

>  <r_i_glide_ligand_efficiency_sa>  (279) 
-0.446199

>  <r_i_glide_ligand_efficiency_ln>  (279) 
-0.872608

>  <r_i_glide_gscore>  (279) 
-3.60867

>  <r_i_glide_lipo>  (279) 
-0.204176

>  <r_i_glide_hbond>  (279) 
-0.160227

>  <r_i_glide_metal>  (279) 
-0

>  <r_i_glide_rewards>  (279) 
-1.51908

>  <r_i_glide_evdw>  (279) 
-27.6589

>  <r_i_glide_ecoul>  (279) 
-6.69862

>  <r_i_glide_erotb>  (279) 
0.739885

>  <r_i_glide_esite>  (279) 
-0.0773235

>  <r_i_glide_emodel>  (279) 
-42.3948

>  <r_i_glide_energy>  (279) 
-34.3576

>  <r_i_glide_einternal>  (279) 
4.34097

>  <r_i_glide_intrahb_reward>  (279) 
-0

>  <i_i_glide_confnum>  (279) 
2

>  <i_i_glide_posenum>  (279) 
22

>  <r_i_glide_eff_state_penalty>  (279) 
0

>  <ligand_id>  (279) 
73

>  <original_smiles>  (279) 
CN1C2CCC1CC(OC(=O)C=Cc1cccc([N+](=O)[O-])c1)C2

>  <smiles>  (279) 
[H]C(C(=O)OC1([H])C([H])([H])C2([H])C([H])([H])C([H])([H])C([H])(C1([H])[H])[N+]2([H])C([H])([H])[H])=C([H])c1c([H])c([H])c([H])c([N+](=O)[O-])c1[H]

$$$$
73:0:1
     RDKit          3D

 44 46  0  0  1  0  0  0  0  0999 V2000
    2.1509   -9.6116    6.8411 C   0  0  0  0  0  0  0  0  0  0  0  0
    1.9157  -10.5096    5.6778 N   0  0  2  0  0  0  0  0  0  0  0  0
    2.9984  -10.6431    4.6870 C   0  0  1  0  0  0  0  0  0  0  0  0
    2.3760  -11.6036    3.6612 C   0  0  0  0  0  0  0  0  0  0  0  0
    0.8529  -11.3457    3.7701 C   0  0  0  0  0  0  0  0  0  0  0  0
    0.7215  -10.2533    4.8510 C   0  0  2  0  0  0  0  0  0  0  0  0
    0.7857   -8.8319    4.2258 C   0  0  0  0  0  0  0  0  0  0  0  0
    2.0615   -8.6551    3.3644 C   0  0  1  0  0  0  0  0  0  0  0  0
    2.3622   -7.2991    3.0618 O   0  0  0  0  0  0  0  0  0  0  0  0
    1.8476   -6.6949    1.9733 C   0  0  0  0  0  0  0  0  0  0  0  0
    0.7384   -6.9337    1.4897 O   0  0  0  0  0  0  0  0  0  0  0  0
    2.8104   -5.7292    1.4256 C   0  0  0  0  0  0  0  0  0  0  0  0
    2.5597   -5.0139    0.3122 C   0  0  0  0  0  0  0  0  0  0  0  0
    3.4876   -4.0615   -0.3209 C   0  0  0  0  0  0  0  0  0  0  0  0
    2.9671   -3.1148   -1.2260 C   0  0  0  0  0  0  0  0  0  0  0  0
    3.8040   -2.1677   -1.8397 C   0  0  0  0  0  0  0  0  0  0  0  0
    5.1787   -2.1637   -1.5532 C   0  0  0  0  0  0  0  0  0  0  0  0
    5.7285   -3.1026   -0.6531 C   0  0  0  0  0  0  0  0  0  0  0  0
    7.1764   -3.0987   -0.3614 N   0  0  0  0  0  0  0  0  0  0  0  0
    7.6167   -3.9259    0.4321 O   0  0  0  0  0  0  0  0  0  0  0  0
    7.8674   -2.2601   -0.9264 O   0  0  0  0  0  0  0  0  0  0  0  0
    4.8712   -4.0462   -0.0365 C   0  0  0  0  0  0  0  0  0  0  0  0
    3.3098   -9.2658    4.0480 C   0  0  0  0  0  0  0  0  0  0  0  0
    2.3286   -8.5707    6.5746 H   0  0  0  0  0  0  0  0  0  0  0  0
    3.0102   -9.9580    7.4133 H   0  0  0  0  0  0  0  0  0  0  0  0
    1.2889   -9.6352    7.5058 H   0  0  0  0  0  0  0  0  0  0  0  0
    3.8914  -11.0684    5.1473 H   0  0  0  0  0  0  0  0  0  0  0  0
    2.7638  -11.4526    2.6503 H   0  0  0  0  0  0  0  0  0  0  0  0
    2.6078  -12.6298    3.9494 H   0  0  0  0  0  0  0  0  0  0  0  0
    0.4036  -11.0505    2.8188 H   0  0  0  0  0  0  0  0  0  0  0  0
    0.3469  -12.2538    4.0989 H   0  0  0  0  0  0  0  0  0  0  0  0
   -0.1802  -10.3700    5.4552 H   0  0  0  0  0  0  0  0  0  0  0  0
   -0.0997   -8.6610    3.6123 H   0  0  0  0  0  0  0  0  0  0  0  0
    0.7483   -8.0768    5.0090 H   0  0  0  0  0  0  0  0  0  0  0  0
    1.9113   -9.1887    2.4241 H   0  0  0  0  0  0  0  0  0  0  0  0
    3.7460   -5.6210    1.9513 H   0  0  0  0  0  0  0  0  0  0  0  0
    1.6198   -5.1512   -0.1981 H   0  0  0  0  0  0  0  0  0  0  0  0
    1.9126   -3.1021   -1.4507 H   0  0  0  0  0  0  0  0  0  0  0  0
    3.3780   -1.4424   -2.5196 H   0  0  0  0  0  0  0  0  0  0  0  0
    5.8038   -1.4276   -2.0352 H   0  0  0  0  0  0  0  0  0  0  0  0
    5.2915   -4.7711    0.6450 H   0  0  0  0  0  0  0  0  0  0  0  0
    3.7028   -8.5796    4.8004 H   0  0  0  0  0  0  0  0  0  0  0  0
    4.1101   -9.3655    3.3139 H   0  0  0  0  0  0  0  0  0  0  0  0
    1.7785  -11.4301    6.0985 H   0  0  0  0  0  0  0  0  0  0  0  0
  1  2  1  0
  1 24  1  0
  1 25  1  0
  1 26  1  0
  2  6  1  0
  2  3  1  0
  2 44  1  1
  3 23  1  0
  3  4  1  0
  3 27  1  1
  4  5  1  0
  4 28  1  0
  4 29  1  0
  5  6  1  0
  5 30  1  0
  5 31  1  0
  6  7  1  0
  6 32  1  1
  7  8  1  0
  7 33  1  0
  7 34  1  0
  8  9  1  0
  8 23  1  0
  8 35  1  6
  9 10  1  0
 10 11  2  0
 10 12  1  0
 12 13  2  3
 12 36  1  0
 13 14  1  0
 13 37  1  0
 14 22  1  0
 14 15  2  0
 15 16  1  0
 15 38  1  0
 16 17  2  0
 16 39  1  0
 17 18  1  0
 17 40  1  0
 18 19  1  0
 18 22  2  0
 19 20  2  0
 19 21  1  0
 22 41  1  0
 23 42  1  0
 23 43  1  0
M  CHG  3   2   1  19   1  21  -1
M  END
>  <i_m_ct_stereo_status>  (280) 
1

>  <s_m_source_file>  (280) 
/var/tmp/pbs.5076255.sched01/tmppdndq9e4/92von5zo7h.sdf

>  <i_m_source_file_index>  (280) 
26

>  <i_lp_mmshare_version>  (280) 
48012

>  <i_f3d_flags>  (280) 
0

>  <s_epik_input>  (280) 
W0NIM11OKFtDQEBIXTEyKVtDQEhdKFtDSDJdW0NIMl0xKVtDSDJdW0NASF0oW0NIMl0yKU9DKD1PKS9bQ0hdPVtDSF0vYzNbY0hdW2NIXVtjSF1jKFtOK10oPU8pW08tXSlbY0hdMw==

>  <s_epik_cmdline>  (280) 
J2VwaWtfcHl0aG9uJywgJy1waHQnLCAnMi4wJywgJy1waCcsICc3LjAnLCAnLXRuJywgJzgnLCAnLW1hJywgJzIwMCcsICctaW1hZScsICc8aW5maWxlLm1hZT4nLCAnLW9tYWUnLCAnPG91dGZpbGUubWFlPic=

>  <r_epik_Ionization_Penalty>  (280) 
0.0064655

>  <r_epik_Ionization_Penalty_Charging>  (280) 
0.0064655

>  <r_epik_Ionization_Penalty_Neutral>  (280) 
0

>  <r_epik_State_Penalty>  (280) 
0.00478368

>  <r_epik_Charging_Adjusted_Penalty>  (280) 
0.0112492

>  <i_epik_Tot_Q>  (280) 
1

>  <i_epik_Tot_abs_Q>  (280) 
3

>  <s_epik_Chemistry_Notes>  (280) 
This compound has an ester and may undergo hydrolysis at high or low pH.

>  <s_lp_Force_Field>  (280) 
OPLS3e

>  <r_lp_Energy>  (280) 
38.9274

>  <b_lp_Chiralities_Consistent>  (280) 
1

>  <s_lp_Variant>  (280) 
73:0-1

>  <s_i_glide_gridfile>  (280) 
pfpi4k_grid

>  <i_i_glide_lignum>  (280) 
26

>  <i_i_glide_rotatable_bonds>  (280) 
5

>  <r_i_docking_score>  (280) 
-3.49627

>  <r_i_glide_ligand_efficiency>  (280) 
-0.152012

>  <r_i_glide_ligand_efficiency_sa>  (280) 
-0.432302

>  <r_i_glide_ligand_efficiency_ln>  (280) 
-0.845431

>  <r_i_glide_gscore>  (280) 
-3.49627

>  <r_i_glide_lipo>  (280) 
-0.229354

>  <r_i_glide_hbond>  (280) 
-0.183465

>  <r_i_glide_metal>  (280) 
-0

>  <r_i_glide_rewards>  (280) 
-1.38464

>  <r_i_glide_evdw>  (280) 
-24.7159

>  <r_i_glide_ecoul>  (280) 
-6.71677

>  <r_i_glide_erotb>  (280) 
0.739885

>  <r_i_glide_esite>  (280) 
-0.195391

>  <r_i_glide_emodel>  (280) 
-39.1656

>  <r_i_glide_energy>  (280) 
-31.4327

>  <r_i_glide_einternal>  (280) 
4.7047

>  <r_i_glide_intrahb_reward>  (280) 
-0

>  <i_i_glide_confnum>  (280) 
4

>  <i_i_glide_posenum>  (280) 
7

>  <r_i_glide_eff_state_penalty>  (280) 
0

>  <ligand_id>  (280) 
73

>  <original_smiles>  (280) 
CN1C2CCC1CC(OC(=O)C=Cc1cccc([N+](=O)[O-])c1)C2

>  <smiles>  (280) 
[H]C(C(=O)OC1([H])C([H])([H])C2([H])C([H])([H])C([H])([H])C([H])(C1([H])[H])[N+]2([H])C([H])([H])[H])=C([H])c1c([H])c([H])c([H])c([N+](=O)[O-])c1[H]

$$$$
73:0:2
     RDKit          3D

 44 46  0  0  1  0  0  0  0  0999 V2000
    1.9541   -8.9093    5.7559 C   0  0  0  0  0  0  0  0  0  0  0  0
    1.9006  -10.1813    4.9825 N   0  0  2  0  0  0  0  0  0  0  0  0
    3.0362  -10.4842    4.0958 C   0  0  1  0  0  0  0  0  0  0  0  0
    2.5994  -11.8177    3.4661 C   0  0  0  0  0  0  0  0  0  0  0  0
    1.0527  -11.7672    3.4801 C   0  0  0  0  0  0  0  0  0  0  0  0
    0.7252  -10.4073    4.1195 C   0  0  2  0  0  0  0  0  0  0  0  0
    0.5959   -9.3001    3.0439 C   0  0  0  0  0  0  0  0  0  0  0  0
    1.8976   -9.1555    2.2069 C   0  0  1  0  0  0  0  0  0  0  0  0
    1.9608   -7.9567    1.4338 O   0  0  0  0  0  0  0  0  0  0  0  0
    2.0345   -6.7342    1.9981 C   0  0  0  0  0  0  0  0  0  0  0  0
    1.7762   -6.4855    3.1758 O   0  0  0  0  0  0  0  0  0  0  0  0
    2.4871   -5.7245    1.0312 C   0  0  0  0  0  0  0  0  0  0  0  0
    2.7883   -4.4848    1.4529 C   0  0  0  0  0  0  0  0  0  0  0  0
    3.2473   -3.3776    0.6127 C   0  0  0  0  0  0  0  0  0  0  0  0
    3.8752   -2.2781    1.2224 C   0  0  0  0  0  0  0  0  0  0  0  0
    4.3607   -1.2168    0.4414 C   0  0  0  0  0  0  0  0  0  0  0  0
    4.2273   -1.2606   -0.9585 C   0  0  0  0  0  0  0  0  0  0  0  0
    3.6064   -2.3584   -1.5896 C   0  0  0  0  0  0  0  0  0  0  0  0
    3.4584   -2.3995   -3.0559 N   0  0  0  0  0  0  0  0  0  0  0  0
    2.5974   -3.1274   -3.5359 O   0  0  0  0  0  0  0  0  0  0  0  0
    4.2126   -1.7058   -3.7325 O   0  0  0  0  0  0  0  0  0  0  0  0
    3.1229   -3.4139   -0.7925 C   0  0  0  0  0  0  0  0  0  0  0  0
    3.2018   -9.3771    3.0243 C   0  0  0  0  0  0  0  0  0  0  0  0
    2.0032   -8.0181    5.1376 H   0  0  0  0  0  0  0  0  0  0  0  0
    2.8289   -8.8911    6.4049 H   0  0  0  0  0  0  0  0  0  0  0  0
    1.0736   -8.8071    6.3884 H   0  0  0  0  0  0  0  0  0  0  0  0
    3.9616  -10.5920    4.6634 H   0  0  0  0  0  0  0  0  0  0  0  0
    3.0168  -11.9574    2.4698 H   0  0  0  0  0  0  0  0  0  0  0  0
    2.9546  -12.6469    4.0779 H   0  0  0  0  0  0  0  0  0  0  0  0
    0.6096  -11.8720    2.4894 H   0  0  0  0  0  0  0  0  0  0  0  0
    0.6520  -12.5671    4.1038 H   0  0  0  0  0  0  0  0  0  0  0  0
   -0.1787  -10.4441    4.7223 H   0  0  0  0  0  0  0  0  0  0  0  0
   -0.2420   -9.5149    2.3740 H   0  0  0  0  0  0  0  0  0  0  0  0
    0.3328   -8.3779    3.5586 H   0  0  0  0  0  0  0  0  0  0  0  0
    1.8764   -9.9566    1.4677 H   0  0  0  0  0  0  0  0  0  0  0  0
    2.5776   -6.0115   -0.0087 H   0  0  0  0  0  0  0  0  0  0  0  0
    2.6847   -4.2501    2.5044 H   0  0  0  0  0  0  0  0  0  0  0  0
    3.9856   -2.2451    2.2986 H   0  0  0  0  0  0  0  0  0  0  0  0
    4.8277   -0.3681    0.9176 H   0  0  0  0  0  0  0  0  0  0  0  0
    4.5877   -0.4349   -1.5464 H   0  0  0  0  0  0  0  0  0  0  0  0
    2.6423   -4.2460   -1.2749 H   0  0  0  0  0  0  0  0  0  0  0  0
    3.5165   -8.4584    3.5188 H   0  0  0  0  0  0  0  0  0  0  0  0
    4.0220   -9.6246    2.3445 H   0  0  0  0  0  0  0  0  0  0  0  0
    1.8738  -10.9286    5.6636 H   0  0  0  0  0  0  0  0  0  0  0  0
  1  2  1  0
  1 24  1  0
  1 25  1  0
  1 26  1  0
  2  6  1  0
  2  3  1  0
  2 44  1  1
  3 23  1  0
  3  4  1  0
  3 27  1  1
  4  5  1  0
  4 28  1  0
  4 29  1  0
  5  6  1  0
  5 30  1  0
  5 31  1  0
  6  7  1  0
  6 32  1  1
  7  8  1  0
  7 33  1  0
  7 34  1  0
  8  9  1  0
  8 23  1  0
  8 35  1  6
  9 10  1  0
 10 11  2  0
 10 12  1  0
 12 13  2  3
 12 36  1  0
 13 14  1  0
 13 37  1  0
 14 22  1  0
 14 15  2  0
 15 16  1  0
 15 38  1  0
 16 17  2  0
 16 39  1  0
 17 18  1  0
 17 40  1  0
 18 19  1  0
 18 22  2  0
 19 20  2  0
 19 21  1  0
 22 41  1  0
 23 42  1  0
 23 43  1  0
M  CHG  3   2   1  19   1  21  -1
M  END
>  <i_m_ct_stereo_status>  (281) 
1

>  <s_m_source_file>  (281) 
/var/tmp/pbs.5076255.sched01/tmppdndq9e4/92von5zo7h.sdf

>  <i_m_source_file_index>  (281) 
26

>  <i_lp_mmshare_version>  (281) 
48012

>  <i_f3d_flags>  (281) 
0

>  <s_epik_input>  (281) 
W0NIM11OKFtDQEBIXTEyKVtDQEhdKFtDSDJdW0NIMl0xKVtDSDJdW0NASF0oW0NIMl0yKU9DKD1PKS9bQ0hdPVtDSF0vYzNbY0hdW2NIXVtjSF1jKFtOK10oPU8pW08tXSlbY0hdMw==

>  <s_epik_cmdline>  (281) 
J2VwaWtfcHl0aG9uJywgJy1waHQnLCAnMi4wJywgJy1waCcsICc3LjAnLCAnLXRuJywgJzgnLCAnLW1hJywgJzIwMCcsICctaW1hZScsICc8aW5maWxlLm1hZT4nLCAnLW9tYWUnLCAnPG91dGZpbGUubWFlPic=

>  <r_epik_Ionization_Penalty>  (281) 
0.0064655

>  <r_epik_Ionization_Penalty_Charging>  (281) 
0.0064655

>  <r_epik_Ionization_Penalty_Neutral>  (281) 
0

>  <r_epik_State_Penalty>  (281) 
0.00478368

>  <r_epik_Charging_Adjusted_Penalty>  (281) 
0.0112492

>  <i_epik_Tot_Q>  (281) 
1

>  <i_epik_Tot_abs_Q>  (281) 
3

>  <s_epik_Chemistry_Notes>  (281) 
This compound has an ester and may undergo hydrolysis at high or low pH.

>  <s_lp_Force_Field>  (281) 
OPLS3e

>  <r_lp_Energy>  (281) 
38.9274

>  <b_lp_Chiralities_Consistent>  (281) 
1

>  <s_lp_Variant>  (281) 
73:0-1

>  <s_i_glide_gridfile>  (281) 
pfpi4k_grid

>  <i_i_glide_lignum>  (281) 
26

>  <i_i_glide_rotatable_bonds>  (281) 
5

>  <r_i_docking_score>  (281) 
-3.05833

>  <r_i_glide_ligand_efficiency>  (281) 
-0.132971

>  <r_i_glide_ligand_efficiency_sa>  (281) 
-0.378152

>  <r_i_glide_ligand_efficiency_ln>  (281) 
-0.739532

>  <r_i_glide_gscore>  (281) 
-3.05833

>  <r_i_glide_lipo>  (281) 
-0.191437

>  <r_i_glide_hbond>  (281) 
0

>  <r_i_glide_metal>  (281) 
-0

>  <r_i_glide_rewards>  (281) 
-1.34821

>  <r_i_glide_evdw>  (281) 
-27.9601

>  <r_i_glide_ecoul>  (281) 
-5.32821

>  <r_i_glide_erotb>  (281) 
0.739885

>  <r_i_glide_esite>  (281) 
-0.061336

>  <r_i_glide_emodel>  (281) 
-39.5028

>  <r_i_glide_energy>  (281) 
-33.2883

>  <r_i_glide_einternal>  (281) 
5.01489

>  <r_i_glide_intrahb_reward>  (281) 
-0

>  <i_i_glide_confnum>  (281) 
4

>  <i_i_glide_posenum>  (281) 
3

>  <r_i_glide_eff_state_penalty>  (281) 
0

>  <ligand_id>  (281) 
73

>  <original_smiles>  (281) 
CN1C2CCC1CC(OC(=O)C=Cc1cccc([N+](=O)[O-])c1)C2

>  <smiles>  (281) 
[H]C(C(=O)OC1([H])C([H])([H])C2([H])C([H])([H])C([H])([H])C([H])(C1([H])[H])[N+]2([H])C([H])([H])[H])=C([H])c1c([H])c([H])c([H])c([N+](=O)[O-])c1[H]

$$$$
73:1:0
     RDKit          3D

 44 46  0  0  1  0  0  0  0  0999 V2000
    1.1608  -11.7207    3.5747 C   0  0  0  0  0  0  0  0  0  0  0  0
    0.3947  -10.5415    4.0728 N   0  0  2  0  0  0  0  0  0  0  0  0
   -0.1672   -9.6255    3.0701 C   0  0  1  0  0  0  0  0  0  0  0  0
   -0.8292   -8.5583    3.9650 C   0  0  0  0  0  0  0  0  0  0  0  0
    0.0081   -8.5714    5.2600 C   0  0  0  0  0  0  0  0  0  0  0  0
    1.0853   -9.6446    5.0112 C   0  0  2  0  0  0  0  0  0  0  0  0
    2.3489   -9.0323    4.3575 C   0  0  0  0  0  0  0  0  0  0  0  0
    1.9984   -8.2672    3.0694 C   0  0  1  0  0  0  0  0  0  0  0  0
    3.1895   -8.0123    2.3327 O   0  0  0  0  0  0  0  0  0  0  0  0
    3.2762   -6.9060    1.5531 C   0  0  0  0  0  0  0  0  0  0  0  0
    2.3617   -6.1151    1.3952 O   0  0  0  0  0  0  0  0  0  0  0  0
    4.5957   -6.8399    0.8804 C   0  0  0  0  0  0  0  0  0  0  0  0
    5.0852   -5.7991    0.1507 C   0  0  0  0  0  0  0  0  0  0  0  0
    4.5370   -4.4520   -0.0795 C   0  0  0  0  0  0  0  0  0  0  0  0
    3.9297   -3.7348    0.9617 C   0  0  0  0  0  0  0  0  0  0  0  0
    3.3657   -2.4750    0.7366 C   0  0  0  0  0  0  0  0  0  0  0  0
    3.4584   -1.8861   -0.5389 C   0  0  0  0  0  0  0  0  0  0  0  0
    4.0820   -2.5697   -1.5937 C   0  0  0  0  0  0  0  0  0  0  0  0
    4.1707   -1.9424   -2.9262 N   0  0  0  0  0  0  0  0  0  0  0  0
    4.2680   -2.6649   -3.9168 O   0  0  0  0  0  0  0  0  0  0  0  0
    4.1634   -0.7099   -2.9849 O   0  0  0  0  0  0  0  0  0  0  0  0
    4.6207   -3.8596   -1.3617 C   0  0  0  0  0  0  0  0  0  0  0  0
    0.9578   -9.0112    2.2028 C   0  0  0  0  0  0  0  0  0  0  0  0
    2.0475  -11.4576    2.9938 H   0  0  0  0  0  0  0  0  0  0  0  0
    0.5413  -12.3415    2.9322 H   0  0  0  0  0  0  0  0  0  0  0  0
    1.4954  -12.3288    4.4124 H   0  0  0  0  0  0  0  0  0  0  0  0
   -0.9018  -10.1338    2.4430 H   0  0  0  0  0  0  0  0  0  0  0  0
   -0.8556   -7.5723    3.4873 H   0  0  0  0  0  0  0  0  0  0  0  0
   -1.8586   -8.8351    4.1828 H   0  0  0  0  0  0  0  0  0  0  0  0
    0.4407   -7.5927    5.4966 H   0  0  0  0  0  0  0  0  0  0  0  0
   -0.6088   -8.8653    6.1055 H   0  0  0  0  0  0  0  0  0  0  0  0
    1.3497  -10.1707    5.9320 H   0  0  0  0  0  0  0  0  0  0  0  0
    2.8431   -8.3471    5.0533 H   0  0  0  0  0  0  0  0  0  0  0  0
    3.0813   -9.8053    4.1384 H   0  0  0  0  0  0  0  0  0  0  0  0
    1.5580   -7.3145    3.3808 H   0  0  0  0  0  0  0  0  0  0  0  0
    5.2215   -7.7116    0.9609 H   0  0  0  0  0  0  0  0  0  0  0  0
    6.0537   -5.9603   -0.3104 H   0  0  0  0  0  0  0  0  0  0  0  0
    3.8786   -4.1560    1.9609 H   0  0  0  0  0  0  0  0  0  0  0  0
    2.8545   -1.9594    1.5410 H   0  0  0  0  0  0  0  0  0  0  0  0
    3.0212   -0.9103   -0.6957 H   0  0  0  0  0  0  0  0  0  0  0  0
    5.0896   -4.3928   -2.1743 H   0  0  0  0  0  0  0  0  0  0  0  0
    1.4504   -9.7868    1.6197 H   0  0  0  0  0  0  0  0  0  0  0  0
    0.5330   -8.3184    1.4711 H   0  0  0  0  0  0  0  0  0  0  0  0
   -0.4081  -10.8942    4.5781 H   0  0  0  0  0  0  0  0  0  0  0  0
  1  2  1  0
  1 24  1  0
  1 25  1  0
  1 26  1  0
  2  6  1  0
  2  3  1  0
  2 44  1  1
  3 23  1  0
  3  4  1  0
  3 27  1  6
  4  5  1  0
  4 28  1  0
  4 29  1  0
  5  6  1  0
  5 30  1  0
  5 31  1  0
  6  7  1  0
  6 32  1  1
  7  8  1  0
  7 33  1  0
  7 34  1  0
  8  9  1  0
  8 23  1  0
  8 35  1  1
  9 10  1  0
 10 11  2  0
 10 12  1  0
 12 13  2  3
 12 36  1  0
 13 14  1  0
 13 37  1  0
 14 22  1  0
 14 15  2  0
 15 16  1  0
 15 38  1  0
 16 17  2  0
 16 39  1  0
 17 18  1  0
 17 40  1  0
 18 19  1  0
 18 22  2  0
 19 20  2  0
 19 21  1  0
 22 41  1  0
 23 42  1  0
 23 43  1  0
M  CHG  3   2   1  19   1  21  -1
M  END
>  <i_m_ct_stereo_status>  (282) 
1

>  <s_m_source_file>  (282) 
/var/tmp/pbs.5076255.sched01/tmppdndq9e4/92von5zo7h.sdf

>  <i_m_source_file_index>  (282) 
27

>  <i_lp_mmshare_version>  (282) 
48012

>  <i_f3d_flags>  (282) 
0

>  <s_epik_input>  (282) 
W0NIM11OKFtDQEBIXTEyKVtDQEhdKFtDSDJdW0NIMl0xKVtDSDJdW0NASF0oW0NIMl0yKU9DKD1PKS9bQ0hdPVtDSF0vYzNbY0hdW2NIXVtjSF1jKFtOK10oPU8pW08tXSlbY0hdMw==

>  <s_epik_cmdline>  (282) 
J2VwaWtfcHl0aG9uJywgJy1waHQnLCAnMi4wJywgJy1waCcsICc3LjAnLCAnLXRuJywgJzgnLCAnLW1hJywgJzIwMCcsICctaW1hZScsICc8aW5maWxlLm1hZT4nLCAnLW9tYWUnLCAnPG91dGZpbGUubWFlPic=

>  <r_epik_Ionization_Penalty>  (282) 
0.0064655

>  <r_epik_Ionization_Penalty_Charging>  (282) 
0.0064655

>  <r_epik_Ionization_Penalty_Neutral>  (282) 
0

>  <r_epik_State_Penalty>  (282) 
0.00478368

>  <r_epik_Charging_Adjusted_Penalty>  (282) 
0.0112492

>  <i_epik_Tot_Q>  (282) 
1

>  <i_epik_Tot_abs_Q>  (282) 
3

>  <s_epik_Chemistry_Notes>  (282) 
This compound has an ester and may undergo hydrolysis at high or low pH.

>  <s_lp_Force_Field>  (282) 
OPLS3e

>  <r_lp_Energy>  (282) 
43.6282

>  <b_lp_Chiralities_Consistent>  (282) 
1

>  <s_lp_Variant>  (282) 
73:0-2

>  <s_i_glide_gridfile>  (282) 
pfpi4k_grid

>  <i_i_glide_lignum>  (282) 
27

>  <i_i_glide_rotatable_bonds>  (282) 
5

>  <r_i_docking_score>  (282) 
-3.58918

>  <r_i_glide_ligand_efficiency>  (282) 
-0.156051

>  <r_i_glide_ligand_efficiency_sa>  (282) 
-0.443789

>  <r_i_glide_ligand_efficiency_ln>  (282) 
-0.867896

>  <r_i_glide_gscore>  (282) 
-3.58918

>  <r_i_glide_lipo>  (282) 
-0.290039

>  <r_i_glide_hbond>  (282) 
-0.2

>  <r_i_glide_metal>  (282) 
-0

>  <r_i_glide_rewards>  (282) 
-1.41866

>  <r_i_glide_evdw>  (282) 
-27.4404

>  <r_i_glide_ecoul>  (282) 
-6.62072

>  <r_i_glide_erotb>  (282) 
0.739885

>  <r_i_glide_esite>  (282) 
-0.055239

>  <r_i_glide_emodel>  (282) 
-43.3909

>  <r_i_glide_energy>  (282) 
-34.0611

>  <r_i_glide_einternal>  (282) 
1.99915

>  <r_i_glide_intrahb_reward>  (282) 
-0

>  <i_i_glide_confnum>  (282) 
6

>  <i_i_glide_posenum>  (282) 
27

>  <r_i_glide_eff_state_penalty>  (282) 
0

>  <ligand_id>  (282) 
73

>  <original_smiles>  (282) 
CN1C2CCC1CC(OC(=O)C=Cc1cccc([N+](=O)[O-])c1)C2

>  <smiles>  (282) 
[H]C(C(=O)OC1([H])C([H])([H])C2([H])C([H])([H])C([H])([H])C([H])(C1([H])[H])[N+]2([H])C([H])([H])[H])=C([H])c1c([H])c([H])c([H])c([N+](=O)[O-])c1[H]

$$$$
73:1:1
     RDKit          3D

 44 46  0  0  1  0  0  0  0  0999 V2000
    1.8624  -10.9460    5.0215 C   0  0  0  0  0  0  0  0  0  0  0  0
    0.7069  -10.2820    4.3742 N   0  0  2  0  0  0  0  0  0  0  0  0
    0.5888  -10.4195    2.9136 C   0  0  1  0  0  0  0  0  0  0  0  0
   -0.6788   -9.5856    2.6462 C   0  0  0  0  0  0  0  0  0  0  0  0
   -0.7045   -8.5264    3.7614 C   0  0  0  0  0  0  0  0  0  0  0  0
    0.5490   -8.8342    4.5959 C   0  0  2  0  0  0  0  0  0  0  0  0
    1.7854   -8.0595    4.0678 C   0  0  0  0  0  0  0  0  0  0  0  0
    2.0276   -8.3461    2.5719 C   0  0  1  0  0  0  0  0  0  0  0  0
    3.3278   -7.9290    2.1746 O   0  0  0  0  0  0  0  0  0  0  0  0
    3.5045   -6.7558    1.5261 C   0  0  0  0  0  0  0  0  0  0  0  0
    2.6087   -5.9462    1.3185 O   0  0  0  0  0  0  0  0  0  0  0  0
    4.8970   -6.6155    1.0468 C   0  0  0  0  0  0  0  0  0  0  0  0
    5.4410   -5.5375    0.4329 C   0  0  0  0  0  0  0  0  0  0  0  0
    4.8920   -4.1945    0.1611 C   0  0  0  0  0  0  0  0  0  0  0  0
    5.2204   -3.5444   -1.0463 C   0  0  0  0  0  0  0  0  0  0  0  0
    4.6934   -2.2759   -1.3470 C   0  0  0  0  0  0  0  0  0  0  0  0
    3.8162   -1.6465   -0.4422 C   0  0  0  0  0  0  0  0  0  0  0  0
    3.4791   -2.2818    0.7717 C   0  0  0  0  0  0  0  0  0  0  0  0
    2.5466   -1.6452    1.7225 N   0  0  0  0  0  0  0  0  0  0  0  0
    1.9585   -2.3722    2.5234 O   0  0  0  0  0  0  0  0  0  0  0  0
    2.4059   -0.4272    1.6814 O   0  0  0  0  0  0  0  0  0  0  0  0
    4.0426   -3.5359    1.0726 C   0  0  0  0  0  0  0  0  0  0  0  0
    1.8432   -9.8276    2.2115 C   0  0  0  0  0  0  0  0  0  0  0  0
    2.8287  -10.5765    4.6773 H   0  0  0  0  0  0  0  0  0  0  0  0
    1.8343  -12.0211    4.8433 H   0  0  0  0  0  0  0  0  0  0  0  0
    1.8236  -10.7758    6.0912 H   0  0  0  0  0  0  0  0  0  0  0  0
    0.4539  -11.4624    2.6252 H   0  0  0  0  0  0  0  0  0  0  0  0
   -0.6664   -9.1061    1.6783 H   0  0  0  0  0  0  0  0  0  0  0  0
   -1.5688  -10.2126    2.6853 H   0  0  0  0  0  0  0  0  0  0  0  0
   -0.7015   -7.5096    3.3619 H   0  0  0  0  0  0  0  0  0  0  0  0
   -1.6072   -8.6414    4.3594 H   0  0  0  0  0  0  0  0  0  0  0  0
    0.3850   -8.6144    5.6493 H   0  0  0  0  0  0  0  0  0  0  0  0
    1.6502   -6.9847    4.2128 H   0  0  0  0  0  0  0  0  0  0  0  0
    2.6736   -8.3189    4.6397 H   0  0  0  0  0  0  0  0  0  0  0  0
    1.2763   -7.7995    1.9996 H   0  0  0  0  0  0  0  0  0  0  0  0
    5.5350   -7.4749    1.1826 H   0  0  0  0  0  0  0  0  0  0  0  0
    6.4670   -5.6632    0.1078 H   0  0  0  0  0  0  0  0  0  0  0  0
    5.8725   -4.0267   -1.7631 H   0  0  0  0  0  0  0  0  0  0  0  0
    4.9495   -1.7863   -2.2776 H   0  0  0  0  0  0  0  0  0  0  0  0
    3.3940   -0.6839   -0.6865 H   0  0  0  0  0  0  0  0  0  0  0  0
    3.8134   -4.0022    2.0182 H   0  0  0  0  0  0  0  0  0  0  0  0
    2.7354  -10.3934    2.4724 H   0  0  0  0  0  0  0  0  0  0  0  0
    1.7827   -9.8991    1.1248 H   0  0  0  0  0  0  0  0  0  0  0  0
   -0.1219  -10.7082    4.7671 H   0  0  0  0  0  0  0  0  0  0  0  0
  1  2  1  0
  1 24  1  0
  1 25  1  0
  1 26  1  0
  2  6  1  0
  2  3  1  0
  2 44  1  1
  3 23  1  0
  3  4  1  0
  3 27  1  1
  4  5  1  0
  4 28  1  0
  4 29  1  0
  5  6  1  0
  5 30  1  0
  5 31  1  0
  6  7  1  0
  6 32  1  1
  7  8  1  0
  7 33  1  0
  7 34  1  0
  8  9  1  0
  8 23  1  0
  8 35  1  6
  9 10  1  0
 10 11  2  0
 10 12  1  0
 12 13  2  3
 12 36  1  0
 13 14  1  0
 13 37  1  0
 14 22  1  0
 14 15  2  0
 15 16  1  0
 15 38  1  0
 16 17  2  0
 16 39  1  0
 17 18  1  0
 17 40  1  0
 18 19  1  0
 18 22  2  0
 19 20  2  0
 19 21  1  0
 22 41  1  0
 23 42  1  0
 23 43  1  0
M  CHG  3   2   1  19   1  21  -1
M  END
>  <i_m_ct_stereo_status>  (283) 
1

>  <s_m_source_file>  (283) 
/var/tmp/pbs.5076255.sched01/tmppdndq9e4/92von5zo7h.sdf

>  <i_m_source_file_index>  (283) 
27

>  <i_lp_mmshare_version>  (283) 
48012

>  <i_f3d_flags>  (283) 
0

>  <s_epik_input>  (283) 
W0NIM11OKFtDQEBIXTEyKVtDQEhdKFtDSDJdW0NIMl0xKVtDSDJdW0NASF0oW0NIMl0yKU9DKD1PKS9bQ0hdPVtDSF0vYzNbY0hdW2NIXVtjSF1jKFtOK10oPU8pW08tXSlbY0hdMw==

>  <s_epik_cmdline>  (283) 
J2VwaWtfcHl0aG9uJywgJy1waHQnLCAnMi4wJywgJy1waCcsICc3LjAnLCAnLXRuJywgJzgnLCAnLW1hJywgJzIwMCcsICctaW1hZScsICc8aW5maWxlLm1hZT4nLCAnLW9tYWUnLCAnPG91dGZpbGUubWFlPic=

>  <r_epik_Ionization_Penalty>  (283) 
0.0064655

>  <r_epik_Ionization_Penalty_Charging>  (283) 
0.0064655

>  <r_epik_Ionization_Penalty_Neutral>  (283) 
0

>  <r_epik_State_Penalty>  (283) 
0.00478368

>  <r_epik_Charging_Adjusted_Penalty>  (283) 
0.0112492

>  <i_epik_Tot_Q>  (283) 
1

>  <i_epik_Tot_abs_Q>  (283) 
3

>  <s_epik_Chemistry_Notes>  (283) 
This compound has an ester and may undergo hydrolysis at high or low pH.

>  <s_lp_Force_Field>  (283) 
OPLS3e

>  <r_lp_Energy>  (283) 
43.6282

>  <b_lp_Chiralities_Consistent>  (283) 
1

>  <s_lp_Variant>  (283) 
73:0-2

>  <s_i_glide_gridfile>  (283) 
pfpi4k_grid

>  <i_i_glide_lignum>  (283) 
27

>  <i_i_glide_rotatable_bonds>  (283) 
5

>  <r_i_docking_score>  (283) 
-3.20443

>  <r_i_glide_ligand_efficiency>  (283) 
-0.139323

>  <r_i_glide_ligand_efficiency_sa>  (283) 
-0.396216

>  <r_i_glide_ligand_efficiency_ln>  (283) 
-0.77486

>  <r_i_glide_gscore>  (283) 
-3.20443

>  <r_i_glide_lipo>  (283) 
-0.565667

>  <r_i_glide_hbond>  (283) 
-0.157194

>  <r_i_glide_metal>  (283) 
-0

>  <r_i_glide_rewards>  (283) 
-1.32272

>  <r_i_glide_evdw>  (283) 
-23.8321

>  <r_i_glide_ecoul>  (283) 
-3.54521

>  <r_i_glide_erotb>  (283) 
0.739885

>  <r_i_glide_esite>  (283) 
-0.175345

>  <r_i_glide_emodel>  (283) 
-35.6387

>  <r_i_glide_energy>  (283) 
-27.3773

>  <r_i_glide_einternal>  (283) 
1.71022

>  <r_i_glide_intrahb_reward>  (283) 
-0

>  <i_i_glide_confnum>  (283) 
6

>  <i_i_glide_posenum>  (283) 
11

>  <r_i_glide_eff_state_penalty>  (283) 
0

>  <ligand_id>  (283) 
73

>  <original_smiles>  (283) 
CN1C2CCC1CC(OC(=O)C=Cc1cccc([N+](=O)[O-])c1)C2

>  <smiles>  (283) 
[H]C(C(=O)OC1([H])C([H])([H])C2([H])C([H])([H])C([H])([H])C([H])(C1([H])[H])[N+]2([H])C([H])([H])[H])=C([H])c1c([H])c([H])c([H])c([N+](=O)[O-])c1[H]

$$$$
73:1:2
     RDKit          3D

 44 46  0  0  1  0  0  0  0  0999 V2000
    1.3693  -10.5069    5.2537 C   0  0  0  0  0  0  0  0  0  0  0  0
    0.2108   -9.9833    4.4617 N   0  0  2  0  0  0  0  0  0  0  0  0
    0.2357  -10.2292    3.0115 C   0  0  1  0  0  0  0  0  0  0  0  0
   -1.0560   -9.5116    2.5640 C   0  0  0  0  0  0  0  0  0  0  0  0
   -1.2573   -8.3876    3.6010 C   0  0  0  0  0  0  0  0  0  0  0  0
   -0.0620   -8.5408    4.5596 C   0  0  2  0  0  0  0  0  0  0  0  0
    1.1513   -7.7079    4.0689 C   0  0  0  0  0  0  0  0  0  0  0  0
    1.5374   -8.0829    2.6217 C   0  0  1  0  0  0  0  0  0  0  0  0
    2.8297   -7.5877    2.3094 O   0  0  0  0  0  0  0  0  0  0  0  0
    2.9901   -6.3647    1.7553 C   0  0  0  0  0  0  0  0  0  0  0  0
    2.0433   -5.6115    1.4791 O   0  0  0  0  0  0  0  0  0  0  0  0
    4.3979   -6.0552    1.4834 C   0  0  0  0  0  0  0  0  0  0  0  0
    4.9435   -4.8536    1.1919 C   0  0  0  0  0  0  0  0  0  0  0  0
    4.3618   -3.4881    1.1768 C   0  0  0  0  0  0  0  0  0  0  0  0
    4.8876   -2.5248    0.2874 C   0  0  0  0  0  0  0  0  0  0  0  0
    4.3350   -1.2284    0.2253 C   0  0  0  0  0  0  0  0  0  0  0  0
    3.2338   -0.8970    1.0359 C   0  0  0  0  0  0  0  0  0  0  0  0
    2.6976   -1.8369    1.9346 C   0  0  0  0  0  0  0  0  0  0  0  0
    1.5193   -1.5254    2.7750 N   0  0  0  0  0  0  0  0  0  0  0  0
    1.0294   -2.4249    3.4388 O   0  0  0  0  0  0  0  0  0  0  0  0
    1.0789   -0.3807    2.7639 O   0  0  0  0  0  0  0  0  0  0  0  0
    3.3006   -3.1179    2.0284 C   0  0  0  0  0  0  0  0  0  0  0  0
    1.4897   -9.5954    2.3557 C   0  0  0  0  0  0  0  0  0  0  0  0
    2.3249  -10.0868    4.9577 H   0  0  0  0  0  0  0  0  0  0  0  0
    1.4352  -11.5852    5.1407 H   0  0  0  0  0  0  0  0  0  0  0  0
    1.2258  -10.2809    6.3053 H   0  0  0  0  0  0  0  0  0  0  0  0
    0.2269  -11.2956    2.7903 H   0  0  0  0  0  0  0  0  0  0  0  0
   -0.9971   -9.1144    1.5568 H   0  0  0  0  0  0  0  0  0  0  0  0
   -1.8913  -10.2061    2.5950 H   0  0  0  0  0  0  0  0  0  0  0  0
   -1.3024   -7.4029    3.1386 H   0  0  0  0  0  0  0  0  0  0  0  0
   -2.1892   -8.5417    4.1434 H   0  0  0  0  0  0  0  0  0  0  0  0
   -0.3257   -8.2622    5.5779 H   0  0  0  0  0  0  0  0  0  0  0  0
    0.9263   -6.6427    4.1250 H   0  0  0  0  0  0  0  0  0  0  0  0
    2.0066   -7.8548    4.7265 H   0  0  0  0  0  0  0  0  0  0  0  0
    0.8088   -7.6357    1.9471 H   0  0  0  0  0  0  0  0  0  0  0  0
    5.0729   -6.9009    1.5042 H   0  0  0  0  0  0  0  0  0  0  0  0
    5.9952   -4.8731    0.9588 H   0  0  0  0  0  0  0  0  0  0  0  0
    5.7198   -2.7767   -0.3570 H   0  0  0  0  0  0  0  0  0  0  0  0
    4.7500   -0.4893   -0.4501 H   0  0  0  0  0  0  0  0  0  0  0  0
    2.7989    0.0951    0.9614 H   0  0  0  0  0  0  0  0  0  0  0  0
    2.9334   -3.8170    2.7628 H   0  0  0  0  0  0  0  0  0  0  0  0
    2.3999  -10.0660    2.7235 H   0  0  0  0  0  0  0  0  0  0  0  0
    1.4930   -9.7666    1.2839 H   0  0  0  0  0  0  0  0  0  0  0  0
   -0.6219  -10.4452    4.8204 H   0  0  0  0  0  0  0  0  0  0  0  0
  1  2  1  0
  1 24  1  0
  1 25  1  0
  1 26  1  0
  2  6  1  0
  2  3  1  0
  2 44  1  1
  3 23  1  0
  3  4  1  0
  3 27  1  1
  4  5  1  0
  4 28  1  0
  4 29  1  0
  5  6  1  0
  5 30  1  0
  5 31  1  0
  6  7  1  0
  6 32  1  1
  7  8  1  0
  7 33  1  0
  7 34  1  0
  8  9  1  0
  8 23  1  0
  8 35  1  6
  9 10  1  0
 10 11  2  0
 10 12  1  0
 12 13  2  3
 12 36  1  0
 13 14  1  0
 13 37  1  0
 14 22  1  0
 14 15  2  0
 15 16  1  0
 15 38  1  0
 16 17  2  0
 16 39  1  0
 17 18  1  0
 17 40  1  0
 18 19  1  0
 18 22  2  0
 19 20  2  0
 19 21  1  0
 22 41  1  0
 23 42  1  0
 23 43  1  0
M  CHG  3   2   1  19   1  21  -1
M  END
>  <i_m_ct_stereo_status>  (284) 
1

>  <s_m_source_file>  (284) 
/var/tmp/pbs.5076255.sched01/tmppdndq9e4/92von5zo7h.sdf

>  <i_m_source_file_index>  (284) 
27

>  <i_lp_mmshare_version>  (284) 
48012

>  <i_f3d_flags>  (284) 
0

>  <s_epik_input>  (284) 
W0NIM11OKFtDQEBIXTEyKVtDQEhdKFtDSDJdW0NIMl0xKVtDSDJdW0NASF0oW0NIMl0yKU9DKD1PKS9bQ0hdPVtDSF0vYzNbY0hdW2NIXVtjSF1jKFtOK10oPU8pW08tXSlbY0hdMw==

>  <s_epik_cmdline>  (284) 
J2VwaWtfcHl0aG9uJywgJy1waHQnLCAnMi4wJywgJy1waCcsICc3LjAnLCAnLXRuJywgJzgnLCAnLW1hJywgJzIwMCcsICctaW1hZScsICc8aW5maWxlLm1hZT4nLCAnLW9tYWUnLCAnPG91dGZpbGUubWFlPic=

>  <r_epik_Ionization_Penalty>  (284) 
0.0064655

>  <r_epik_Ionization_Penalty_Charging>  (284) 
0.0064655

>  <r_epik_Ionization_Penalty_Neutral>  (284) 
0

>  <r_epik_State_Penalty>  (284) 
0.00478368

>  <r_epik_Charging_Adjusted_Penalty>  (284) 
0.0112492

>  <i_epik_Tot_Q>  (284) 
1

>  <i_epik_Tot_abs_Q>  (284) 
3

>  <s_epik_Chemistry_Notes>  (284) 
This compound has an ester and may undergo hydrolysis at high or low pH.

>  <s_lp_Force_Field>  (284) 
OPLS3e

>  <r_lp_Energy>  (284) 
43.6282

>  <b_lp_Chiralities_Consistent>  (284) 
1

>  <s_lp_Variant>  (284) 
73:0-2

>  <s_i_glide_gridfile>  (284) 
pfpi4k_grid

>  <i_i_glide_lignum>  (284) 
27

>  <i_i_glide_rotatable_bonds>  (284) 
5

>  <r_i_docking_score>  (284) 
-3.13597

>  <r_i_glide_ligand_efficiency>  (284) 
-0.136347

>  <r_i_glide_ligand_efficiency_sa>  (284) 
-0.387752

>  <r_i_glide_ligand_efficiency_ln>  (284) 
-0.758307

>  <r_i_glide_gscore>  (284) 
-3.13597

>  <r_i_glide_lipo>  (284) 
-0.379995

>  <r_i_glide_hbond>  (284) 
-0.2

>  <r_i_glide_metal>  (284) 
-0

>  <r_i_glide_rewards>  (284) 
-1.27436

>  <r_i_glide_evdw>  (284) 
-21.8954

>  <r_i_glide_ecoul>  (284) 
-5.29053

>  <r_i_glide_erotb>  (284) 
0.739885

>  <r_i_glide_esite>  (284) 
-0.133157

>  <r_i_glide_emodel>  (284) 
-35.6836

>  <r_i_glide_energy>  (284) 
-27.1859

>  <r_i_glide_einternal>  (284) 
0.908044

>  <r_i_glide_intrahb_reward>  (284) 
-0

>  <i_i_glide_confnum>  (284) 
6

>  <i_i_glide_posenum>  (284) 
25

>  <r_i_glide_eff_state_penalty>  (284) 
0

>  <ligand_id>  (284) 
73

>  <original_smiles>  (284) 
CN1C2CCC1CC(OC(=O)C=Cc1cccc([N+](=O)[O-])c1)C2

>  <smiles>  (284) 
[H]C(C(=O)OC1([H])C([H])([H])C2([H])C([H])([H])C([H])([H])C([H])(C1([H])[H])[N+]2([H])C([H])([H])[H])=C([H])c1c([H])c([H])c([H])c([N+](=O)[O-])c1[H]

$$$$
73:2:0
     RDKit          3D

 44 46  0  0  1  0  0  0  0  0999 V2000
    0.9514  -11.9283    4.3997 C   0  0  0  0  0  0  0  0  0  0  0  0
    1.7602  -11.1852    3.3858 N   0  0  2  0  0  0  0  0  0  0  0  0
    2.9148  -10.4176    3.8768 C   0  0  1  0  0  0  0  0  0  0  0  0
    3.4719   -9.8041    2.5744 C   0  0  0  0  0  0  0  0  0  0  0  0
    2.2242   -9.6643    1.6620 C   0  0  0  0  0  0  0  0  0  0  0  0
    1.0590  -10.2280    2.5152 C   0  0  2  0  0  0  0  0  0  0  0  0
    0.3871   -9.1093    3.3592 C   0  0  0  0  0  0  0  0  0  0  0  0
    1.3985   -8.3438    4.2628 C   0  0  2  0  0  0  0  0  0  0  0  0
    2.1280   -7.3427    3.5525 O   0  0  0  0  0  0  0  0  0  0  0  0
    1.5939   -6.1756    3.1988 C   0  0  0  0  0  0  0  0  0  0  0  0
    0.4158   -5.8511    3.4012 O   0  0  0  0  0  0  0  0  0  0  0  0
    2.5916   -5.3451    2.5105 C   0  0  0  0  0  0  0  0  0  0  0  0
    2.3666   -4.0494    2.2437 C   0  0  0  0  0  0  0  0  0  0  0  0
    3.3031   -3.1225    1.5879 C   0  0  0  0  0  0  0  0  0  0  0  0
    2.9419   -1.7632    1.4846 C   0  0  0  0  0  0  0  0  0  0  0  0
    3.8063   -0.8312    0.8787 C   0  0  0  0  0  0  0  0  0  0  0  0
    5.0488   -1.2533    0.3685 C   0  0  0  0  0  0  0  0  0  0  0  0
    5.4425   -2.6100    0.4653 C   0  0  0  0  0  0  0  0  0  0  0  0
    6.7458   -3.0553   -0.0704 N   0  0  0  0  0  0  0  0  0  0  0  0
    7.3978   -2.2574   -0.7299 O   0  0  0  0  0  0  0  0  0  0  0  0
    7.1080   -4.1994    0.1726 O   0  0  0  0  0  0  0  0  0  0  0  0
    4.5625   -3.5338    1.0822 C   0  0  0  0  0  0  0  0  0  0  0  0
    2.4499   -9.3119    4.8731 C   0  0  0  0  0  0  0  0  0  0  0  0
    0.4474  -11.3103    5.1329 H   0  0  0  0  0  0  0  0  0  0  0  0
    1.5800  -12.6306    4.9385 H   0  0  0  0  0  0  0  0  0  0  0  0
    0.2070  -12.5248    3.8958 H   0  0  0  0  0  0  0  0  0  0  0  0
    3.6421  -11.0751    4.3529 H   0  0  0  0  0  0  0  0  0  0  0  0
    4.0012   -8.8700    2.7428 H   0  0  0  0  0  0  0  0  0  0  0  0
    4.1894  -10.4851    2.1147 H   0  0  0  0  0  0  0  0  0  0  0  0
    2.0362   -8.6533    1.3081 H   0  0  0  0  0  0  0  0  0  0  0  0
    2.3796  -10.2474    0.7643 H   0  0  0  0  0  0  0  0  0  0  0  0
    0.3038  -10.7263    1.9053 H   0  0  0  0  0  0  0  0  0  0  0  0
   -0.1572   -8.4301    2.7070 H   0  0  0  0  0  0  0  0  0  0  0  0
   -0.3850   -9.5401    3.9964 H   0  0  0  0  0  0  0  0  0  0  0  0
    0.8691   -7.8417    5.0724 H   0  0  0  0  0  0  0  0  0  0  0  0
    3.5193   -5.8233    2.2387 H   0  0  0  0  0  0  0  0  0  0  0  0
    1.4172   -3.6258    2.5354 H   0  0  0  0  0  0  0  0  0  0  0  0
    1.9875   -1.4259    1.8635 H   0  0  0  0  0  0  0  0  0  0  0  0
    3.5059    0.2037    0.8005 H   0  0  0  0  0  0  0  0  0  0  0  0
    5.6918   -0.5239   -0.0969 H   0  0  0  0  0  0  0  0  0  0  0  0
    4.8637   -4.5657    1.1533 H   0  0  0  0  0  0  0  0  0  0  0  0
    2.0171   -9.7772    5.7597 H   0  0  0  0  0  0  0  0  0  0  0  0
    3.3070   -8.7516    5.2439 H   0  0  0  0  0  0  0  0  0  0  0  0
    2.1592  -11.8740    2.7604 H   0  0  0  0  0  0  0  0  0  0  0  0
  1  2  1  0
  1 24  1  0
  1 25  1  0
  1 26  1  0
  2  6  1  0
  2  3  1  0
  2 44  1  6
  3 23  1  0
  3  4  1  0
  3 27  1  1
  4  5  1  0
  4 28  1  0
  4 29  1  0
  5  6  1  0
  5 30  1  0
  5 31  1  0
  6  7  1  0
  6 32  1  6
  7  8  1  0
  7 33  1  0
  7 34  1  0
  8  9  1  0
  8 23  1  0
  8 35  1  1
  9 10  1  0
 10 11  2  0
 10 12  1  0
 12 13  2  3
 12 36  1  0
 13 14  1  0
 13 37  1  0
 14 22  1  0
 14 15  2  0
 15 16  1  0
 15 38  1  0
 16 17  2  0
 16 39  1  0
 17 18  1  0
 17 40  1  0
 18 19  1  0
 18 22  2  0
 19 20  2  0
 19 21  1  0
 22 41  1  0
 23 42  1  0
 23 43  1  0
M  CHG  3   2   1  19   1  21  -1
M  END
>  <i_m_ct_stereo_status>  (285) 
1

>  <s_m_source_file>  (285) 
/var/tmp/pbs.5076255.sched01/tmppdndq9e4/92von5zo7h.sdf

>  <i_m_source_file_index>  (285) 
28

>  <i_lp_mmshare_version>  (285) 
48012

>  <i_f3d_flags>  (285) 
0

>  <s_epik_input>  (285) 
W0NIM11OKFtDQEBIXTEyKVtDQEhdKFtDSDJdW0NIMl0xKVtDSDJdW0NASF0oW0NIMl0yKU9DKD1PKS9bQ0hdPVtDSF0vYzNbY0hdW2NIXVtjSF1jKFtOK10oPU8pW08tXSlbY0hdMw==

>  <s_epik_cmdline>  (285) 
J2VwaWtfcHl0aG9uJywgJy1waHQnLCAnMi4wJywgJy1waCcsICc3LjAnLCAnLXRuJywgJzgnLCAnLW1hJywgJzIwMCcsICctaW1hZScsICc8aW5maWxlLm1hZT4nLCAnLW9tYWUnLCAnPG91dGZpbGUubWFlPic=

>  <r_epik_Ionization_Penalty>  (285) 
0.0064655

>  <r_epik_Ionization_Penalty_Charging>  (285) 
0.0064655

>  <r_epik_Ionization_Penalty_Neutral>  (285) 
0

>  <r_epik_State_Penalty>  (285) 
0.00478368

>  <r_epik_Charging_Adjusted_Penalty>  (285) 
0.0112492

>  <i_epik_Tot_Q>  (285) 
1

>  <i_epik_Tot_abs_Q>  (285) 
3

>  <s_epik_Chemistry_Notes>  (285) 
This compound has an ester and may undergo hydrolysis at high or low pH.

>  <s_lp_Force_Field>  (285) 
OPLS3e

>  <r_lp_Energy>  (285) 
39.8095

>  <b_lp_Chiralities_Consistent>  (285) 
1

>  <s_lp_Variant>  (285) 
73:0-3

>  <s_i_glide_gridfile>  (285) 
pfpi4k_grid

>  <i_i_glide_lignum>  (285) 
28

>  <i_i_glide_rotatable_bonds>  (285) 
5

>  <r_i_docking_score>  (285) 
-3.26627

>  <r_i_glide_ligand_efficiency>  (285) 
-0.142012

>  <r_i_glide_ligand_efficiency_sa>  (285) 
-0.403863

>  <r_i_glide_ligand_efficiency_ln>  (285) 
-0.789814

>  <r_i_glide_gscore>  (285) 
-3.26627

>  <r_i_glide_lipo>  (285) 
-0.371583

>  <r_i_glide_hbond>  (285) 
-0.0421448

>  <r_i_glide_metal>  (285) 
-0

>  <r_i_glide_rewards>  (285) 
-1.36447

>  <r_i_glide_evdw>  (285) 
-22.2839

>  <r_i_glide_ecoul>  (285) 
-6.87615

>  <r_i_glide_erotb>  (285) 
0.739885

>  <r_i_glide_esite>  (285) 
-0.0823426

>  <r_i_glide_emodel>  (285) 
-37.5271

>  <r_i_glide_energy>  (285) 
-29.1601

>  <r_i_glide_einternal>  (285) 
0.760515

>  <r_i_glide_intrahb_reward>  (285) 
-0

>  <i_i_glide_confnum>  (285) 
6

>  <i_i_glide_posenum>  (285) 
36

>  <r_i_glide_eff_state_penalty>  (285) 
0

>  <ligand_id>  (285) 
73

>  <original_smiles>  (285) 
CN1C2CCC1CC(OC(=O)C=Cc1cccc([N+](=O)[O-])c1)C2

>  <smiles>  (285) 
[H]C(C(=O)OC1([H])C([H])([H])C2([H])C([H])([H])C([H])([H])C([H])(C1([H])[H])[N+]2([H])C([H])([H])[H])=C([H])c1c([H])c([H])c([H])c([N+](=O)[O-])c1[H]

$$$$
73:2:1
     RDKit          3D

 44 46  0  0  1  0  0  0  0  0999 V2000
    0.9747  -11.8842    4.3193 C   0  0  0  0  0  0  0  0  0  0  0  0
    1.7261  -11.0343    3.3440 N   0  0  2  0  0  0  0  0  0  0  0  0
    2.7975  -10.1782    3.8757 C   0  0  1  0  0  0  0  0  0  0  0  0
    3.3094   -9.4639    2.6017 C   0  0  0  0  0  0  0  0  0  0  0  0
    2.0661   -9.4151    1.6760 C   0  0  0  0  0  0  0  0  0  0  0  0
    0.9516  -10.1164    2.4943 C   0  0  2  0  0  0  0  0  0  0  0  0
    0.1647   -9.0907    3.3680 C   0  0  0  0  0  0  0  0  0  0  0  0
    1.0883   -8.2691    4.3152 C   0  0  2  0  0  0  0  0  0  0  0  0
    1.7181   -7.1918    3.6155 O   0  0  0  0  0  0  0  0  0  0  0  0
    1.2379   -5.9633    3.5692 C   0  0  0  0  0  0  0  0  0  0  0  0
    0.1933   -5.6015    4.1309 O   0  0  0  0  0  0  0  0  0  0  0  0
    2.0995   -5.1019    2.7528 C   0  0  0  0  0  0  0  0  0  0  0  0
    1.9108   -3.7751    2.6972 C   0  0  0  0  0  0  0  0  0  0  0  0
    2.7064   -2.8136    1.9166 C   0  0  0  0  0  0  0  0  0  0  0  0
    2.5296   -1.4336    2.1641 C   0  0  0  0  0  0  0  0  0  0  0  0
    3.2871   -0.4715    1.4618 C   0  0  0  0  0  0  0  0  0  0  0  0
    4.2380   -0.8843    0.5048 C   0  0  0  0  0  0  0  0  0  0  0  0
    4.4403   -2.2623    0.2433 C   0  0  0  0  0  0  0  0  0  0  0  0
    5.4373   -2.6910   -0.7618 N   0  0  0  0  0  0  0  0  0  0  0  0
    6.2136   -1.8557   -1.2001 O   0  0  0  0  0  0  0  0  0  0  0  0
    5.4359   -3.8712   -1.0917 O   0  0  0  0  0  0  0  0  0  0  0  0
    3.6770   -3.2169    0.9609 C   0  0  0  0  0  0  0  0  0  0  0  0
    2.2214   -9.1560    4.9055 C   0  0  0  0  0  0  0  0  0  0  0  0
    0.4145  -11.3354    5.0624 H   0  0  0  0  0  0  0  0  0  0  0  0
    1.6572  -12.5345    4.8561 H   0  0  0  0  0  0  0  0  0  0  0  0
    0.2718  -12.5183    3.7913 H   0  0  0  0  0  0  0  0  0  0  0  0
    3.5838  -10.7748    4.3409 H   0  0  0  0  0  0  0  0  0  0  0  0
    3.7435   -8.4871    2.8123 H   0  0  0  0  0  0  0  0  0  0  0  0
    4.0971  -10.0531    2.1328 H   0  0  0  0  0  0  0  0  0  0  0  0
    1.7850   -8.4140    1.3543 H   0  0  0  0  0  0  0  0  0  0  0  0
    2.2762   -9.9630    0.7617 H   0  0  0  0  0  0  0  0  0  0  0  0
    0.2577  -10.6663    1.8569 H   0  0  0  0  0  0  0  0  0  0  0  0
   -0.4253   -8.4232    2.7423 H   0  0  0  0  0  0  0  0  0  0  0  0
   -0.5750   -9.6131    3.9780 H   0  0  0  0  0  0  0  0  0  0  0  0
    0.5035   -7.8677    5.1469 H   0  0  0  0  0  0  0  0  0  0  0  0
    2.9031   -5.5766    2.2040 H   0  0  0  0  0  0  0  0  0  0  0  0
    1.0968   -3.3468    3.2647 H   0  0  0  0  0  0  0  0  0  0  0  0
    1.8034   -1.1031    2.8965 H   0  0  0  0  0  0  0  0  0  0  0  0
    3.1293    0.5852    1.6537 H   0  0  0  0  0  0  0  0  0  0  0  0
    4.7986   -0.1316   -0.0310 H   0  0  0  0  0  0  0  0  0  0  0  0
    3.8346   -4.2660    0.7602 H   0  0  0  0  0  0  0  0  0  0  0  0
    1.8251   -9.6924    5.7710 H   0  0  0  0  0  0  0  0  0  0  0  0
    3.0155   -8.5264    5.3108 H   0  0  0  0  0  0  0  0  0  0  0  0
    2.1999  -11.6492    2.6956 H   0  0  0  0  0  0  0  0  0  0  0  0
  1  2  1  0
  1 24  1  0
  1 25  1  0
  1 26  1  0
  2  6  1  0
  2  3  1  0
  2 44  1  6
  3 23  1  0
  3  4  1  0
  3 27  1  1
  4  5  1  0
  4 28  1  0
  4 29  1  0
  5  6  1  0
  5 30  1  0
  5 31  1  0
  6  7  1  0
  6 32  1  6
  7  8  1  0
  7 33  1  0
  7 34  1  0
  8  9  1  0
  8 23  1  0
  8 35  1  1
  9 10  1  0
 10 11  2  0
 10 12  1  0
 12 13  2  3
 12 36  1  0
 13 14  1  0
 13 37  1  0
 14 22  1  0
 14 15  2  0
 15 16  1  0
 15 38  1  0
 16 17  2  0
 16 39  1  0
 17 18  1  0
 17 40  1  0
 18 19  1  0
 18 22  2  0
 19 20  2  0
 19 21  1  0
 22 41  1  0
 23 42  1  0
 23 43  1  0
M  CHG  3   2   1  19   1  21  -1
M  END
>  <i_m_ct_stereo_status>  (286) 
1

>  <s_m_source_file>  (286) 
/var/tmp/pbs.5076255.sched01/tmppdndq9e4/92von5zo7h.sdf

>  <i_m_source_file_index>  (286) 
28

>  <i_lp_mmshare_version>  (286) 
48012

>  <i_f3d_flags>  (286) 
0

>  <s_epik_input>  (286) 
W0NIM11OKFtDQEBIXTEyKVtDQEhdKFtDSDJdW0NIMl0xKVtDSDJdW0NASF0oW0NIMl0yKU9DKD1PKS9bQ0hdPVtDSF0vYzNbY0hdW2NIXVtjSF1jKFtOK10oPU8pW08tXSlbY0hdMw==

>  <s_epik_cmdline>  (286) 
J2VwaWtfcHl0aG9uJywgJy1waHQnLCAnMi4wJywgJy1waCcsICc3LjAnLCAnLXRuJywgJzgnLCAnLW1hJywgJzIwMCcsICctaW1hZScsICc8aW5maWxlLm1hZT4nLCAnLW9tYWUnLCAnPG91dGZpbGUubWFlPic=

>  <r_epik_Ionization_Penalty>  (286) 
0.0064655

>  <r_epik_Ionization_Penalty_Charging>  (286) 
0.0064655

>  <r_epik_Ionization_Penalty_Neutral>  (286) 
0

>  <r_epik_State_Penalty>  (286) 
0.00478368

>  <r_epik_Charging_Adjusted_Penalty>  (286) 
0.0112492

>  <i_epik_Tot_Q>  (286) 
1

>  <i_epik_Tot_abs_Q>  (286) 
3

>  <s_epik_Chemistry_Notes>  (286) 
This compound has an ester and may undergo hydrolysis at high or low pH.

>  <s_lp_Force_Field>  (286) 
OPLS3e

>  <r_lp_Energy>  (286) 
39.8095

>  <b_lp_Chiralities_Consistent>  (286) 
1

>  <s_lp_Variant>  (286) 
73:0-3

>  <s_i_glide_gridfile>  (286) 
pfpi4k_grid

>  <i_i_glide_lignum>  (286) 
28

>  <i_i_glide_rotatable_bonds>  (286) 
5

>  <r_i_docking_score>  (286) 
-2.90146

>  <r_i_glide_ligand_efficiency>  (286) 
-0.126151

>  <r_i_glide_ligand_efficiency_sa>  (286) 
-0.358755

>  <r_i_glide_ligand_efficiency_ln>  (286) 
-0.7016

>  <r_i_glide_gscore>  (286) 
-2.90146

>  <r_i_glide_lipo>  (286) 
-0.314526

>  <r_i_glide_hbond>  (286) 
-0.00279315

>  <r_i_glide_metal>  (286) 
-0

>  <r_i_glide_rewards>  (286) 
-1.24528

>  <r_i_glide_evdw>  (286) 
-23.0444

>  <r_i_glide_ecoul>  (286) 
-5.58908

>  <r_i_glide_erotb>  (286) 
0.739885

>  <r_i_glide_esite>  (286) 
-0.0881723

>  <r_i_glide_emodel>  (286) 
-36.0983

>  <r_i_glide_energy>  (286) 
-28.6335

>  <r_i_glide_einternal>  (286) 
0.727792

>  <r_i_glide_intrahb_reward>  (286) 
-0

>  <i_i_glide_confnum>  (286) 
4

>  <i_i_glide_posenum>  (286) 
18

>  <r_i_glide_eff_state_penalty>  (286) 
0

>  <ligand_id>  (286) 
73

>  <original_smiles>  (286) 
CN1C2CCC1CC(OC(=O)C=Cc1cccc([N+](=O)[O-])c1)C2

>  <smiles>  (286) 
[H]C(C(=O)OC1([H])C([H])([H])C2([H])C([H])([H])C([H])([H])C([H])(C1([H])[H])[N+]2([H])C([H])([H])[H])=C([H])c1c([H])c([H])c([H])c([N+](=O)[O-])c1[H]

$$$$
73:2:2
     RDKit          3D

 44 46  0  0  1  0  0  0  0  0999 V2000
    0.7512  -11.9241    4.3070 C   0  0  0  0  0  0  0  0  0  0  0  0
    1.5175  -11.0057    3.4076 N   0  0  2  0  0  0  0  0  0  0  0  0
    2.4039  -10.0272    4.0452 C   0  0  1  0  0  0  0  0  0  0  0  0
    2.9999   -9.2899    2.8206 C   0  0  0  0  0  0  0  0  0  0  0  0
    1.8918   -9.4042    1.7388 C   0  0  0  0  0  0  0  0  0  0  0  0
    0.7611  -10.2007    2.4419 C   0  0  2  0  0  0  0  0  0  0  0  0
   -0.2419   -9.2526    3.1668 C   0  0  0  0  0  0  0  0  0  0  0  0
    0.4388   -8.3219    4.2084 C   0  0  2  0  0  0  0  0  0  0  0  0
    0.9790   -7.2121    3.4979 O   0  0  0  0  0  0  0  0  0  0  0  0
    0.9648   -5.9508    3.9171 C   0  0  0  0  0  0  0  0  0  0  0  0
    0.2771   -5.5500    4.8528 O   0  0  0  0  0  0  0  0  0  0  0  0
    1.8552   -5.0711    3.1308 C   0  0  0  0  0  0  0  0  0  0  0  0
    2.5807   -5.4998    2.0772 C   0  0  0  0  0  0  0  0  0  0  0  0
    3.5092   -4.7144    1.2608 C   0  0  0  0  0  0  0  0  0  0  0  0
    4.0755   -5.3107    0.1138 C   0  0  0  0  0  0  0  0  0  0  0  0
    4.9525   -4.5864   -0.7156 C   0  0  0  0  0  0  0  0  0  0  0  0
    5.2748   -3.2532   -0.4001 C   0  0  0  0  0  0  0  0  0  0  0  0
    4.7211   -2.6319    0.7439 C   0  0  0  0  0  0  0  0  0  0  0  0
    5.0648   -1.2312    1.0749 N   0  0  0  0  0  0  0  0  0  0  0  0
    5.8687   -0.6563    0.3497 O   0  0  0  0  0  0  0  0  0  0  0  0
    4.5400   -0.7327    2.0602 O   0  0  0  0  0  0  0  0  0  0  0  0
    3.8356   -3.3727    1.5635 C   0  0  0  0  0  0  0  0  0  0  0  0
    1.5896   -9.0577    4.9601 C   0  0  0  0  0  0  0  0  0  0  0  0
    0.0626  -11.4241    4.9652 H   0  0  0  0  0  0  0  0  0  0  0  0
    1.4268  -12.4924    4.9291 H   0  0  0  0  0  0  0  0  0  0  0  0
    0.2111  -12.6477    3.7159 H   0  0  0  0  0  0  0  0  0  0  0  0
    3.1837  -10.5246    4.6240 H   0  0  0  0  0  0  0  0  0  0  0  0
    3.3069   -8.2746    3.0629 H   0  0  0  0  0  0  0  0  0  0  0  0
    3.8979   -9.8020    2.4758 H   0  0  0  0  0  0  0  0  0  0  0  0
    1.5296   -8.4631    1.3325 H   0  0  0  0  0  0  0  0  0  0  0  0
    2.2821   -9.9523    0.8838 H   0  0  0  0  0  0  0  0  0  0  0  0
    0.2171  -10.8297    1.7369 H   0  0  0  0  0  0  0  0  0  0  0  0
   -0.7977   -8.6554    2.4427 H   0  0  0  0  0  0  0  0  0  0  0  0
   -0.9993   -9.8495    3.6750 H   0  0  0  0  0  0  0  0  0  0  0  0
   -0.3121   -7.9869    4.9217 H   0  0  0  0  0  0  0  0  0  0  0  0
    1.9102   -4.0406    3.4534 H   0  0  0  0  0  0  0  0  0  0  0  0
    2.5263   -6.5258    1.7583 H   0  0  0  0  0  0  0  0  0  0  0  0
    3.8287   -6.3337   -0.1554 H   0  0  0  0  0  0  0  0  0  0  0  0
    5.3606   -5.0532   -1.6046 H   0  0  0  0  0  0  0  0  0  0  0  0
    5.9489   -2.7136   -1.0533 H   0  0  0  0  0  0  0  0  0  0  0  0
    3.4164   -2.9028    2.4398 H   0  0  0  0  0  0  0  0  0  0  0  0
    1.1537   -9.6217    5.7880 H   0  0  0  0  0  0  0  0  0  0  0  0
    2.2525   -8.3367    5.4383 H   0  0  0  0  0  0  0  0  0  0  0  0
    2.1287  -11.5746    2.8412 H   0  0  0  0  0  0  0  0  0  0  0  0
  1  2  1  0
  1 24  1  0
  1 25  1  0
  1 26  1  0
  2  6  1  0
  2  3  1  0
  2 44  1  6
  3 23  1  0
  3  4  1  0
  3 27  1  1
  4  5  1  0
  4 28  1  0
  4 29  1  0
  5  6  1  0
  5 30  1  0
  5 31  1  0
  6  7  1  0
  6 32  1  6
  7  8  1  0
  7 33  1  0
  7 34  1  0
  8  9  1  0
  8 23  1  0
  8 35  1  1
  9 10  1  0
 10 11  2  0
 10 12  1  0
 12 13  2  3
 12 36  1  0
 13 14  1  0
 13 37  1  0
 14 22  1  0
 14 15  2  0
 15 16  1  0
 15 38  1  0
 16 17  2  0
 16 39  1  0
 17 18  1  0
 17 40  1  0
 18 19  1  0
 18 22  2  0
 19 20  2  0
 19 21  1  0
 22 41  1  0
 23 42  1  0
 23 43  1  0
M  CHG  3   2   1  19   1  21  -1
M  END
>  <i_m_ct_stereo_status>  (287) 
1

>  <s_m_source_file>  (287) 
/var/tmp/pbs.5076255.sched01/tmppdndq9e4/92von5zo7h.sdf

>  <i_m_source_file_index>  (287) 
28

>  <i_lp_mmshare_version>  (287) 
48012

>  <i_f3d_flags>  (287) 
0

>  <s_epik_input>  (287) 
W0NIM11OKFtDQEBIXTEyKVtDQEhdKFtDSDJdW0NIMl0xKVtDSDJdW0NASF0oW0NIMl0yKU9DKD1PKS9bQ0hdPVtDSF0vYzNbY0hdW2NIXVtjSF1jKFtOK10oPU8pW08tXSlbY0hdMw==

>  <s_epik_cmdline>  (287) 
J2VwaWtfcHl0aG9uJywgJy1waHQnLCAnMi4wJywgJy1waCcsICc3LjAnLCAnLXRuJywgJzgnLCAnLW1hJywgJzIwMCcsICctaW1hZScsICc8aW5maWxlLm1hZT4nLCAnLW9tYWUnLCAnPG91dGZpbGUubWFlPic=

>  <r_epik_Ionization_Penalty>  (287) 
0.0064655

>  <r_epik_Ionization_Penalty_Charging>  (287) 
0.0064655

>  <r_epik_Ionization_Penalty_Neutral>  (287) 
0

>  <r_epik_State_Penalty>  (287) 
0.00478368

>  <r_epik_Charging_Adjusted_Penalty>  (287) 
0.0112492

>  <i_epik_Tot_Q>  (287) 
1

>  <i_epik_Tot_abs_Q>  (287) 
3

>  <s_epik_Chemistry_Notes>  (287) 
This compound has an ester and may undergo hydrolysis at high or low pH.

>  <s_lp_Force_Field>  (287) 
OPLS3e

>  <r_lp_Energy>  (287) 
39.8095

>  <b_lp_Chiralities_Consistent>  (287) 
1

>  <s_lp_Variant>  (287) 
73:0-3

>  <s_i_glide_gridfile>  (287) 
pfpi4k_grid

>  <i_i_glide_lignum>  (287) 
28

>  <i_i_glide_rotatable_bonds>  (287) 
5

>  <r_i_docking_score>  (287) 
-2.76856

>  <r_i_glide_ligand_efficiency>  (287) 
-0.120372

>  <r_i_glide_ligand_efficiency_sa>  (287) 
-0.342322

>  <r_i_glide_ligand_efficiency_ln>  (287) 
-0.669462

>  <r_i_glide_gscore>  (287) 
-2.76856

>  <r_i_glide_lipo>  (287) 
-0.349108

>  <r_i_glide_hbond>  (287) 
0

>  <r_i_glide_metal>  (287) 
-0

>  <r_i_glide_rewards>  (287) 
-1.36593

>  <r_i_glide_evdw>  (287) 
-22.4265

>  <r_i_glide_ecoul>  (287) 
-4.35666

>  <r_i_glide_erotb>  (287) 
0.739885

>  <r_i_glide_esite>  (287) 
-0.0185738

>  <r_i_glide_emodel>  (287) 
-33.8634

>  <r_i_glide_energy>  (287) 
-26.7832

>  <r_i_glide_einternal>  (287) 
0.555395

>  <r_i_glide_intrahb_reward>  (287) 
-0

>  <i_i_glide_confnum>  (287) 
1

>  <i_i_glide_posenum>  (287) 
1

>  <r_i_glide_eff_state_penalty>  (287) 
0

>  <ligand_id>  (287) 
73

>  <original_smiles>  (287) 
CN1C2CCC1CC(OC(=O)C=Cc1cccc([N+](=O)[O-])c1)C2

>  <smiles>  (287) 
[H]C(C(=O)OC1([H])C([H])([H])C2([H])C([H])([H])C([H])([H])C([H])(C1([H])[H])[N+]2([H])C([H])([H])[H])=C([H])c1c([H])c([H])c([H])c([N+](=O)[O-])c1[H]

$$$$
73:3:0
     RDKit          3D

 44 46  0  0  1  0  0  0  0  0999 V2000
    0.2471  -10.5014    6.0812 C   0  0  0  0  0  0  0  0  0  0  0  0
    1.4909  -10.6195    5.2770 N   0  0  2  0  0  0  0  0  0  0  0  0
    2.3285   -9.4196    5.1725 C   0  0  1  0  0  0  0  0  0  0  0  0
    3.4816   -9.9226    4.2769 C   0  0  0  0  0  0  0  0  0  0  0  0
    2.8328  -11.0425    3.4102 C   0  0  0  0  0  0  0  0  0  0  0  0
    1.3638  -11.0883    3.8875 C   0  0  2  0  0  0  0  0  0  0  0  0
    0.4568  -10.1211    3.0791 C   0  0  0  0  0  0  0  0  0  0  0  0
    0.9697   -8.6691    3.1202 C   0  0  2  0  0  0  0  0  0  0  0  0
    2.0196   -8.5513    2.1731 O   0  0  0  0  0  0  0  0  0  0  0  0
    2.3445   -7.3735    1.5814 C   0  0  0  0  0  0  0  0  0  0  0  0
    1.5844   -6.4080    1.5186 O   0  0  0  0  0  0  0  0  0  0  0  0
    3.7025   -7.4278    1.0391 C   0  0  0  0  0  0  0  0  0  0  0  0
    4.4147   -6.4145    0.4972 C   0  0  0  0  0  0  0  0  0  0  0  0
    4.1204   -4.9735    0.3961 C   0  0  0  0  0  0  0  0  0  0  0  0
    3.4315   -4.2988    1.4247 C   0  0  0  0  0  0  0  0  0  0  0  0
    3.0417   -2.9620    1.2589 C   0  0  0  0  0  0  0  0  0  0  0  0
    3.4164   -2.2480    0.1024 C   0  0  0  0  0  0  0  0  0  0  0  0
    4.1727   -2.8858   -0.9109 C   0  0  0  0  0  0  0  0  0  0  0  0
    4.6055   -2.1153   -2.1003 N   0  0  0  0  0  0  0  0  0  0  0  0
    4.9857   -2.7349   -3.0886 O   0  0  0  0  0  0  0  0  0  0  0  0
    4.5862   -0.8966   -2.0353 O   0  0  0  0  0  0  0  0  0  0  0  0
    4.5087   -4.2481   -0.7627 C   0  0  0  0  0  0  0  0  0  0  0  0
    1.5198   -8.2680    4.5142 C   0  0  0  0  0  0  0  0  0  0  0  0
   -0.4933   -9.7868    5.7195 H   0  0  0  0  0  0  0  0  0  0  0  0
    0.4724  -10.2436    7.1164 H   0  0  0  0  0  0  0  0  0  0  0  0
   -0.1828  -11.4941    6.0983 H   0  0  0  0  0  0  0  0  0  0  0  0
    2.6904   -9.1166    6.1538 H   0  0  0  0  0  0  0  0  0  0  0  0
    3.9425   -9.1186    3.7046 H   0  0  0  0  0  0  0  0  0  0  0  0
    4.2781  -10.3471    4.8869 H   0  0  0  0  0  0  0  0  0  0  0  0
    2.9208  -10.8846    2.3345 H   0  0  0  0  0  0  0  0  0  0  0  0
    3.3237  -11.9938    3.6095 H   0  0  0  0  0  0  0  0  0  0  0  0
    0.9602  -12.0993    3.8464 H   0  0  0  0  0  0  0  0  0  0  0  0
    0.3559  -10.4576    2.0481 H   0  0  0  0  0  0  0  0  0  0  0  0
   -0.5597  -10.1303    3.4777 H   0  0  0  0  0  0  0  0  0  0  0  0
    0.1567   -8.0142    2.8329 H   0  0  0  0  0  0  0  0  0  0  0  0
    4.1997   -8.3917    1.0670 H   0  0  0  0  0  0  0  0  0  0  0  0
    5.3851   -6.6877    0.1014 H   0  0  0  0  0  0  0  0  0  0  0  0
    3.1699   -4.8193    2.3381 H   0  0  0  0  0  0  0  0  0  0  0  0
    2.4461   -2.4837    2.0143 H   0  0  0  0  0  0  0  0  0  0  0  0
    3.1170   -1.2098   -0.0012 H   0  0  0  0  0  0  0  0  0  0  0  0
    5.0581   -4.7527   -1.5449 H   0  0  0  0  0  0  0  0  0  0  0  0
    0.6805   -7.9753    5.1468 H   0  0  0  0  0  0  0  0  0  0  0  0
    2.1314   -7.3694    4.4586 H   0  0  0  0  0  0  0  0  0  0  0  0
    2.0450  -11.3217    5.7506 H   0  0  0  0  0  0  0  0  0  0  0  0
  1  2  1  0
  1 24  1  0
  1 25  1  0
  1 26  1  0
  2  6  1  0
  2  3  1  0
  2 44  1  1
  3 23  1  0
  3  4  1  0
  3 27  1  1
  4  5  1  0
  4 28  1  0
  4 29  1  0
  5  6  1  0
  5 30  1  0
  5 31  1  0
  6  7  1  0
  6 32  1  1
  7  8  1  0
  7 33  1  0
  7 34  1  0
  8  9  1  0
  8 23  1  0
  8 35  1  6
  9 10  1  0
 10 11  2  0
 10 12  1  0
 12 13  2  3
 12 36  1  0
 13 14  1  0
 13 37  1  0
 14 22  1  0
 14 15  2  0
 15 16  1  0
 15 38  1  0
 16 17  2  0
 16 39  1  0
 17 18  1  0
 17 40  1  0
 18 19  1  0
 18 22  2  0
 19 20  2  0
 19 21  1  0
 22 41  1  0
 23 42  1  0
 23 43  1  0
M  CHG  3   2   1  19   1  21  -1
M  END
>  <i_m_ct_stereo_status>  (288) 
1

>  <s_m_source_file>  (288) 
/var/tmp/pbs.5076255.sched01/tmppdndq9e4/92von5zo7h.sdf

>  <i_m_source_file_index>  (288) 
29

>  <i_lp_mmshare_version>  (288) 
48012

>  <i_f3d_flags>  (288) 
0

>  <s_epik_input>  (288) 
W0NIM11OKFtDQEBIXTEyKVtDQEhdKFtDSDJdW0NIMl0xKVtDSDJdW0NASF0oW0NIMl0yKU9DKD1PKS9bQ0hdPVtDSF0vYzNbY0hdW2NIXVtjSF1jKFtOK10oPU8pW08tXSlbY0hdMw==

>  <s_epik_cmdline>  (288) 
J2VwaWtfcHl0aG9uJywgJy1waHQnLCAnMi4wJywgJy1waCcsICc3LjAnLCAnLXRuJywgJzgnLCAnLW1hJywgJzIwMCcsICctaW1hZScsICc8aW5maWxlLm1hZT4nLCAnLW9tYWUnLCAnPG91dGZpbGUubWFlPic=

>  <r_epik_Ionization_Penalty>  (288) 
0.0064655

>  <r_epik_Ionization_Penalty_Charging>  (288) 
0.0064655

>  <r_epik_Ionization_Penalty_Neutral>  (288) 
0

>  <r_epik_State_Penalty>  (288) 
0.00478368

>  <r_epik_Charging_Adjusted_Penalty>  (288) 
0.0112492

>  <i_epik_Tot_Q>  (288) 
1

>  <i_epik_Tot_abs_Q>  (288) 
3

>  <s_epik_Chemistry_Notes>  (288) 
This compound has an ester and may undergo hydrolysis at high or low pH.

>  <s_lp_Force_Field>  (288) 
OPLS3e

>  <r_lp_Energy>  (288) 
43.7103

>  <b_lp_Chiralities_Consistent>  (288) 
1

>  <s_lp_Variant>  (288) 
73:0-4

>  <s_i_glide_gridfile>  (288) 
pfpi4k_grid

>  <i_i_glide_lignum>  (288) 
29

>  <i_i_glide_rotatable_bonds>  (288) 
5

>  <r_i_docking_score>  (288) 
-3.23154

>  <r_i_glide_ligand_efficiency>  (288) 
-0.140502

>  <r_i_glide_ligand_efficiency_sa>  (288) 
-0.399568

>  <r_i_glide_ligand_efficiency_ln>  (288) 
-0.781415

>  <r_i_glide_gscore>  (288) 
-3.23154

>  <r_i_glide_lipo>  (288) 
-0.414295

>  <r_i_glide_hbond>  (288) 
-0.036351

>  <r_i_glide_metal>  (288) 
-0

>  <r_i_glide_rewards>  (288) 
-1.24528

>  <r_i_glide_evdw>  (288) 
-24.252

>  <r_i_glide_ecoul>  (288) 
-6.27927

>  <r_i_glide_erotb>  (288) 
0.739885

>  <r_i_glide_esite>  (288) 
-0.121013

>  <r_i_glide_emodel>  (288) 
-38.252

>  <r_i_glide_energy>  (288) 
-30.5312

>  <r_i_glide_einternal>  (288) 
2.46461

>  <r_i_glide_intrahb_reward>  (288) 
-0

>  <i_i_glide_confnum>  (288) 
3

>  <i_i_glide_posenum>  (288) 
10

>  <r_i_glide_eff_state_penalty>  (288) 
0

>  <ligand_id>  (288) 
73

>  <original_smiles>  (288) 
CN1C2CCC1CC(OC(=O)C=Cc1cccc([N+](=O)[O-])c1)C2

>  <smiles>  (288) 
[H]C(C(=O)OC1([H])C([H])([H])C2([H])C([H])([H])C([H])([H])C([H])(C1([H])[H])[N+]2([H])C([H])([H])[H])=C([H])c1c([H])c([H])c([H])c([N+](=O)[O-])c1[H]

$$$$
73:3:1
     RDKit          3D

 44 46  0  0  1  0  0  0  0  0999 V2000
    0.8859  -11.9424    2.9947 C   0  0  0  0  0  0  0  0  0  0  0  0
    1.6668  -11.0249    3.8426 N   0  0  2  0  0  0  0  0  0  0  0  0
    0.9301   -9.9684    4.5774 C   0  0  1  0  0  0  0  0  0  0  0  0
    2.0784   -9.2288    5.2862 C   0  0  0  0  0  0  0  0  0  0  0  0
    3.3188   -9.4456    4.3622 C   0  0  0  0  0  0  0  0  0  0  0  0
    2.7813  -10.2920    3.1997 C   0  0  2  0  0  0  0  0  0  0  0  0
    2.2307   -9.4028    2.0544 C   0  0  0  0  0  0  0  0  0  0  0  0
    1.1211   -8.4251    2.5420 C   0  0  2  0  0  0  0  0  0  0  0  0
    1.6835   -7.2680    3.1427 O   0  0  0  0  0  0  0  0  0  0  0  0
    2.2967   -6.3331    2.3909 C   0  0  0  0  0  0  0  0  0  0  0  0
    2.1429   -6.2763    1.1684 O   0  0  0  0  0  0  0  0  0  0  0  0
    3.2081   -5.4998    3.1840 C   0  0  0  0  0  0  0  0  0  0  0  0
    4.0689   -4.5580    2.7457 C   0  0  0  0  0  0  0  0  0  0  0  0
    4.3124   -4.0051    1.3953 C   0  0  0  0  0  0  0  0  0  0  0  0
    5.6395   -3.6335    1.0279 C   0  0  0  0  0  0  0  0  0  0  0  0
    5.9127   -3.1475   -0.2734 C   0  0  0  0  0  0  0  0  0  0  0  0
    4.8749   -3.0675   -1.2340 C   0  0  0  0  0  0  0  0  0  0  0  0
    3.5440   -3.4287   -0.8765 C   0  0  0  0  0  0  0  0  0  0  0  0
    2.4610   -3.3851   -1.8836 N   0  0  0  0  0  0  0  0  0  0  0  0
    1.3733   -3.8596   -1.5830 O   0  0  0  0  0  0  0  0  0  0  0  0
    2.6919   -2.9096   -2.9918 O   0  0  0  0  0  0  0  0  0  0  0  0
    3.2745   -3.8349    0.4481 C   0  0  0  0  0  0  0  0  0  0  0  0
    0.1729   -9.0615    3.5683 C   0  0  0  0  0  0  0  0  0  0  0  0
    0.2697  -11.4746    2.2084 H   0  0  0  0  0  0  0  0  0  0  0  0
    0.2179  -12.5374    3.6344 H   0  0  0  0  0  0  0  0  0  0  0  0
    1.5544  -12.6248    2.4803 H   0  0  0  0  0  0  0  0  0  0  0  0
    0.2255  -10.4125    5.2762 H   0  0  0  0  0  0  0  0  0  0  0  0
    1.8439   -8.1860    5.4810 H   0  0  0  0  0  0  0  0  0  0  0  0
    2.2651   -9.6819    6.2587 H   0  0  0  0  0  0  0  0  0  0  0  0
    3.7892   -8.5258    4.0213 H   0  0  0  0  0  0  0  0  0  0  0  0
    4.0859   -9.9980    4.9047 H   0  0  0  0  0  0  0  0  0  0  0  0
    3.5269  -10.9885    2.8101 H   0  0  0  0  0  0  0  0  0  0  0  0
    3.0524   -8.8945    1.5510 H   0  0  0  0  0  0  0  0  0  0  0  0
    1.8142  -10.0248    1.2686 H   0  0  0  0  0  0  0  0  0  0  0  0
    0.5235   -8.1048    1.6942 H   0  0  0  0  0  0  0  0  0  0  0  0
    3.2181   -5.6808    4.2596 H   0  0  0  0  0  0  0  0  0  0  0  0
    4.6803   -4.0990    3.5135 H   0  0  0  0  0  0  0  0  0  0  0  0
    6.4403   -3.7066    1.7443 H   0  0  0  0  0  0  0  0  0  0  0  0
    6.9061   -2.8318   -0.5318 H   0  0  0  0  0  0  0  0  0  0  0  0
    5.0821   -2.7089   -2.2312 H   0  0  0  0  0  0  0  0  0  0  0  0
    2.2561   -4.0398    0.7390 H   0  0  0  0  0  0  0  0  0  0  0  0
   -0.5885   -9.6206    3.0221 H   0  0  0  0  0  0  0  0  0  0  0  0
   -0.3768   -8.2804    4.0904 H   0  0  0  0  0  0  0  0  0  0  0  0
    2.1097  -11.5697    4.5772 H   0  0  0  0  0  0  0  0  0  0  0  0
  1  2  1  0
  1 24  1  0
  1 25  1  0
  1 26  1  0
  2  6  1  0
  2  3  1  0
  2 44  1  1
  3 23  1  0
  3  4  1  0
  3 27  1  1
  4  5  1  0
  4 28  1  0
  4 29  1  0
  5  6  1  0
  5 30  1  0
  5 31  1  0
  6  7  1  0
  6 32  1  6
  7  8  1  0
  7 33  1  0
  7 34  1  0
  8  9  1  0
  8 23  1  0
  8 35  1  6
  9 10  1  0
 10 11  2  0
 10 12  1  0
 12 13  2  3
 12 36  1  0
 13 14  1  0
 13 37  1  0
 14 22  1  0
 14 15  2  0
 15 16  1  0
 15 38  1  0
 16 17  2  0
 16 39  1  0
 17 18  1  0
 17 40  1  0
 18 19  1  0
 18 22  2  0
 19 20  2  0
 19 21  1  0
 22 41  1  0
 23 42  1  0
 23 43  1  0
M  CHG  3   2   1  19   1  21  -1
M  END
>  <i_m_ct_stereo_status>  (289) 
1

>  <s_m_source_file>  (289) 
/var/tmp/pbs.5076255.sched01/tmppdndq9e4/92von5zo7h.sdf

>  <i_m_source_file_index>  (289) 
29

>  <i_lp_mmshare_version>  (289) 
48012

>  <i_f3d_flags>  (289) 
0

>  <s_epik_input>  (289) 
W0NIM11OKFtDQEBIXTEyKVtDQEhdKFtDSDJdW0NIMl0xKVtDSDJdW0NASF0oW0NIMl0yKU9DKD1PKS9bQ0hdPVtDSF0vYzNbY0hdW2NIXVtjSF1jKFtOK10oPU8pW08tXSlbY0hdMw==

>  <s_epik_cmdline>  (289) 
J2VwaWtfcHl0aG9uJywgJy1waHQnLCAnMi4wJywgJy1waCcsICc3LjAnLCAnLXRuJywgJzgnLCAnLW1hJywgJzIwMCcsICctaW1hZScsICc8aW5maWxlLm1hZT4nLCAnLW9tYWUnLCAnPG91dGZpbGUubWFlPic=

>  <r_epik_Ionization_Penalty>  (289) 
0.0064655

>  <r_epik_Ionization_Penalty_Charging>  (289) 
0.0064655

>  <r_epik_Ionization_Penalty_Neutral>  (289) 
0

>  <r_epik_State_Penalty>  (289) 
0.00478368

>  <r_epik_Charging_Adjusted_Penalty>  (289) 
0.0112492

>  <i_epik_Tot_Q>  (289) 
1

>  <i_epik_Tot_abs_Q>  (289) 
3

>  <s_epik_Chemistry_Notes>  (289) 
This compound has an ester and may undergo hydrolysis at high or low pH.

>  <s_lp_Force_Field>  (289) 
OPLS3e

>  <r_lp_Energy>  (289) 
43.7103

>  <b_lp_Chiralities_Consistent>  (289) 
1

>  <s_lp_Variant>  (289) 
73:0-4

>  <s_i_glide_gridfile>  (289) 
pfpi4k_grid

>  <i_i_glide_lignum>  (289) 
29

>  <i_i_glide_rotatable_bonds>  (289) 
5

>  <r_i_docking_score>  (289) 
-2.94187

>  <r_i_glide_ligand_efficiency>  (289) 
-0.127908

>  <r_i_glide_ligand_efficiency_sa>  (289) 
-0.363752

>  <r_i_glide_ligand_efficiency_ln>  (289) 
-0.711372

>  <r_i_glide_gscore>  (289) 
-2.94187

>  <r_i_glide_lipo>  (289) 
-0.268082

>  <r_i_glide_hbond>  (289) 
0

>  <r_i_glide_metal>  (289) 
-0

>  <r_i_glide_rewards>  (289) 
-1.45191

>  <r_i_glide_evdw>  (289) 
-22.4911

>  <r_i_glide_ecoul>  (289) 
-5.0019

>  <r_i_glide_erotb>  (289) 
0.739885

>  <r_i_glide_esite>  (289) 
-0.0869319

>  <r_i_glide_emodel>  (289) 
-34.499

>  <r_i_glide_energy>  (289) 
-27.493

>  <r_i_glide_einternal>  (289) 
1.76254

>  <r_i_glide_intrahb_reward>  (289) 
-0

>  <i_i_glide_confnum>  (289) 
2

>  <i_i_glide_posenum>  (289) 
21

>  <r_i_glide_eff_state_penalty>  (289) 
0

>  <ligand_id>  (289) 
73

>  <original_smiles>  (289) 
CN1C2CCC1CC(OC(=O)C=Cc1cccc([N+](=O)[O-])c1)C2

>  <smiles>  (289) 
[H]C(C(=O)OC1([H])C([H])([H])C2([H])C([H])([H])C([H])([H])C([H])(C1([H])[H])[N+]2([H])C([H])([H])[H])=C([H])c1c([H])c([H])c([H])c([N+](=O)[O-])c1[H]

$$$$
73:3:2
     RDKit          3D

 44 46  0  0  1  0  0  0  0  0999 V2000
   -1.7884   -8.5233    4.4352 C   0  0  0  0  0  0  0  0  0  0  0  0
   -0.5173   -9.0473    3.8856 N   0  0  2  0  0  0  0  0  0  0  0  0
    0.7288   -8.4792    4.4153 C   0  0  1  0  0  0  0  0  0  0  0  0
    1.7929   -9.2376    3.5963 C   0  0  0  0  0  0  0  0  0  0  0  0
    1.0764   -9.5822    2.2658 C   0  0  0  0  0  0  0  0  0  0  0  0
   -0.3387   -8.9893    2.4302 C   0  0  2  0  0  0  0  0  0  0  0  0
   -0.4162   -7.5181    1.9385 C   0  0  0  0  0  0  0  0  0  0  0  0
    0.6178   -6.6143    2.6467 C   0  0  2  0  0  0  0  0  0  0  0  0
    1.8524   -6.7912    1.9546 O   0  0  0  0  0  0  0  0  0  0  0  0
    2.5669   -5.7716    1.5070 C   0  0  0  0  0  0  0  0  0  0  0  0
    2.3208   -4.6087    1.8066 O   0  0  0  0  0  0  0  0  0  0  0  0
    3.6194   -6.2416    0.5794 C   0  0  0  0  0  0  0  0  0  0  0  0
    4.3447   -5.4906   -0.2778 C   0  0  0  0  0  0  0  0  0  0  0  0
    4.3763   -4.0274   -0.4464 C   0  0  0  0  0  0  0  0  0  0  0  0
    4.4994   -3.1731    0.6687 C   0  0  0  0  0  0  0  0  0  0  0  0
    4.4588   -1.7788    0.5076 C   0  0  0  0  0  0  0  0  0  0  0  0
    4.3658   -1.2262   -0.7782 C   0  0  0  0  0  0  0  0  0  0  0  0
    4.2793   -2.0629   -1.9169 C   0  0  0  0  0  0  0  0  0  0  0  0
    4.1918   -1.4692   -3.2643 N   0  0  0  0  0  0  0  0  0  0  0  0
    4.1422   -2.2236   -4.2351 O   0  0  0  0  0  0  0  0  0  0  0  0
    4.2105   -0.2487   -3.3613 O   0  0  0  0  0  0  0  0  0  0  0  0
    4.2906   -3.4644   -1.7349 C   0  0  0  0  0  0  0  0  0  0  0  0
    0.7779   -6.9497    4.1487 C   0  0  0  0  0  0  0  0  0  0  0  0
   -1.9704   -7.4588    4.3022 H   0  0  0  0  0  0  0  0  0  0  0  0
   -1.8138   -8.7484    5.4952 H   0  0  0  0  0  0  0  0  0  0  0  0
   -2.6139   -9.0477    3.9719 H   0  0  0  0  0  0  0  0  0  0  0  0
    0.8243   -8.6807    5.4818 H   0  0  0  0  0  0  0  0  0  0  0  0
    2.7091   -8.6578    3.4698 H   0  0  0  0  0  0  0  0  0  0  0  0
    2.0750  -10.1567    4.1077 H   0  0  0  0  0  0  0  0  0  0  0  0
    1.5844   -9.2071    1.3753 H   0  0  0  0  0  0  0  0  0  0  0  0
    1.0104  -10.6596    2.1479 H   0  0  0  0  0  0  0  0  0  0  0  0
   -1.0896   -9.5923    1.9186 H   0  0  0  0  0  0  0  0  0  0  0  0
   -0.2844   -7.4648    0.8548 H   0  0  0  0  0  0  0  0  0  0  0  0
   -1.4104   -7.1114    2.1229 H   0  0  0  0  0  0  0  0  0  0  0  0
    0.2756   -5.5843    2.5576 H   0  0  0  0  0  0  0  0  0  0  0  0
    3.7964   -7.3079    0.5613 H   0  0  0  0  0  0  0  0  0  0  0  0
    5.0164   -6.0316   -0.9353 H   0  0  0  0  0  0  0  0  0  0  0  0
    4.5940   -3.5823    1.6622 H   0  0  0  0  0  0  0  0  0  0  0  0
    4.5024   -1.1432    1.3814 H   0  0  0  0  0  0  0  0  0  0  0  0
    4.3589   -0.1547   -0.8805 H   0  0  0  0  0  0  0  0  0  0  0  0
    4.2159   -4.1185   -2.5915 H   0  0  0  0  0  0  0  0  0  0  0  0
   -0.0200   -6.4450    4.6954 H   0  0  0  0  0  0  0  0  0  0  0  0
    1.6946   -6.5101    4.5438 H   0  0  0  0  0  0  0  0  0  0  0  0
   -0.5018  -10.0270    4.1242 H   0  0  0  0  0  0  0  0  0  0  0  0
  1  2  1  0
  1 24  1  0
  1 25  1  0
  1 26  1  0
  2  6  1  0
  2  3  1  0
  2 44  1  1
  3 23  1  0
  3  4  1  0
  3 27  1  1
  4  5  1  0
  4 28  1  0
  4 29  1  0
  5  6  1  0
  5 30  1  0
  5 31  1  0
  6  7  1  0
  6 32  1  6
  7  8  1  0
  7 33  1  0
  7 34  1  0
  8  9  1  0
  8 23  1  0
  8 35  1  1
  9 10  1  0
 10 11  2  0
 10 12  1  0
 12 13  2  3
 12 36  1  0
 13 14  1  0
 13 37  1  0
 14 22  1  0
 14 15  2  0
 15 16  1  0
 15 38  1  0
 16 17  2  0
 16 39  1  0
 17 18  1  0
 17 40  1  0
 18 19  1  0
 18 22  2  0
 19 20  2  0
 19 21  1  0
 22 41  1  0
 23 42  1  0
 23 43  1  0
M  CHG  3   2   1  19   1  21  -1
M  END
>  <i_m_ct_stereo_status>  (290) 
1

>  <s_m_source_file>  (290) 
/var/tmp/pbs.5076255.sched01/tmppdndq9e4/92von5zo7h.sdf

>  <i_m_source_file_index>  (290) 
29

>  <i_lp_mmshare_version>  (290) 
48012

>  <i_f3d_flags>  (290) 
0

>  <s_epik_input>  (290) 
W0NIM11OKFtDQEBIXTEyKVtDQEhdKFtDSDJdW0NIMl0xKVtDSDJdW0NASF0oW0NIMl0yKU9DKD1PKS9bQ0hdPVtDSF0vYzNbY0hdW2NIXVtjSF1jKFtOK10oPU8pW08tXSlbY0hdMw==

>  <s_epik_cmdline>  (290) 
J2VwaWtfcHl0aG9uJywgJy1waHQnLCAnMi4wJywgJy1waCcsICc3LjAnLCAnLXRuJywgJzgnLCAnLW1hJywgJzIwMCcsICctaW1hZScsICc8aW5maWxlLm1hZT4nLCAnLW9tYWUnLCAnPG91dGZpbGUubWFlPic=

>  <r_epik_Ionization_Penalty>  (290) 
0.0064655

>  <r_epik_Ionization_Penalty_Charging>  (290) 
0.0064655

>  <r_epik_Ionization_Penalty_Neutral>  (290) 
0

>  <r_epik_State_Penalty>  (290) 
0.00478368

>  <r_epik_Charging_Adjusted_Penalty>  (290) 
0.0112492

>  <i_epik_Tot_Q>  (290) 
1

>  <i_epik_Tot_abs_Q>  (290) 
3

>  <s_epik_Chemistry_Notes>  (290) 
This compound has an ester and may undergo hydrolysis at high or low pH.

>  <s_lp_Force_Field>  (290) 
OPLS3e

>  <r_lp_Energy>  (290) 
43.7103

>  <b_lp_Chiralities_Consistent>  (290) 
1

>  <s_lp_Variant>  (290) 
73:0-4

>  <s_i_glide_gridfile>  (290) 
pfpi4k_grid

>  <i_i_glide_lignum>  (290) 
29

>  <i_i_glide_rotatable_bonds>  (290) 
5

>  <r_i_docking_score>  (290) 
-2.92934

>  <r_i_glide_ligand_efficiency>  (290) 
-0.127363

>  <r_i_glide_ligand_efficiency_sa>  (290) 
-0.362203

>  <r_i_glide_ligand_efficiency_ln>  (290) 
-0.708342

>  <r_i_glide_gscore>  (290) 
-2.92934

>  <r_i_glide_lipo>  (290) 
-0.156574

>  <r_i_glide_hbond>  (290) 
-0.0511628

>  <r_i_glide_metal>  (290) 
-0

>  <r_i_glide_rewards>  (290) 
-1.38021

>  <r_i_glide_evdw>  (290) 
-26.2648

>  <r_i_glide_ecoul>  (290) 
-4.18023

>  <r_i_glide_erotb>  (290) 
0.739885

>  <r_i_glide_esite>  (290) 
-0.141005

>  <r_i_glide_emodel>  (290) 
-36.7615

>  <r_i_glide_energy>  (290) 
-30.445

>  <r_i_glide_einternal>  (290) 
3.4252

>  <r_i_glide_intrahb_reward>  (290) 
-0

>  <i_i_glide_confnum>  (290) 
3

>  <i_i_glide_posenum>  (290) 
26

>  <r_i_glide_eff_state_penalty>  (290) 
0

>  <ligand_id>  (290) 
73

>  <original_smiles>  (290) 
CN1C2CCC1CC(OC(=O)C=Cc1cccc([N+](=O)[O-])c1)C2

>  <smiles>  (290) 
[H]C(C(=O)OC1([H])C([H])([H])C2([H])C([H])([H])C([H])([H])C([H])(C1([H])[H])[N+]2([H])C([H])([H])[H])=C([H])c1c([H])c([H])c([H])c([N+](=O)[O-])c1[H]

$$$$
74:0:0
     RDKit          3D

 32 34  0  0  1  0  0  0  0  0999 V2000
    3.6913   -2.5933   -3.6397 C   0  0  0  0  0  0  0  0  0  0  0  0
    4.2083   -2.6404   -2.1921 C   0  0  1  0  0  0  0  0  0  0  0  0
    5.5409   -3.4477   -2.0615 C   0  0  0  0  0  0  0  0  0  0  0  0
    6.0287   -3.4733   -0.5784 C   0  0  1  0  0  0  0  0  0  0  0  0
    6.1406   -2.0526   -0.0363 C   0  0  0  0  0  0  0  0  0  0  0  0
    4.6715   -1.5912   -0.0966 C   0  0  1  0  0  0  0  0  0  0  0  0
    4.3912   -0.4046    0.8453 C   0  0  0  0  0  0  0  0  0  0  0  0
    4.3979   -1.2522   -1.5768 C   0  0  0  0  0  0  0  0  0  0  0  0
    3.8468   -2.9105    0.1543 C   0  0  2  0  0  0  0  0  0  0  0  0
    2.8365   -2.8928    1.3170 C   0  0  0  0  0  0  0  0  0  0  0  0
    4.9211   -4.0014    0.3294 C   0  0  0  0  0  0  0  0  0  0  0  0
    3.1790   -3.1982   -1.2044 C   0  0  0  0  0  0  0  0  0  0  0  0
    3.4957   -3.5966   -4.0221 H   0  0  0  0  0  0  0  0  0  0  0  0
    4.4143   -2.1154   -4.3006 H   0  0  0  0  0  0  0  0  0  0  0  0
    2.7598   -2.0296   -3.7099 H   0  0  0  0  0  0  0  0  0  0  0  0
    5.3888   -4.4686   -2.4161 H   0  0  0  0  0  0  0  0  0  0  0  0
    6.3129   -3.0115   -2.6983 H   0  0  0  0  0  0  0  0  0  0  0  0
    6.9590   -4.0319   -0.4660 H   0  0  0  0  0  0  0  0  0  0  0  0
    6.5152   -2.0581    0.9897 H   0  0  0  0  0  0  0  0  0  0  0  0
    6.8199   -1.4389   -0.6239 H   0  0  0  0  0  0  0  0  0  0  0  0
    3.3503   -0.0835    0.7816 H   0  0  0  0  0  0  0  0  0  0  0  0
    5.0117    0.4528    0.5830 H   0  0  0  0  0  0  0  0  0  0  0  0
    4.6019   -0.6557    1.8846 H   0  0  0  0  0  0  0  0  0  0  0  0
    5.1966   -0.6813   -2.0495 H   0  0  0  0  0  0  0  0  0  0  0  0
    3.4812   -0.6698   -1.6782 H   0  0  0  0  0  0  0  0  0  0  0  0
    2.3241   -3.8523    1.4010 H   0  0  0  0  0  0  0  0  0  0  0  0
    2.0760   -2.1262    1.1684 H   0  0  0  0  0  0  0  0  0  0  0  0
    3.3258   -2.6991    2.2720 H   0  0  0  0  0  0  0  0  0  0  0  0
    4.5840   -5.0020    0.0508 H   0  0  0  0  0  0  0  0  0  0  0  0
    5.2684   -4.0518    1.3626 H   0  0  0  0  0  0  0  0  0  0  0  0
    2.2326   -2.6626   -1.2955 H   0  0  0  0  0  0  0  0  0  0  0  0
    2.9636   -4.2539   -1.3619 H   0  0  0  0  0  0  0  0  0  0  0  0
  2  1  1  6
  1 13  1  0
  1 14  1  0
  1 15  1  0
  2  8  1  0
  2 12  1  0
  2  3  1  0
  3  4  1  0
  3 16  1  0
  3 17  1  0
  4 11  1  0
  4  5  1  0
  4 18  1  6
  5  6  1  0
  5 19  1  0
  5 20  1  0
  6  7  1  1
  6  8  1  0
  6  9  1  0
  7 21  1  0
  7 22  1  0
  7 23  1  0
  8 24  1  0
  8 25  1  0
  9 10  1  1
  9 11  1  0
  9 12  1  0
 10 26  1  0
 10 27  1  0
 10 28  1  0
 11 29  1  0
 11 30  1  0
 12 31  1  0
 12 32  1  0
M  END
>  <i_m_ct_stereo_status>  (291) 
1

>  <s_m_source_file>  (291) 
/var/tmp/pbs.5076255.sched01/tmppdndq9e4/92von5zo7h.sdf

>  <i_m_source_file_index>  (291) 
30

>  <i_lp_mmshare_version>  (291) 
48012

>  <i_f3d_flags>  (291) 
0

>  <s_epik_input>  (291) 
W0NIM11bQ0BAXTEyW0NIMl1bQ0BIXTNbQ0gyXVtDQEBdKFtDSDNdKShbQ0gyXTEpW0NAXShbQ0gzXSkoW0NIMl0zKVtDSDJdMg==

>  <s_epik_cmdline>  (291) 
J2VwaWtfcHl0aG9uJywgJy1waHQnLCAnMi4wJywgJy1waCcsICc3LjAnLCAnLXRuJywgJzgnLCAnLW1hJywgJzIwMCcsICctaW1hZScsICc8aW5maWxlLm1hZT4nLCAnLW9tYWUnLCAnPG91dGZpbGUubWFlPic=

>  <r_lp_tautomer_probability>  (291) 
1

>  <r_epik_Ionization_Penalty>  (291) 
0

>  <r_epik_Ionization_Penalty_Charging>  (291) 
0

>  <r_epik_Ionization_Penalty_Neutral>  (291) 
0

>  <r_epik_State_Penalty>  (291) 
-0

>  <r_epik_Charging_Adjusted_Penalty>  (291) 
0

>  <i_epik_Tot_Q>  (291) 
0

>  <i_epik_Tot_abs_Q>  (291) 
0

>  <s_lp_Force_Field>  (291) 
OPLS3e

>  <r_lp_Energy>  (291) 
36.893

>  <b_lp_Chiralities_Consistent>  (291) 
1

>  <s_lp_Variant>  (291) 
74:0-1

>  <s_i_glide_gridfile>  (291) 
pfpi4k_grid

>  <i_i_glide_lignum>  (291) 
30

>  <i_i_glide_rotatable_bonds>  (291) 
0

>  <r_i_docking_score>  (291) 
-3.917

>  <r_i_glide_ligand_efficiency>  (291) 
-0.326416

>  <r_i_glide_ligand_efficiency_sa>  (291) 
-0.747307

>  <r_i_glide_ligand_efficiency_ln>  (291) 
-1.12399

>  <r_i_glide_gscore>  (291) 
-3.917

>  <r_i_glide_lipo>  (291) 
-0.692679

>  <r_i_glide_hbond>  (291) 
0

>  <r_i_glide_metal>  (291) 
-0

>  <r_i_glide_rewards>  (291) 
-2.25

>  <r_i_glide_evdw>  (291) 
-19.6403

>  <r_i_glide_ecoul>  (291) 
0.0513189

>  <r_i_glide_erotb>  (291) 
0

>  <r_i_glide_esite>  (291) 
0

>  <r_i_glide_emodel>  (291) 
-24.2672

>  <r_i_glide_energy>  (291) 
-19.589

>  <r_i_glide_einternal>  (291) 
0

>  <r_i_glide_intrahb_reward>  (291) 
-0

>  <i_i_glide_confnum>  (291) 
2

>  <i_i_glide_posenum>  (291) 
37

>  <r_i_glide_eff_state_penalty>  (291) 
0

>  <ligand_id>  (291) 
74

>  <original_smiles>  (291) 
CC12CC3CC(C)(C1)C(C)(C3)C2

>  <smiles>  (291) 
[H]C([H])([H])C12C([H])([H])C3([H])C([H])([H])C(C([H])([H])[H])(C1([H])[H])C(C([H])([H])[H])(C3([H])[H])C2([H])[H]

$$$$
74:0:1
     RDKit          3D

 32 34  0  0  1  0  0  0  0  0999 V2000
    3.8133   -2.7750   -3.6342 C   0  0  0  0  0  0  0  0  0  0  0  0
    4.2070   -2.6503   -2.1525 C   0  0  1  0  0  0  0  0  0  0  0  0
    4.5281   -1.1789   -1.7401 C   0  0  0  0  0  0  0  0  0  0  0  0
    4.9157   -1.0946   -0.2306 C   0  0  1  0  0  0  0  0  0  0  0  0
    3.8224   -1.7299    0.6276 C   0  0  0  0  0  0  0  0  0  0  0  0
    3.8837   -3.1953    0.1539 C   0  0  1  0  0  0  0  0  0  0  0  0
    3.2670   -4.1696    1.1758 C   0  0  0  0  0  0  0  0  0  0  0  0
    3.1481   -3.2225   -1.2017 C   0  0  0  0  0  0  0  0  0  0  0  0
    5.3977   -3.4168   -0.2258 C   0  0  2  0  0  0  0  0  0  0  0  0
    6.1269   -4.5875    0.4606 C   0  0  0  0  0  0  0  0  0  0  0  0
    6.0643   -2.0580    0.0682 C   0  0  0  0  0  0  0  0  0  0  0  0
    5.3851   -3.5479   -1.7643 C   0  0  0  0  0  0  0  0  0  0  0  0
    4.6152   -2.4274   -4.2839 H   0  0  0  0  0  0  0  0  0  0  0  0
    2.9228   -2.1852   -3.8576 H   0  0  0  0  0  0  0  0  0  0  0  0
    3.5946   -3.8096   -3.9014 H   0  0  0  0  0  0  0  0  0  0  0  0
    5.3399   -0.7817   -2.3491 H   0  0  0  0  0  0  0  0  0  0  0  0
    3.6588   -0.5520   -1.9345 H   0  0  0  0  0  0  0  0  0  0  0  0
    5.1376   -0.0735    0.0795 H   0  0  0  0  0  0  0  0  0  0  0  0
    4.0728   -1.6467    1.6868 H   0  0  0  0  0  0  0  0  0  0  0  0
    2.8466   -1.2610    0.4866 H   0  0  0  0  0  0  0  0  0  0  0  0
    3.3058   -5.1989    0.8184 H   0  0  0  0  0  0  0  0  0  0  0  0
    2.2214   -3.9256    1.3639 H   0  0  0  0  0  0  0  0  0  0  0  0
    3.7889   -4.1268    2.1321 H   0  0  0  0  0  0  0  0  0  0  0  0
    2.2169   -2.6557   -1.2080 H   0  0  0  0  0  0  0  0  0  0  0  0
    2.8914   -4.2450   -1.4789 H   0  0  0  0  0  0  0  0  0  0  0  0
    7.1625   -4.6507    0.1255 H   0  0  0  0  0  0  0  0  0  0  0  0
    5.6521   -5.5416    0.2299 H   0  0  0  0  0  0  0  0  0  0  0  0
    6.1399   -4.4719    1.5446 H   0  0  0  0  0  0  0  0  0  0  0  0
    6.9516   -1.8660   -0.5353 H   0  0  0  0  0  0  0  0  0  0  0  0
    6.3623   -1.9828    1.1159 H   0  0  0  0  0  0  0  0  0  0  0  0
    5.1874   -4.5794   -2.0611 H   0  0  0  0  0  0  0  0  0  0  0  0
    6.3220   -3.2491   -2.2380 H   0  0  0  0  0  0  0  0  0  0  0  0
  2  1  1  6
  1 13  1  0
  1 14  1  0
  1 15  1  0
  2  8  1  0
  2 12  1  0
  2  3  1  0
  3  4  1  0
  3 16  1  0
  3 17  1  0
  4 11  1  0
  4  5  1  0
  4 18  1  1
  5  6  1  0
  5 19  1  0
  5 20  1  0
  6  7  1  1
  6  8  1  0
  6  9  1  0
  7 21  1  0
  7 22  1  0
  7 23  1  0
  8 24  1  0
  8 25  1  0
  9 10  1  1
  9 11  1  0
  9 12  1  0
 10 26  1  0
 10 27  1  0
 10 28  1  0
 11 29  1  0
 11 30  1  0
 12 31  1  0
 12 32  1  0
M  END
>  <i_m_ct_stereo_status>  (292) 
1

>  <s_m_source_file>  (292) 
/var/tmp/pbs.5076255.sched01/tmppdndq9e4/92von5zo7h.sdf

>  <i_m_source_file_index>  (292) 
30

>  <i_lp_mmshare_version>  (292) 
48012

>  <i_f3d_flags>  (292) 
0

>  <s_epik_input>  (292) 
W0NIM11bQ0BAXTEyW0NIMl1bQ0BIXTNbQ0gyXVtDQEBdKFtDSDNdKShbQ0gyXTEpW0NAXShbQ0gzXSkoW0NIMl0zKVtDSDJdMg==

>  <s_epik_cmdline>  (292) 
J2VwaWtfcHl0aG9uJywgJy1waHQnLCAnMi4wJywgJy1waCcsICc3LjAnLCAnLXRuJywgJzgnLCAnLW1hJywgJzIwMCcsICctaW1hZScsICc8aW5maWxlLm1hZT4nLCAnLW9tYWUnLCAnPG91dGZpbGUubWFlPic=

>  <r_lp_tautomer_probability>  (292) 
1

>  <r_epik_Ionization_Penalty>  (292) 
0

>  <r_epik_Ionization_Penalty_Charging>  (292) 
0

>  <r_epik_Ionization_Penalty_Neutral>  (292) 
0

>  <r_epik_State_Penalty>  (292) 
-0

>  <r_epik_Charging_Adjusted_Penalty>  (292) 
0

>  <i_epik_Tot_Q>  (292) 
0

>  <i_epik_Tot_abs_Q>  (292) 
0

>  <s_lp_Force_Field>  (292) 
OPLS3e

>  <r_lp_Energy>  (292) 
36.893

>  <b_lp_Chiralities_Consistent>  (292) 
1

>  <s_lp_Variant>  (292) 
74:0-1

>  <s_i_glide_gridfile>  (292) 
pfpi4k_grid

>  <i_i_glide_lignum>  (292) 
30

>  <i_i_glide_rotatable_bonds>  (292) 
0

>  <r_i_docking_score>  (292) 
-3.78391

>  <r_i_glide_ligand_efficiency>  (292) 
-0.315326

>  <r_i_glide_ligand_efficiency_sa>  (292) 
-0.721916

>  <r_i_glide_ligand_efficiency_ln>  (292) 
-1.0858

>  <r_i_glide_gscore>  (292) 
-3.78391

>  <r_i_glide_lipo>  (292) 
-0.545101

>  <r_i_glide_hbond>  (292) 
0

>  <r_i_glide_metal>  (292) 
-0

>  <r_i_glide_rewards>  (292) 
-2.25

>  <r_i_glide_evdw>  (292) 
-19.0274

>  <r_i_glide_ecoul>  (292) 
-0.249571

>  <r_i_glide_erotb>  (292) 
0

>  <r_i_glide_esite>  (292) 
0

>  <r_i_glide_emodel>  (292) 
-23.7969

>  <r_i_glide_energy>  (292) 
-19.277

>  <r_i_glide_einternal>  (292) 
0

>  <r_i_glide_intrahb_reward>  (292) 
-0

>  <i_i_glide_confnum>  (292) 
1

>  <i_i_glide_posenum>  (292) 
6

>  <r_i_glide_eff_state_penalty>  (292) 
0

>  <ligand_id>  (292) 
74

>  <original_smiles>  (292) 
CC12CC3CC(C)(C1)C(C)(C3)C2

>  <smiles>  (292) 
[H]C([H])([H])C12C([H])([H])C3([H])C([H])([H])C(C([H])([H])[H])(C1([H])[H])C(C([H])([H])[H])(C3([H])[H])C2([H])[H]

$$$$
74:0:2
     RDKit          3D

 32 34  0  0  1  0  0  0  0  0999 V2000
    3.8774   -1.1629   -2.9173 C   0  0  0  0  0  0  0  0  0  0  0  0
    4.3972   -1.9639   -1.7125 C   0  0  1  0  0  0  0  0  0  0  0  0
    5.7982   -2.6089   -1.9770 C   0  0  0  0  0  0  0  0  0  0  0  0
    6.2910   -3.4016   -0.7297 C   0  0  1  0  0  0  0  0  0  0  0  0
    6.2633   -2.5080    0.5085 C   0  0  0  0  0  0  0  0  0  0  0  0
    4.7555   -2.2195    0.6344 C   0  0  1  0  0  0  0  0  0  0  0  0
    4.3622   -1.7801    2.0564 C   0  0  0  0  0  0  0  0  0  0  0  0
    4.4490   -1.1402   -0.4224 C   0  0  0  0  0  0  0  0  0  0  0  0
    4.0630   -3.5192    0.0693 C   0  0  2  0  0  0  0  0  0  0  0  0
    3.0553   -4.2343    0.9870 C   0  0  0  0  0  0  0  0  0  0  0  0
    5.2396   -4.4325   -0.3250 C   0  0  0  0  0  0  0  0  0  0  0  0
    3.4269   -3.0586   -1.2590 C   0  0  0  0  0  0  0  0  0  0  0  0
    3.7804   -1.7949   -3.8009 H   0  0  0  0  0  0  0  0  0  0  0  0
    4.5506   -0.3404   -3.1615 H   0  0  0  0  0  0  0  0  0  0  0  0
    2.8956   -0.7320   -2.7118 H   0  0  0  0  0  0  0  0  0  0  0  0
    5.7515   -3.2707   -2.8439 H   0  0  0  0  0  0  0  0  0  0  0  0
    6.5280   -1.8393   -2.2171 H   0  0  0  0  0  0  0  0  0  0  0  0
    7.2716   -3.8466   -0.8956 H   0  0  0  0  0  0  0  0  0  0  0  0
    6.6346   -3.0534    1.3783 H   0  0  0  0  0  0  0  0  0  0  0  0
    6.8755   -1.6107    0.4054 H   0  0  0  0  0  0  0  0  0  0  0  0
    3.2946   -1.5655    2.1231 H   0  0  0  0  0  0  0  0  0  0  0  0
    4.8991   -0.8757    2.3451 H   0  0  0  0  0  0  0  0  0  0  0  0
    4.5969   -2.5514    2.7902 H   0  0  0  0  0  0  0  0  0  0  0  0
    5.1898   -0.3404   -0.4554 H   0  0  0  0  0  0  0  0  0  0  0  0
    3.4806   -0.6743   -0.2278 H   0  0  0  0  0  0  0  0  0  0  0  0
    2.6422   -5.1166    0.4967 H   0  0  0  0  0  0  0  0  0  0  0  0
    2.2242   -3.5781    1.2477 H   0  0  0  0  0  0  0  0  0  0  0  0
    3.5249   -4.5645    1.9143 H   0  0  0  0  0  0  0  0  0  0  0  0
    5.0012   -5.1324   -1.1277 H   0  0  0  0  0  0  0  0  0  0  0  0
    5.5901   -5.0191    0.5257 H   0  0  0  0  0  0  0  0  0  0  0  0
    2.4284   -2.6547   -1.0877 H   0  0  0  0  0  0  0  0  0  0  0  0
    3.3235   -3.8561   -1.9947 H   0  0  0  0  0  0  0  0  0  0  0  0
  2  1  1  6
  1 13  1  0
  1 14  1  0
  1 15  1  0
  2  8  1  0
  2 12  1  0
  2  3  1  0
  3  4  1  0
  3 16  1  0
  3 17  1  0
  4 11  1  0
  4  5  1  0
  4 18  1  6
  5  6  1  0
  5 19  1  0
  5 20  1  0
  6  7  1  1
  6  8  1  0
  6  9  1  0
  7 21  1  0
  7 22  1  0
  7 23  1  0
  8 24  1  0
  8 25  1  0
  9 10  1  1
  9 11  1  0
  9 12  1  0
 10 26  1  0
 10 27  1  0
 10 28  1  0
 11 29  1  0
 11 30  1  0
 12 31  1  0
 12 32  1  0
M  END
>  <i_m_ct_stereo_status>  (293) 
1

>  <s_m_source_file>  (293) 
/var/tmp/pbs.5076255.sched01/tmppdndq9e4/92von5zo7h.sdf

>  <i_m_source_file_index>  (293) 
30

>  <i_lp_mmshare_version>  (293) 
48012

>  <i_f3d_flags>  (293) 
0

>  <s_epik_input>  (293) 
W0NIM11bQ0BAXTEyW0NIMl1bQ0BIXTNbQ0gyXVtDQEBdKFtDSDNdKShbQ0gyXTEpW0NAXShbQ0gzXSkoW0NIMl0zKVtDSDJdMg==

>  <s_epik_cmdline>  (293) 
J2VwaWtfcHl0aG9uJywgJy1waHQnLCAnMi4wJywgJy1waCcsICc3LjAnLCAnLXRuJywgJzgnLCAnLW1hJywgJzIwMCcsICctaW1hZScsICc8aW5maWxlLm1hZT4nLCAnLW9tYWUnLCAnPG91dGZpbGUubWFlPic=

>  <r_lp_tautomer_probability>  (293) 
1

>  <r_epik_Ionization_Penalty>  (293) 
0

>  <r_epik_Ionization_Penalty_Charging>  (293) 
0

>  <r_epik_Ionization_Penalty_Neutral>  (293) 
0

>  <r_epik_State_Penalty>  (293) 
-0

>  <r_epik_Charging_Adjusted_Penalty>  (293) 
0

>  <i_epik_Tot_Q>  (293) 
0

>  <i_epik_Tot_abs_Q>  (293) 
0

>  <s_lp_Force_Field>  (293) 
OPLS3e

>  <r_lp_Energy>  (293) 
36.893

>  <b_lp_Chiralities_Consistent>  (293) 
1

>  <s_lp_Variant>  (293) 
74:0-1

>  <s_i_glide_gridfile>  (293) 
pfpi4k_grid

>  <i_i_glide_lignum>  (293) 
30

>  <i_i_glide_rotatable_bonds>  (293) 
0

>  <r_i_docking_score>  (293) 
-3.49437

>  <r_i_glide_ligand_efficiency>  (293) 
-0.291197

>  <r_i_glide_ligand_efficiency_sa>  (293) 
-0.666676

>  <r_i_glide_ligand_efficiency_ln>  (293) 
-1.00272

>  <r_i_glide_gscore>  (293) 
-3.49437

>  <r_i_glide_lipo>  (293) 
-0.289928

>  <r_i_glide_hbond>  (293) 
0

>  <r_i_glide_metal>  (293) 
-0

>  <r_i_glide_rewards>  (293) 
-2.25

>  <r_i_glide_evdw>  (293) 
-18.5402

>  <r_i_glide_ecoul>  (293) 
-0.182875

>  <r_i_glide_erotb>  (293) 
0

>  <r_i_glide_esite>  (293) 
0

>  <r_i_glide_emodel>  (293) 
-22.8959

>  <r_i_glide_energy>  (293) 
-18.7231

>  <r_i_glide_einternal>  (293) 
0

>  <r_i_glide_intrahb_reward>  (293) 
-0

>  <i_i_glide_confnum>  (293) 
2

>  <i_i_glide_posenum>  (293) 
17

>  <r_i_glide_eff_state_penalty>  (293) 
0

>  <ligand_id>  (293) 
74

>  <original_smiles>  (293) 
CC12CC3CC(C)(C1)C(C)(C3)C2

>  <smiles>  (293) 
[H]C([H])([H])C12C([H])([H])C3([H])C([H])([H])C(C([H])([H])[H])(C1([H])[H])C(C([H])([H])[H])(C3([H])[H])C2([H])[H]

$$$$
75:0:0
     RDKit          3D

 32 34  0  0  1  0  0  0  0  0999 V2000
    3.3943   -1.3735   -3.5595 C   0  0  0  0  0  0  0  0  0  0  0  0
    4.0263   -2.6151   -2.9311 C   0  0  1  0  0  0  0  0  0  0  0  0
    3.6564   -3.7469   -3.6947 O   0  0  0  0  0  0  0  0  0  0  0  0
    5.4112   -2.4739   -2.9123 O   0  0  0  0  0  0  0  0  0  0  0  0
    5.9428   -3.2971   -1.9153 C   0  0  1  0  0  0  0  0  0  0  0  0
    7.2089   -2.8577   -1.4541 O   0  0  0  0  0  0  0  0  0  0  0  0
    4.9040   -3.3017   -0.7979 C   0  0  1  0  0  0  0  0  0  0  0  0
    4.7364   -4.5953   -0.0294 C   0  0  0  0  0  0  0  0  0  0  0  0
    5.0166   -5.6934   -0.5112 O   0  0  0  0  0  0  0  0  0  0  0  0
    4.1630   -4.5502    1.3745 C   0  0  0  0  0  0  0  0  0  0  0  0
    3.0459   -3.4999    1.4903 C   0  0  0  0  0  0  0  0  0  0  0  0
    3.5088   -2.0906    1.0821 C   0  0  1  0  0  0  0  0  0  0  0  0
    4.3765   -1.6521    2.1159 O   0  0  0  0  0  0  0  0  0  0  0  0
    4.2145   -2.0471   -0.2781 C   0  0  1  0  0  0  0  0  0  0  0  0
    4.8933   -0.6981   -0.4596 C   0  0  0  0  0  0  0  0  0  0  0  0
    3.6525   -2.7905   -1.4718 C   0  0  1  0  0  0  0  0  0  0  0  0
    3.7739   -1.2253   -4.5677 H   0  0  0  0  0  0  0  0  0  0  0  0
    3.5859   -0.4835   -2.9630 H   0  0  0  0  0  0  0  0  0  0  0  0
    2.3138   -1.5210   -3.6137 H   0  0  0  0  0  0  0  0  0  0  0  0
    3.5899   -4.5113   -3.1316 H   0  0  0  0  0  0  0  0  0  0  0  0
    6.0750   -4.2527   -2.3811 H   0  0  0  0  0  0  0  0  0  0  0  0
    7.8363   -3.0552   -2.1291 H   0  0  0  0  0  0  0  0  0  0  0  0
    3.7817   -5.5405    1.6392 H   0  0  0  0  0  0  0  0  0  0  0  0
    4.9751   -4.3348    2.0682 H   0  0  0  0  0  0  0  0  0  0  0  0
    2.2136   -3.8065    0.8600 H   0  0  0  0  0  0  0  0  0  0  0  0
    2.6619   -3.4987    2.5114 H   0  0  0  0  0  0  0  0  0  0  0  0
    2.6507   -1.4145    1.0472 H   0  0  0  0  0  0  0  0  0  0  0  0
    3.8720   -1.5621    2.9077 H   0  0  0  0  0  0  0  0  0  0  0  0
    4.1996    0.1307   -0.3164 H   0  0  0  0  0  0  0  0  0  0  0  0
    5.3255   -0.5964   -1.4507 H   0  0  0  0  0  0  0  0  0  0  0  0
    5.7089   -0.5765    0.2580 H   0  0  0  0  0  0  0  0  0  0  0  0
    2.7296   -3.3240   -1.3084 H   0  0  0  0  0  0  0  0  0  0  0  0
  1  2  1  0
  1 17  1  0
  1 18  1  0
  1 19  1  0
  2 16  1  0
  2  3  1  6
  2  4  1  0
  3 20  1  0
  4  5  1  0
  5  6  1  0
  5  7  1  0
  5 21  1  6
  6 22  1  0
  7 14  1  0
  7 16  1  0
  7  8  1  1
  8  9  2  0
  8 10  1  0
 10 11  1  0
 10 23  1  0
 10 24  1  0
 11 12  1  0
 11 25  1  0
 11 26  1  0
 12 13  1  0
 12 14  1  0
 12 27  1  6
 13 28  1  0
 14 15  1  6
 14 16  1  0
 15 29  1  0
 15 30  1  0
 15 31  1  0
 16 32  1  6
M  END
>  <i_m_ct_stereo_status>  (294) 
1

>  <s_m_source_file>  (294) 
/var/tmp/pbs.5076255.sched01/tmppdndq9e4/92von5zo7h.sdf

>  <i_m_source_file_index>  (294) 
31

>  <i_lp_mmshare_version>  (294) 
48012

>  <i_f3d_flags>  (294) 
0

>  <s_epik_input>  (294) 
W09IXVtDQEBIXTFPW0NAQF0oW0NIM10pKFtPSF0pW0NAQEhdMltDQEBdKFtDQF0xMjMpKFtDSDNdKVtDQEhdKFtPSF0pW0NIMl1bQ0gyXUMzPU8=

>  <s_epik_cmdline>  (294) 
J2VwaWtfcHl0aG9uJywgJy1waHQnLCAnMi4wJywgJy1waCcsICc3LjAnLCAnLXRuJywgJzgnLCAnLW1hJywgJzIwMCcsICctaW1hZScsICc8aW5maWxlLm1hZT4nLCAnLW9tYWUnLCAnPG91dGZpbGUubWFlPic=

>  <r_lp_tautomer_probability>  (294) 
1

>  <r_epik_Ionization_Penalty>  (294) 
1.18787e-06

>  <r_epik_Ionization_Penalty_Charging>  (294) 
0

>  <r_epik_Ionization_Penalty_Neutral>  (294) 
1.18787e-06

>  <r_epik_State_Penalty>  (294) 
-0

>  <r_epik_Charging_Adjusted_Penalty>  (294) 
0

>  <i_epik_Tot_Q>  (294) 
0

>  <i_epik_Tot_abs_Q>  (294) 
0

>  <s_epik_Chemistry_Notes>  (294) 
This compound contains an acetal/aminal-like group ( X-CH(R)-Y where X, Y are N, S, or O) that may be acid/base labile, releasing an aldehyde.

>  <s_lp_Force_Field>  (294) 
OPLS3e

>  <r_lp_Energy>  (294) 
54.5758

>  <b_lp_Chiralities_Consistent>  (294) 
1

>  <s_lp_Variant>  (294) 
75:0-1

>  <s_i_glide_gridfile>  (294) 
pfpi4k_grid

>  <i_i_glide_lignum>  (294) 
31

>  <i_i_glide_rotatable_bonds>  (294) 
3

>  <r_i_docking_score>  (294) 
-4.85518

>  <r_i_glide_ligand_efficiency>  (294) 
-0.303449

>  <r_i_glide_ligand_efficiency_sa>  (294) 
-0.764644

>  <r_i_glide_ligand_efficiency_ln>  (294) 
-1.28696

>  <r_i_glide_gscore>  (294) 
-4.85518

>  <r_i_glide_lipo>  (294) 
-0.278848

>  <r_i_glide_hbond>  (294) 
0

>  <r_i_glide_metal>  (294) 
-0

>  <r_i_glide_rewards>  (294) 
-2.2635

>  <r_i_glide_evdw>  (294) 
-20.4703

>  <r_i_glide_ecoul>  (294) 
-8.59545

>  <r_i_glide_erotb>  (294) 
0

>  <r_i_glide_esite>  (294) 
0

>  <r_i_glide_emodel>  (294) 
-36.9853

>  <r_i_glide_energy>  (294) 
-29.0657

>  <r_i_glide_einternal>  (294) 
1.49702

>  <r_i_glide_intrahb_reward>  (294) 
-0

>  <i_i_glide_confnum>  (294) 
1

>  <i_i_glide_posenum>  (294) 
5

>  <r_i_glide_eff_state_penalty>  (294) 
0

>  <ligand_id>  (294) 
75

>  <original_smiles>  (294) 
CC1(O)OC(O)C23C(=O)CCC(O)C2(C)C13

>  <smiles>  (294) 
[H]OC1([H])OC(O[H])(C([H])([H])[H])C2([H])C13C(=O)C([H])([H])C([H])([H])C([H])(O[H])C23C([H])([H])[H]

$$$$
75:0:1
     RDKit          3D

 32 34  0  0  1  0  0  0  0  0999 V2000
    3.4059   -1.3705   -3.5526 C   0  0  0  0  0  0  0  0  0  0  0  0
    4.0311   -2.6150   -2.9205 C   0  0  1  0  0  0  0  0  0  0  0  0
    3.6693   -3.7457   -3.6887 O   0  0  0  0  0  0  0  0  0  0  0  0
    5.4178   -2.4768   -2.8927 O   0  0  0  0  0  0  0  0  0  0  0  0
    5.9469   -3.2910   -1.8938 C   0  0  1  0  0  0  0  0  0  0  0  0
    7.2114   -2.8548   -1.4298 O   0  0  0  0  0  0  0  0  0  0  0  0
    4.9045   -3.3044   -0.7861 C   0  0  1  0  0  0  0  0  0  0  0  0
    4.7378   -4.5998   -0.0176 C   0  0  0  0  0  0  0  0  0  0  0  0
    5.0223   -5.6945   -0.4988 O   0  0  0  0  0  0  0  0  0  0  0  0
    4.1530   -4.5521    1.3873 C   0  0  0  0  0  0  0  0  0  0  0  0
    3.0372   -3.5023    1.4940 C   0  0  0  0  0  0  0  0  0  0  0  0
    3.4980   -2.0936    1.0885 C   0  0  1  0  0  0  0  0  0  0  0  0
    4.3588   -1.6521    2.1246 O   0  0  0  0  0  0  0  0  0  0  0  0
    4.2068   -2.0464   -0.2703 C   0  0  1  0  0  0  0  0  0  0  0  0
    4.8878   -0.6938   -0.4412 C   0  0  0  0  0  0  0  0  0  0  0  0
    3.6519   -2.7938   -1.4649 C   0  0  1  0  0  0  0  0  0  0  0  0
    3.7941   -1.2220   -4.5567 H   0  0  0  0  0  0  0  0  0  0  0  0
    3.5965   -0.4840   -2.9541 H   0  0  0  0  0  0  0  0  0  0  0  0
    2.3292   -1.5185   -3.6129 H   0  0  0  0  0  0  0  0  0  0  0  0
    3.6012   -4.5098   -3.1237 H   0  0  0  0  0  0  0  0  0  0  0  0
    6.0836   -4.2618   -2.3592 H   0  0  0  0  0  0  0  0  0  0  0  0
    7.8456   -3.0546   -2.0954 H   0  0  0  0  0  0  0  0  0  0  0  0
    3.7721   -5.5406    1.6453 H   0  0  0  0  0  0  0  0  0  0  0  0
    4.9617   -4.3357    2.0840 H   0  0  0  0  0  0  0  0  0  0  0  0
    2.2103   -3.8126    0.8600 H   0  0  0  0  0  0  0  0  0  0  0  0
    2.6509   -3.4962    2.5130 H   0  0  0  0  0  0  0  0  0  0  0  0
    2.6352   -1.4241    1.0502 H   0  0  0  0  0  0  0  0  0  0  0  0
    4.5427   -0.7364    1.9826 H   0  0  0  0  0  0  0  0  0  0  0  0
    4.1847    0.1271   -0.3039 H   0  0  0  0  0  0  0  0  0  0  0  0
    5.3272   -0.5938   -1.4311 H   0  0  0  0  0  0  0  0  0  0  0  0
    5.7083   -0.5776    0.2732 H   0  0  0  0  0  0  0  0  0  0  0  0
    2.7296   -3.3248   -1.3053 H   0  0  0  0  0  0  0  0  0  0  0  0
  1  2  1  0
  1 17  1  0
  1 18  1  0
  1 19  1  0
  2 16  1  0
  2  3  1  6
  2  4  1  0
  3 20  1  0
  4  5  1  0
  5  6  1  0
  5  7  1  0
  5 21  1  6
  6 22  1  0
  7 14  1  0
  7 16  1  0
  7  8  1  1
  8  9  2  0
  8 10  1  0
 10 11  1  0
 10 23  1  0
 10 24  1  0
 11 12  1  0
 11 25  1  0
 11 26  1  0
 12 13  1  0
 12 14  1  0
 12 27  1  6
 13 28  1  0
 14 15  1  6
 14 16  1  0
 15 29  1  0
 15 30  1  0
 15 31  1  0
 16 32  1  6
M  END
>  <i_m_ct_stereo_status>  (295) 
1

>  <s_m_source_file>  (295) 
/var/tmp/pbs.5076255.sched01/tmppdndq9e4/92von5zo7h.sdf

>  <i_m_source_file_index>  (295) 
31

>  <i_lp_mmshare_version>  (295) 
48012

>  <i_f3d_flags>  (295) 
0

>  <s_epik_input>  (295) 
W09IXVtDQEBIXTFPW0NAQF0oW0NIM10pKFtPSF0pW0NAQEhdMltDQEBdKFtDQF0xMjMpKFtDSDNdKVtDQEhdKFtPSF0pW0NIMl1bQ0gyXUMzPU8=

>  <s_epik_cmdline>  (295) 
J2VwaWtfcHl0aG9uJywgJy1waHQnLCAnMi4wJywgJy1waCcsICc3LjAnLCAnLXRuJywgJzgnLCAnLW1hJywgJzIwMCcsICctaW1hZScsICc8aW5maWxlLm1hZT4nLCAnLW9tYWUnLCAnPG91dGZpbGUubWFlPic=

>  <r_lp_tautomer_probability>  (295) 
1

>  <r_epik_Ionization_Penalty>  (295) 
1.18787e-06

>  <r_epik_Ionization_Penalty_Charging>  (295) 
0

>  <r_epik_Ionization_Penalty_Neutral>  (295) 
1.18787e-06

>  <r_epik_State_Penalty>  (295) 
-0

>  <r_epik_Charging_Adjusted_Penalty>  (295) 
0

>  <i_epik_Tot_Q>  (295) 
0

>  <i_epik_Tot_abs_Q>  (295) 
0

>  <s_epik_Chemistry_Notes>  (295) 
This compound contains an acetal/aminal-like group ( X-CH(R)-Y where X, Y are N, S, or O) that may be acid/base labile, releasing an aldehyde.

>  <s_lp_Force_Field>  (295) 
OPLS3e

>  <r_lp_Energy>  (295) 
54.5758

>  <b_lp_Chiralities_Consistent>  (295) 
1

>  <s_lp_Variant>  (295) 
75:0-1

>  <s_i_glide_gridfile>  (295) 
pfpi4k_grid

>  <i_i_glide_lignum>  (295) 
31

>  <i_i_glide_rotatable_bonds>  (295) 
3

>  <r_i_docking_score>  (295) 
-4.81164

>  <r_i_glide_ligand_efficiency>  (295) 
-0.300728

>  <r_i_glide_ligand_efficiency_sa>  (295) 
-0.757786

>  <r_i_glide_ligand_efficiency_ln>  (295) 
-1.27542

>  <r_i_glide_gscore>  (295) 
-4.81164

>  <r_i_glide_lipo>  (295) 
-0.275519

>  <r_i_glide_hbond>  (295) 
0

>  <r_i_glide_metal>  (295) 
-0

>  <r_i_glide_rewards>  (295) 
-2.25584

>  <r_i_glide_evdw>  (295) 
-20.3602

>  <r_i_glide_ecoul>  (295) 
-8.41515

>  <r_i_glide_erotb>  (295) 
0

>  <r_i_glide_esite>  (295) 
0

>  <r_i_glide_emodel>  (295) 
-36.5841

>  <r_i_glide_energy>  (295) 
-28.7754

>  <r_i_glide_einternal>  (295) 
1.53044

>  <r_i_glide_intrahb_reward>  (295) 
-0

>  <i_i_glide_confnum>  (295) 
1

>  <i_i_glide_posenum>  (295) 
38

>  <r_i_glide_eff_state_penalty>  (295) 
0

>  <ligand_id>  (295) 
75

>  <original_smiles>  (295) 
CC1(O)OC(O)C23C(=O)CCC(O)C2(C)C13

>  <smiles>  (295) 
[H]OC1([H])OC(O[H])(C([H])([H])[H])C2([H])C13C(=O)C([H])([H])C([H])([H])C([H])(O[H])C23C([H])([H])[H]

$$$$
75:0:2
     RDKit          3D

 32 34  0  0  1  0  0  0  0  0999 V2000
    3.5304   -1.7224   -3.2000 C   0  0  0  0  0  0  0  0  0  0  0  0
    4.3975   -2.7412   -2.4530 C   0  0  1  0  0  0  0  0  0  0  0  0
    4.5639   -3.8698   -3.2791 O   0  0  0  0  0  0  0  0  0  0  0  0
    5.6464   -2.1972   -2.1389 O   0  0  0  0  0  0  0  0  0  0  0  0
    6.2002   -2.9002   -1.0609 C   0  0  1  0  0  0  0  0  0  0  0  0
    7.1287   -2.1262   -0.3190 O   0  0  0  0  0  0  0  0  0  0  0  0
    5.0088   -3.2878   -0.1959 C   0  0  1  0  0  0  0  0  0  0  0  0
    5.1090   -4.6145    0.5185 C   0  0  0  0  0  0  0  0  0  0  0  0
    5.8330   -5.5210    0.0924 O   0  0  0  0  0  0  0  0  0  0  0  0
    4.2813   -4.8338    1.7756 C   0  0  0  0  0  0  0  0  0  0  0  0
    2.8917   -4.1842    1.6649 C   0  0  0  0  0  0  0  0  0  0  0  0
    2.9656   -2.6765    1.3622 C   0  0  1  0  0  0  0  0  0  0  0  0
    3.4236   -2.0573    2.5507 O   0  0  0  0  0  0  0  0  0  0  0  0
    3.8729   -2.3322    0.1741 C   0  0  1  0  0  0  0  0  0  0  0  0
    4.1048   -0.8226    0.1383 C   0  0  0  0  0  0  0  0  0  0  0  0
    3.8143   -3.1265   -1.1081 C   0  0  1  0  0  0  0  0  0  0  0  0
    4.0380   -1.4013   -4.1051 H   0  0  0  0  0  0  0  0  0  0  0  0
    3.3123   -0.8564   -2.5793 H   0  0  0  0  0  0  0  0  0  0  0  0
    2.5804   -2.1893   -3.4720 H   0  0  0  0  0  0  0  0  0  0  0  0
    3.9973   -4.5670   -2.9795 H   0  0  0  0  0  0  0  0  0  0  0  0
    6.7351   -3.7627   -1.4679 H   0  0  0  0  0  0  0  0  0  0  0  0
    7.3316   -2.6095    0.4619 H   0  0  0  0  0  0  0  0  0  0  0  0
    4.1847   -5.9051    1.9663 H   0  0  0  0  0  0  0  0  0  0  0  0
    4.8281   -4.4221    2.6232 H   0  0  0  0  0  0  0  0  0  0  0  0
    2.3275   -4.6963    0.8874 H   0  0  0  0  0  0  0  0  0  0  0  0
    2.3404   -4.3569    2.5883 H   0  0  0  0  0  0  0  0  0  0  0  0
    1.9619   -2.2964    1.1535 H   0  0  0  0  0  0  0  0  0  0  0  0
    3.3732   -1.1209    2.4283 H   0  0  0  0  0  0  0  0  0  0  0  0
    3.1513   -0.2813    0.1108 H   0  0  0  0  0  0  0  0  0  0  0  0
    4.6743   -0.5196   -0.7383 H   0  0  0  0  0  0  0  0  0  0  0  0
    4.6836   -0.4894    1.0062 H   0  0  0  0  0  0  0  0  0  0  0  0
    3.0901   -3.9272   -1.1336 H   0  0  0  0  0  0  0  0  0  0  0  0
  1  2  1  0
  1 17  1  0
  1 18  1  0
  1 19  1  0
  2 16  1  0
  2  3  1  6
  2  4  1  0
  3 20  1  0
  4  5  1  0
  5  6  1  0
  5  7  1  0
  5 21  1  6
  6 22  1  0
  7 14  1  0
  7 16  1  0
  7  8  1  1
  8  9  2  0
  8 10  1  0
 10 11  1  0
 10 23  1  0
 10 24  1  0
 11 12  1  0
 11 25  1  0
 11 26  1  0
 12 13  1  0
 12 14  1  0
 12 27  1  6
 13 28  1  0
 14 15  1  6
 14 16  1  0
 15 29  1  0
 15 30  1  0
 15 31  1  0
 16 32  1  6
M  END
>  <i_m_ct_stereo_status>  (296) 
1

>  <s_m_source_file>  (296) 
/var/tmp/pbs.5076255.sched01/tmppdndq9e4/92von5zo7h.sdf

>  <i_m_source_file_index>  (296) 
31

>  <i_lp_mmshare_version>  (296) 
48012

>  <i_f3d_flags>  (296) 
0

>  <s_epik_input>  (296) 
W09IXVtDQEBIXTFPW0NAQF0oW0NIM10pKFtPSF0pW0NAQEhdMltDQEBdKFtDQF0xMjMpKFtDSDNdKVtDQEhdKFtPSF0pW0NIMl1bQ0gyXUMzPU8=

>  <s_epik_cmdline>  (296) 
J2VwaWtfcHl0aG9uJywgJy1waHQnLCAnMi4wJywgJy1waCcsICc3LjAnLCAnLXRuJywgJzgnLCAnLW1hJywgJzIwMCcsICctaW1hZScsICc8aW5maWxlLm1hZT4nLCAnLW9tYWUnLCAnPG91dGZpbGUubWFlPic=

>  <r_lp_tautomer_probability>  (296) 
1

>  <r_epik_Ionization_Penalty>  (296) 
1.18787e-06

>  <r_epik_Ionization_Penalty_Charging>  (296) 
0

>  <r_epik_Ionization_Penalty_Neutral>  (296) 
1.18787e-06

>  <r_epik_State_Penalty>  (296) 
-0

>  <r_epik_Charging_Adjusted_Penalty>  (296) 
0

>  <i_epik_Tot_Q>  (296) 
0

>  <i_epik_Tot_abs_Q>  (296) 
0

>  <s_epik_Chemistry_Notes>  (296) 
This compound contains an acetal/aminal-like group ( X-CH(R)-Y where X, Y are N, S, or O) that may be acid/base labile, releasing an aldehyde.

>  <s_lp_Force_Field>  (296) 
OPLS3e

>  <r_lp_Energy>  (296) 
54.5758

>  <b_lp_Chiralities_Consistent>  (296) 
1

>  <s_lp_Variant>  (296) 
75:0-1

>  <s_i_glide_gridfile>  (296) 
pfpi4k_grid

>  <i_i_glide_lignum>  (296) 
31

>  <i_i_glide_rotatable_bonds>  (296) 
3

>  <r_i_docking_score>  (296) 
-4.37941

>  <r_i_glide_ligand_efficiency>  (296) 
-0.273713

>  <r_i_glide_ligand_efficiency_sa>  (296) 
-0.689714

>  <r_i_glide_ligand_efficiency_ln>  (296) 
-1.16085

>  <r_i_glide_gscore>  (296) 
-4.37941

>  <r_i_glide_lipo>  (296) 
-0.135589

>  <r_i_glide_hbond>  (296) 
0

>  <r_i_glide_metal>  (296) 
-0

>  <r_i_glide_rewards>  (296) 
-2.02089

>  <r_i_glide_evdw>  (296) 
-21.3656

>  <r_i_glide_ecoul>  (296) 
-7.69769

>  <r_i_glide_erotb>  (296) 
0

>  <r_i_glide_esite>  (296) 
0

>  <r_i_glide_emodel>  (296) 
-35.1753

>  <r_i_glide_energy>  (296) 
-29.0633

>  <r_i_glide_einternal>  (296) 
4.0652

>  <r_i_glide_intrahb_reward>  (296) 
-0

>  <i_i_glide_confnum>  (296) 
2

>  <i_i_glide_posenum>  (296) 
22

>  <r_i_glide_eff_state_penalty>  (296) 
0

>  <ligand_id>  (296) 
75

>  <original_smiles>  (296) 
CC1(O)OC(O)C23C(=O)CCC(O)C2(C)C13

>  <smiles>  (296) 
[H]OC1([H])OC(O[H])(C([H])([H])[H])C2([H])C13C(=O)C([H])([H])C([H])([H])C([H])(O[H])C23C([H])([H])[H]

$$$$
76:0:0
     RDKit          3D

 54 59  0  0  1  0  0  0  0  0999 V2000
    3.1234   -0.5684    4.4309 O   0  0  0  0  0  0  0  0  0  0  0  0
    3.8851   -1.2871    3.5594 C   0  0  0  0  0  0  0  0  0  0  0  0
    5.0252   -0.7039    2.9802 C   0  0  0  0  0  0  0  0  0  0  0  0
    5.8078   -1.4501    2.0781 C   0  0  0  0  0  0  0  0  0  0  0  0
    5.4496   -2.7732    1.7634 C   0  0  0  0  0  0  0  0  0  0  0  0
    4.2986   -3.3808    2.3431 C   0  0  0  0  0  0  0  0  0  0  0  0
    3.5258   -2.6089    3.2417 C   0  0  0  0  0  0  0  0  0  0  0  0
    3.8284   -4.8219    1.9543 C   0  0  1  0  0  0  0  0  0  0  0  0
    2.6302   -4.5602    1.0228 C   0  0  0  0  0  0  0  0  0  0  0  0
    3.0626   -3.6644   -0.1740 C   0  0  0  0  0  0  0  0  0  0  0  0
    4.3662   -4.0264   -0.8499 N   0  0  1  0  0  0  0  0  0  0  0  0
    4.8131   -2.9752   -1.8049 C   0  0  0  0  0  0  0  0  0  0  0  0
    4.0416   -3.0483   -3.1187 C   0  0  0  0  0  0  0  0  0  0  0  0
    3.7272   -1.7793   -3.8884 C   0  0  0  0  0  0  0  0  0  0  0  0
    2.6177   -2.5313   -3.2177 C   0  0  0  0  0  0  0  0  0  0  0  0
    5.4615   -4.5966    0.0378 C   0  0  1  0  0  0  0  0  0  0  0  0
    6.2872   -3.5368    0.7681 C   0  0  0  0  0  0  0  0  0  0  0  0
    4.8431   -5.6163    1.0325 C   0  0  2  0  0  0  0  0  0  0  0  0
    4.2916   -6.5475    0.0852 O   0  0  0  0  0  0  0  0  0  0  0  0
    5.6757   -6.5734    1.9698 C   0  0  0  0  0  0  0  0  0  0  0  0
    6.0524   -5.9038    3.3211 C   0  0  0  0  0  0  0  0  0  0  0  0
    4.7578   -5.5139    4.0855 C   0  0  0  0  0  0  0  0  0  0  0  0
    3.5723   -5.6006    3.2099 N   0  0  0  0  0  0  0  0  0  0  0  0
    3.3876   -7.0468    2.9395 C   0  0  0  0  0  0  0  0  0  0  0  0
    4.7010   -7.7092    2.4206 C   0  0  0  0  0  0  0  0  0  0  0  0
    3.4140    0.3246    4.5273 H   0  0  0  0  0  0  0  0  0  0  0  0
    5.3080    0.3085    3.2128 H   0  0  0  0  0  0  0  0  0  0  0  0
    6.6831   -1.0000    1.6297 H   0  0  0  0  0  0  0  0  0  0  0  0
    2.6442   -3.0383    3.6890 H   0  0  0  0  0  0  0  0  0  0  0  0
    2.1671   -5.4832    0.6694 H   0  0  0  0  0  0  0  0  0  0  0  0
    1.8476   -4.0404    1.5758 H   0  0  0  0  0  0  0  0  0  0  0  0
    2.2484   -3.7244   -0.8996 H   0  0  0  0  0  0  0  0  0  0  0  0
    3.1050   -2.6202    0.1577 H   0  0  0  0  0  0  0  0  0  0  0  0
    4.7057   -1.9829   -1.3631 H   0  0  0  0  0  0  0  0  0  0  0  0
    5.8655   -3.1041   -2.0617 H   0  0  0  0  0  0  0  0  0  0  0  0
    4.2847   -3.9266   -3.7239 H   0  0  0  0  0  0  0  0  0  0  0  0
    4.0003   -0.8245   -3.4409 H   0  0  0  0  0  0  0  0  0  0  0  0
    3.7008   -1.7925   -4.9738 H   0  0  0  0  0  0  0  0  0  0  0  0
    1.9330   -3.1110   -3.8370 H   0  0  0  0  0  0  0  0  0  0  0  0
    2.1778   -2.0413   -2.3499 H   0  0  0  0  0  0  0  0  0  0  0  0
    6.1571   -5.1268   -0.6154 H   0  0  0  0  0  0  0  0  0  0  0  0
    6.7664   -2.8461    0.0684 H   0  0  0  0  0  0  0  0  0  0  0  0
    7.1058   -4.0168    1.2964 H   0  0  0  0  0  0  0  0  0  0  0  0
    3.7212   -6.1212   -0.5349 H   0  0  0  0  0  0  0  0  0  0  0  0
    6.5507   -6.9765    1.4571 H   0  0  0  0  0  0  0  0  0  0  0  0
    6.6403   -6.5921    3.9356 H   0  0  0  0  0  0  0  0  0  0  0  0
    6.6907   -5.0411    3.1699 H   0  0  0  0  0  0  0  0  0  0  0  0
    4.6184   -6.1726    4.9403 H   0  0  0  0  0  0  0  0  0  0  0  0
    4.8679   -4.5177    4.5132 H   0  0  0  0  0  0  0  0  0  0  0  0
    3.0880   -7.5556    3.8553 H   0  0  0  0  0  0  0  0  0  0  0  0
    2.5782   -7.2039    2.2287 H   0  0  0  0  0  0  0  0  0  0  0  0
    4.4915   -8.4308    1.6265 H   0  0  0  0  0  0  0  0  0  0  0  0
    5.1678   -8.3042    3.2097 H   0  0  0  0  0  0  0  0  0  0  0  0
    4.1296   -4.7886   -1.4696 H   0  0  0  0  0  0  0  0  0  0  0  0
  1  2  1  0
  1 26  1  0
  2  7  2  0
  2  3  1  0
  3  4  2  0
  3 27  1  0
  4  5  1  0
  4 28  1  0
  5 17  1  0
  5  6  2  0
  6  7  1  0
  6  8  1  0
  7 29  1  0
  8 18  1  0
  8 23  1  0
  8  9  1  6
  9 10  1  0
  9 30  1  0
  9 31  1  0
 10 11  1  0
 10 32  1  0
 10 33  1  0
 11 12  1  0
 11 16  1  0
 11 54  1  6
 12 13  1  0
 12 34  1  0
 12 35  1  0
 13 15  1  0
 13 14  1  0
 13 36  1  0
 14 15  1  0
 14 37  1  0
 14 38  1  0
 15 39  1  0
 15 40  1  0
 16 17  1  0
 16 18  1  0
 16 41  1  6
 17 42  1  0
 17 43  1  0
 18 19  1  6
 18 20  1  0
 19 44  1  0
 20 25  1  0
 20 21  1  0
 20 45  1  0
 21 22  1  0
 21 46  1  0
 21 47  1  0
 22 23  1  0
 22 48  1  0
 22 49  1  0
 23 24  1  0
 24 25  1  0
 24 50  1  0
 24 51  1  0
 25 52  1  0
 25 53  1  0
M  CHG  1  11   1
M  END
>  <i_m_ct_stereo_status>  (297) 
1

>  <s_m_source_file>  (297) 
/var/tmp/pbs.5076255.sched01/tmppdndq9e4/92von5zo7h.sdf

>  <i_m_source_file_index>  (297) 
32

>  <i_lp_mmshare_version>  (297) 
48012

>  <i_f3d_flags>  (297) 
0

>  <s_epik_input>  (297) 
W09IXWMoW2NIXTEpW2NIXVtjSF1jKGMxW0NAQF0yMzQpW0NIMl1bQ0BIXShOKFtDSDJdW0NIMl0yKVtDSDJdW0NIXTVbQ0gyXVtDSDJdNSlbQ0BAXTMoW09IXSlbQ0hdNltDSDJdW0NIMl1ONFtDSDJdW0NIMl02

>  <s_epik_cmdline>  (297) 
J2VwaWtfcHl0aG9uJywgJy1waHQnLCAnMi4wJywgJy1waCcsICc3LjAnLCAnLXRuJywgJzgnLCAnLW1hJywgJzIwMCcsICctaW1hZScsICc8aW5maWxlLm1hZT4nLCAnLW9tYWUnLCAnPG91dGZpbGUubWFlPic=

>  <r_epik_Ionization_Penalty>  (297) 
0.0633831

>  <r_epik_Ionization_Penalty_Charging>  (297) 
0.0221158

>  <r_epik_Ionization_Penalty_Neutral>  (297) 
0.0412673

>  <r_epik_State_Penalty>  (297) 
0.0598579

>  <r_epik_Charging_Adjusted_Penalty>  (297) 
0.0819737

>  <i_epik_Tot_Q>  (297) 
1

>  <i_epik_Tot_abs_Q>  (297) 
1

>  <s_lp_Force_Field>  (297) 
OPLS3e

>  <r_lp_Energy>  (297) 
75.1056

>  <b_lp_Chiralities_Consistent>  (297) 
1

>  <s_lp_Variant>  (297) 
76:0-1

>  <s_i_glide_gridfile>  (297) 
pfpi4k_grid

>  <i_i_glide_lignum>  (297) 
32

>  <i_i_glide_rotatable_bonds>  (297) 
4

>  <r_i_docking_score>  (297) 
-3.9452

>  <r_i_glide_ligand_efficiency>  (297) 
-0.157808

>  <r_i_glide_ligand_efficiency_sa>  (297) 
-0.461433

>  <r_i_glide_ligand_efficiency_ln>  (297) 
-0.93513

>  <r_i_glide_gscore>  (297) 
-3.9452

>  <r_i_glide_lipo>  (297) 
-0.902654

>  <r_i_glide_hbond>  (297) 
-0.180043

>  <r_i_glide_metal>  (297) 
-0

>  <r_i_glide_rewards>  (297) 
-1.08091

>  <r_i_glide_evdw>  (297) 
-26.0776

>  <r_i_glide_ecoul>  (297) 
-5.24762

>  <r_i_glide_erotb>  (297) 
0.325049

>  <r_i_glide_esite>  (297) 
-0.0156203

>  <r_i_glide_emodel>  (297) 
-37.692

>  <r_i_glide_energy>  (297) 
-31.3252

>  <r_i_glide_einternal>  (297) 
2.43161

>  <r_i_glide_intrahb_reward>  (297) 
-0

>  <i_i_glide_confnum>  (297) 
2

>  <i_i_glide_posenum>  (297) 
21

>  <r_i_glide_eff_state_penalty>  (297) 
0

>  <ligand_id>  (297) 
76

>  <original_smiles>  (297) 
Oc1ccc2c(c1)C13CCN(CC4CC4)C(C2)C1(O)C1CCN3CC1

>  <smiles>  (297) 
[H]Oc1c([H])c([H])c2c(c1[H])C13N4C([H])([H])C([H])([H])C([H])(C([H])([H])C4([H])[H])C1(O[H])C([H])(C2([H])[H])[N+]([H])(C([H])([H])C1([H])C([H])([H])C1([H])[H])C([H])([H])C3([H])[H]

$$$$
76:0:1
     RDKit          3D

 54 59  0  0  1  0  0  0  0  0999 V2000
    0.8813   -0.5020    2.9555 O   0  0  0  0  0  0  0  0  0  0  0  0
    2.0514   -0.9484    2.4116 C   0  0  0  0  0  0  0  0  0  0  0  0
    3.0785   -0.0389    2.1114 C   0  0  0  0  0  0  0  0  0  0  0  0
    4.2822   -0.5085    1.5475 C   0  0  0  0  0  0  0  0  0  0  0  0
    4.4465   -1.8840    1.2888 C   0  0  0  0  0  0  0  0  0  0  0  0
    3.4239   -2.8137    1.5850 C   0  0  0  0  0  0  0  0  0  0  0  0
    2.2196   -2.3197    2.1542 C   0  0  0  0  0  0  0  0  0  0  0  0
    3.5436   -4.3361    1.2350 C   0  0  1  0  0  0  0  0  0  0  0  0
    2.6690   -4.4893   -0.0114 C   0  0  0  0  0  0  0  0  0  0  0  0
    3.1322   -3.5024   -1.1062 C   0  0  0  0  0  0  0  0  0  0  0  0
    4.6127   -3.4429   -1.3839 N   0  0  1  0  0  0  0  0  0  0  0  0
    4.9663   -2.3067   -2.2662 C   0  0  0  0  0  0  0  0  0  0  0  0
    4.2280   -2.3467   -3.6019 C   0  0  0  0  0  0  0  0  0  0  0  0
    3.8525   -1.0613   -4.3220 C   0  0  0  0  0  0  0  0  0  0  0  0
    2.7810   -1.9012   -3.7117 C   0  0  0  0  0  0  0  0  0  0  0  0
    5.5216   -3.6241   -0.1810 C   0  0  1  0  0  0  0  0  0  0  0  0
    5.7328   -2.3451    0.6358 C   0  0  0  0  0  0  0  0  0  0  0  0
    4.9677   -4.7672    0.7054 C   0  0  2  0  0  0  0  0  0  0  0  0
    5.0101   -5.8217   -0.2712 O   0  0  0  0  0  0  0  0  0  0  0  0
    5.7285   -5.4059    1.9264 C   0  0  0  0  0  0  0  0  0  0  0  0
    5.4644   -4.6380    3.2551 C   0  0  0  0  0  0  0  0  0  0  0  0
    3.9515   -4.6789    3.5894 C   0  0  0  0  0  0  0  0  0  0  0  0
    3.1672   -5.1441    2.4323 N   0  0  0  0  0  0  0  0  0  0  0  0
    3.5118   -6.5743    2.2657 C   0  0  0  0  0  0  0  0  0  0  0  0
    5.0546   -6.7891    2.1993 C   0  0  0  0  0  0  0  0  0  0  0  0
    0.8237    0.4421    2.9686 H   0  0  0  0  0  0  0  0  0  0  0  0
    2.9628    1.0163    2.2982 H   0  0  0  0  0  0  0  0  0  0  0  0
    5.0702    0.1858    1.3021 H   0  0  0  0  0  0  0  0  0  0  0  0
    1.4191   -3.0046    2.3821 H   0  0  0  0  0  0  0  0  0  0  0  0
    2.6155   -5.5183   -0.3684 H   0  0  0  0  0  0  0  0  0  0  0  0
    1.6471   -4.2394    0.2131 H   0  0  0  0  0  0  0  0  0  0  0  0
    2.6057   -3.8252   -2.0029 H   0  0  0  0  0  0  0  0  0  0  0  0
    2.7704   -2.5026   -0.8549 H   0  0  0  0  0  0  0  0  0  0  0  0
    4.7555   -1.3524   -1.7856 H   0  0  0  0  0  0  0  0  0  0  0  0
    6.0327   -2.3341   -2.4908 H   0  0  0  0  0  0  0  0  0  0  0  0
    4.5265   -3.1791   -4.2472 H   0  0  0  0  0  0  0  0  0  0  0  0
    4.0676   -0.1122   -3.8348 H   0  0  0  0  0  0  0  0  0  0  0  0
    3.8493   -1.0280   -5.4117 H   0  0  0  0  0  0  0  0  0  0  0  0
    2.1455   -2.5181   -4.3451 H   0  0  0  0  0  0  0  0  0  0  0  0
    2.2837   -1.4753   -2.8395 H   0  0  0  0  0  0  0  0  0  0  0  0
    6.5048   -3.9123   -0.5630 H   0  0  0  0  0  0  0  0  0  0  0  0
    6.1655   -1.5455    0.0315 H   0  0  0  0  0  0  0  0  0  0  0  0
    6.4629   -2.5373    1.4189 H   0  0  0  0  0  0  0  0  0  0  0  0
    4.3212   -5.7145   -0.9125 H   0  0  0  0  0  0  0  0  0  0  0  0
    6.7943   -5.5156    1.7230 H   0  0  0  0  0  0  0  0  0  0  0  0
    6.0256   -5.0964    4.0731 H   0  0  0  0  0  0  0  0  0  0  0  0
    5.8094   -3.6073    3.2021 H   0  0  0  0  0  0  0  0  0  0  0  0
    3.7717   -5.3412    4.4324 H   0  0  0  0  0  0  0  0  0  0  0  0
    3.6249   -3.6961    3.9254 H   0  0  0  0  0  0  0  0  0  0  0  0
    3.1244   -7.1457    3.1076 H   0  0  0  0  0  0  0  0  0  0  0  0
    3.0333   -6.9863    1.3777 H   0  0  0  0  0  0  0  0  0  0  0  0
    5.3155   -7.5428    1.4540 H   0  0  0  0  0  0  0  0  0  0  0  0
    5.4239   -7.1978    3.1426 H   0  0  0  0  0  0  0  0  0  0  0  0
    4.7982   -4.2613   -1.9447 H   0  0  0  0  0  0  0  0  0  0  0  0
  1  2  1  0
  1 26  1  0
  2  7  2  0
  2  3  1  0
  3  4  2  0
  3 27  1  0
  4  5  1  0
  4 28  1  0
  5 17  1  0
  5  6  2  0
  6  7  1  0
  6  8  1  0
  7 29  1  0
  8 18  1  0
  8 23  1  0
  8  9  1  6
  9 10  1  0
  9 30  1  0
  9 31  1  0
 10 11  1  0
 10 32  1  0
 10 33  1  0
 11 12  1  0
 11 16  1  0
 11 54  1  6
 12 13  1  0
 12 34  1  0
 12 35  1  0
 13 15  1  0
 13 14  1  0
 13 36  1  0
 14 15  1  0
 14 37  1  0
 14 38  1  0
 15 39  1  0
 15 40  1  0
 16 17  1  0
 16 18  1  0
 16 41  1  6
 17 42  1  0
 17 43  1  0
 18 19  1  6
 18 20  1  0
 19 44  1  0
 20 25  1  0
 20 21  1  0
 20 45  1  0
 21 22  1  0
 21 46  1  0
 21 47  1  0
 22 23  1  0
 22 48  1  0
 22 49  1  0
 23 24  1  0
 24 25  1  0
 24 50  1  0
 24 51  1  0
 25 52  1  0
 25 53  1  0
M  CHG  1  11   1
M  END
>  <i_m_ct_stereo_status>  (298) 
1

>  <s_m_source_file>  (298) 
/var/tmp/pbs.5076255.sched01/tmppdndq9e4/92von5zo7h.sdf

>  <i_m_source_file_index>  (298) 
32

>  <i_lp_mmshare_version>  (298) 
48012

>  <i_f3d_flags>  (298) 
0

>  <s_epik_input>  (298) 
W09IXWMoW2NIXTEpW2NIXVtjSF1jKGMxW0NAQF0yMzQpW0NIMl1bQ0BIXShOKFtDSDJdW0NIMl0yKVtDSDJdW0NIXTVbQ0gyXVtDSDJdNSlbQ0BAXTMoW09IXSlbQ0hdNltDSDJdW0NIMl1ONFtDSDJdW0NIMl02

>  <s_epik_cmdline>  (298) 
J2VwaWtfcHl0aG9uJywgJy1waHQnLCAnMi4wJywgJy1waCcsICc3LjAnLCAnLXRuJywgJzgnLCAnLW1hJywgJzIwMCcsICctaW1hZScsICc8aW5maWxlLm1hZT4nLCAnLW9tYWUnLCAnPG91dGZpbGUubWFlPic=

>  <r_epik_Ionization_Penalty>  (298) 
0.0633831

>  <r_epik_Ionization_Penalty_Charging>  (298) 
0.0221158

>  <r_epik_Ionization_Penalty_Neutral>  (298) 
0.0412673

>  <r_epik_State_Penalty>  (298) 
0.0598579

>  <r_epik_Charging_Adjusted_Penalty>  (298) 
0.0819737

>  <i_epik_Tot_Q>  (298) 
1

>  <i_epik_Tot_abs_Q>  (298) 
1

>  <s_lp_Force_Field>  (298) 
OPLS3e

>  <r_lp_Energy>  (298) 
75.1056

>  <b_lp_Chiralities_Consistent>  (298) 
1

>  <s_lp_Variant>  (298) 
76:0-1

>  <s_i_glide_gridfile>  (298) 
pfpi4k_grid

>  <i_i_glide_lignum>  (298) 
32

>  <i_i_glide_rotatable_bonds>  (298) 
4

>  <r_i_docking_score>  (298) 
-3.77619

>  <r_i_glide_ligand_efficiency>  (298) 
-0.151048

>  <r_i_glide_ligand_efficiency_sa>  (298) 
-0.441666

>  <r_i_glide_ligand_efficiency_ln>  (298) 
-0.895071

>  <r_i_glide_gscore>  (298) 
-3.77619

>  <r_i_glide_lipo>  (298) 
-0.888954

>  <r_i_glide_hbond>  (298) 
-0.193705

>  <r_i_glide_metal>  (298) 
-0

>  <r_i_glide_rewards>  (298) 
-1.08091

>  <r_i_glide_evdw>  (298) 
-27.0472

>  <r_i_glide_ecoul>  (298) 
-3.90213

>  <r_i_glide_erotb>  (298) 
0.325049

>  <r_i_glide_esite>  (298) 
0

>  <r_i_glide_emodel>  (298) 
-36.3107

>  <r_i_glide_energy>  (298) 
-30.9493

>  <r_i_glide_einternal>  (298) 
3.18006

>  <r_i_glide_intrahb_reward>  (298) 
-0

>  <i_i_glide_confnum>  (298) 
5

>  <i_i_glide_posenum>  (298) 
28

>  <r_i_glide_eff_state_penalty>  (298) 
0

>  <ligand_id>  (298) 
76

>  <original_smiles>  (298) 
Oc1ccc2c(c1)C13CCN(CC4CC4)C(C2)C1(O)C1CCN3CC1

>  <smiles>  (298) 
[H]Oc1c([H])c([H])c2c(c1[H])C13N4C([H])([H])C([H])([H])C([H])(C([H])([H])C4([H])[H])C1(O[H])C([H])(C2([H])[H])[N+]([H])(C([H])([H])C1([H])C([H])([H])C1([H])[H])C([H])([H])C3([H])[H]

$$$$
76:0:2
     RDKit          3D

 54 59  0  0  1  0  0  0  0  0999 V2000
    0.7408   -0.3873    2.8732 O   0  0  0  0  0  0  0  0  0  0  0  0
    1.8772   -0.6173    2.1584 C   0  0  0  0  0  0  0  0  0  0  0  0
    2.7512    0.4361    1.8670 C   0  0  0  0  0  0  0  0  0  0  0  0
    3.9063    0.1822    1.1237 C   0  0  0  0  0  0  0  0  0  0  0  0
    4.1935   -1.1025    0.6537 C   0  0  0  0  0  0  0  0  0  0  0  0
    3.3233   -2.1755    0.9305 C   0  0  0  0  0  0  0  0  0  0  0  0
    2.1620   -1.9160    1.7013 C   0  0  0  0  0  0  0  0  0  0  0  0
    3.5771   -3.6010    0.3673 C   0  0  1  0  0  0  0  0  0  0  0  0
    2.5741   -3.6899   -0.7850 C   0  0  0  0  0  0  0  0  0  0  0  0
    2.8425   -2.6342   -1.8969 C   0  0  0  0  0  0  0  0  0  0  0  0
    4.2606   -2.3149   -2.2387 N   0  0  1  0  0  0  0  0  0  0  0  0
    4.3365   -1.0040   -2.9538 C   0  0  0  0  0  0  0  0  0  0  0  0
    3.6630   -1.0633   -4.3151 C   0  0  0  0  0  0  0  0  0  0  0  0
    3.8111    0.0672   -5.3164 C   0  0  0  0  0  0  0  0  0  0  0  0
    2.5242   -0.1309   -4.6361 C   0  0  0  0  0  0  0  0  0  0  0  0
    5.2831   -2.4792   -1.1338 C   0  0  1  0  0  0  0  0  0  0  0  0
    5.4293   -1.2874   -0.1871 C   0  0  0  0  0  0  0  0  0  0  0  0
    4.9737   -3.7767   -0.3506 C   0  0  2  0  0  0  0  0  0  0  0  0
    5.0136   -4.6610   -1.4853 O   0  0  0  0  0  0  0  0  0  0  0  0
    5.9447   -4.4492    0.6799 C   0  0  0  0  0  0  0  0  0  0  0  0
    5.7686   -3.8844    2.1113 C   0  0  0  0  0  0  0  0  0  0  0  0
    4.3204   -4.1659    2.5932 C   0  0  0  0  0  0  0  0  0  0  0  0
    3.4472   -4.5902    1.4813 N   0  0  0  0  0  0  0  0  0  0  0  0
    3.9403   -5.9287    1.0912 C   0  0  0  0  0  0  0  0  0  0  0  0
    5.4759   -5.9231    0.8463 C   0  0  0  0  0  0  0  0  0  0  0  0
    0.5838    0.5329    3.0130 H   0  0  0  0  0  0  0  0  0  0  0  0
    2.5389    1.4452    2.1815 H   0  0  0  0  0  0  0  0  0  0  0  0
    4.5799    0.9707    0.8562 H   0  0  0  0  0  0  0  0  0  0  0  0
    1.4799   -2.7184    1.9209 H   0  0  0  0  0  0  0  0  0  0  0  0
    2.5437   -4.6824   -1.1857 H   0  0  0  0  0  0  0  0  0  0  0  0
    1.5619   -3.5560   -0.4330 H   0  0  0  0  0  0  0  0  0  0  0  0
    2.2154   -2.8308   -2.7782 H   0  0  0  0  0  0  0  0  0  0  0  0
    2.5876   -1.6641   -1.5049 H   0  0  0  0  0  0  0  0  0  0  0  0
    3.9206   -0.1706   -2.3717 H   0  0  0  0  0  0  0  0  0  0  0  0
    5.3786   -0.7868   -3.0936 H   0  0  0  0  0  0  0  0  0  0  0  0
    3.5993   -2.0576   -4.7323 H   0  0  0  0  0  0  0  0  0  0  0  0
    4.3793    0.9583   -5.0428 H   0  0  0  0  0  0  0  0  0  0  0  0
    3.8095   -0.1761   -6.3735 H   0  0  0  0  0  0  0  0  0  0  0  0
    1.6776   -0.5526   -5.1585 H   0  0  0  0  0  0  0  0  0  0  0  0
    2.2329    0.5392   -3.8607 H   0  0  0  0  0  0  0  0  0  0  0  0
    6.2411   -2.5900   -1.6484 H   0  0  0  0  0  0  0  0  0  0  0  0
    5.6854   -0.3716   -0.7270 H   0  0  0  0  0  0  0  0  0  0  0  0
    6.2757   -1.4794    0.4685 H   0  0  0  0  0  0  0  0  0  0  0  0
    4.1516   -4.9862   -1.6711 H   0  0  0  0  0  0  0  0  0  0  0  0
    6.9769   -4.4009    0.3438 H   0  0  0  0  0  0  0  0  0  0  0  0
    6.4591   -4.3928    2.7850 H   0  0  0  0  0  0  0  0  0  0  0  0
    6.0055   -2.8227    2.1663 H   0  0  0  0  0  0  0  0  0  0  0  0
    4.3292   -4.9444    3.3527 H   0  0  0  0  0  0  0  0  0  0  0  0
    3.9325   -3.2834    3.0958 H   0  0  0  0  0  0  0  0  0  0  0  0
    3.7312   -6.6453    1.8842 H   0  0  0  0  0  0  0  0  0  0  0  0
    3.4148   -6.2921    0.2077 H   0  0  0  0  0  0  0  0  0  0  0  0
    5.7132   -6.5428   -0.0096 H   0  0  0  0  0  0  0  0  0  0  0  0
    6.0041   -6.3939    1.6774 H   0  0  0  0  0  0  0  0  0  0  0  0
    4.5143   -3.0445   -2.8896 H   0  0  0  0  0  0  0  0  0  0  0  0
  1  2  1  0
  1 26  1  0
  2  7  2  0
  2  3  1  0
  3  4  2  0
  3 27  1  0
  4  5  1  0
  4 28  1  0
  5 17  1  0
  5  6  2  0
  6  7  1  0
  6  8  1  0
  7 29  1  0
  8 18  1  0
  8 23  1  0
  8  9  1  6
  9 10  1  0
  9 30  1  0
  9 31  1  0
 10 11  1  0
 10 32  1  0
 10 33  1  0
 11 12  1  0
 11 16  1  0
 11 54  1  6
 12 13  1  0
 12 34  1  0
 12 35  1  0
 13 15  1  0
 13 14  1  0
 13 36  1  0
 14 15  1  0
 14 37  1  0
 14 38  1  0
 15 39  1  0
 15 40  1  0
 16 17  1  0
 16 18  1  0
 16 41  1  6
 17 42  1  0
 17 43  1  0
 18 19  1  6
 18 20  1  0
 19 44  1  0
 20 25  1  0
 20 21  1  0
 20 45  1  0
 21 22  1  0
 21 46  1  0
 21 47  1  0
 22 23  1  0
 22 48  1  0
 22 49  1  0
 23 24  1  0
 24 25  1  0
 24 50  1  0
 24 51  1  0
 25 52  1  0
 25 53  1  0
M  CHG  1  11   1
M  END
>  <i_m_ct_stereo_status>  (299) 
1

>  <s_m_source_file>  (299) 
/var/tmp/pbs.5076255.sched01/tmppdndq9e4/92von5zo7h.sdf

>  <i_m_source_file_index>  (299) 
32

>  <i_lp_mmshare_version>  (299) 
48012

>  <i_f3d_flags>  (299) 
0

>  <s_epik_input>  (299) 
W09IXWMoW2NIXTEpW2NIXVtjSF1jKGMxW0NAQF0yMzQpW0NIMl1bQ0BIXShOKFtDSDJdW0NIMl0yKVtDSDJdW0NIXTVbQ0gyXVtDSDJdNSlbQ0BAXTMoW09IXSlbQ0hdNltDSDJdW0NIMl1ONFtDSDJdW0NIMl02

>  <s_epik_cmdline>  (299) 
J2VwaWtfcHl0aG9uJywgJy1waHQnLCAnMi4wJywgJy1waCcsICc3LjAnLCAnLXRuJywgJzgnLCAnLW1hJywgJzIwMCcsICctaW1hZScsICc8aW5maWxlLm1hZT4nLCAnLW9tYWUnLCAnPG91dGZpbGUubWFlPic=

>  <r_epik_Ionization_Penalty>  (299) 
0.0633831

>  <r_epik_Ionization_Penalty_Charging>  (299) 
0.0221158

>  <r_epik_Ionization_Penalty_Neutral>  (299) 
0.0412673

>  <r_epik_State_Penalty>  (299) 
0.0598579

>  <r_epik_Charging_Adjusted_Penalty>  (299) 
0.0819737

>  <i_epik_Tot_Q>  (299) 
1

>  <i_epik_Tot_abs_Q>  (299) 
1

>  <s_lp_Force_Field>  (299) 
OPLS3e

>  <r_lp_Energy>  (299) 
75.1056

>  <b_lp_Chiralities_Consistent>  (299) 
1

>  <s_lp_Variant>  (299) 
76:0-1

>  <s_i_glide_gridfile>  (299) 
pfpi4k_grid

>  <i_i_glide_lignum>  (299) 
32

>  <i_i_glide_rotatable_bonds>  (299) 
4

>  <r_i_docking_score>  (299) 
-3.29315

>  <r_i_glide_ligand_efficiency>  (299) 
-0.131726

>  <r_i_glide_ligand_efficiency_sa>  (299) 
-0.385169

>  <r_i_glide_ligand_efficiency_ln>  (299) 
-0.780576

>  <r_i_glide_gscore>  (299) 
-3.29315

>  <r_i_glide_lipo>  (299) 
-0.587488

>  <r_i_glide_hbond>  (299) 
-0.32

>  <r_i_glide_metal>  (299) 
-0

>  <r_i_glide_rewards>  (299) 
-1.08091

>  <r_i_glide_evdw>  (299) 
-18.9245

>  <r_i_glide_ecoul>  (299) 
-4.55722

>  <r_i_glide_erotb>  (299) 
0.325049

>  <r_i_glide_esite>  (299) 
0

>  <r_i_glide_emodel>  (299) 
-27.4281

>  <r_i_glide_energy>  (299) 
-23.4817

>  <r_i_glide_einternal>  (299) 
3.53434

>  <r_i_glide_intrahb_reward>  (299) 
-0

>  <i_i_glide_confnum>  (299) 
5

>  <i_i_glide_posenum>  (299) 
1

>  <r_i_glide_eff_state_penalty>  (299) 
0

>  <ligand_id>  (299) 
76

>  <original_smiles>  (299) 
Oc1ccc2c(c1)C13CCN(CC4CC4)C(C2)C1(O)C1CCN3CC1

>  <smiles>  (299) 
[H]Oc1c([H])c([H])c2c(c1[H])C13N4C([H])([H])C([H])([H])C([H])(C([H])([H])C4([H])[H])C1(O[H])C([H])(C2([H])[H])[N+]([H])(C([H])([H])C1([H])C([H])([H])C1([H])[H])C([H])([H])C3([H])[H]

$$$$
76:1:0
     RDKit          3D

 55 60  0  0  1  0  0  0  0  0999 V2000
    5.2827  -13.8900    6.1738 O   0  0  0  0  0  0  0  0  0  0  0  0
    5.0466  -12.8460    5.3335 C   0  0  0  0  0  0  0  0  0  0  0  0
    5.7769  -12.7399    4.1400 C   0  0  0  0  0  0  0  0  0  0  0  0
    5.5262  -11.6707    3.2652 C   0  0  0  0  0  0  0  0  0  0  0  0
    4.5468  -10.7171    3.5893 C   0  0  0  0  0  0  0  0  0  0  0  0
    3.8071  -10.7970    4.7979 C   0  0  0  0  0  0  0  0  0  0  0  0
    4.0775  -11.8803    5.6680 C   0  0  0  0  0  0  0  0  0  0  0  0
    2.7806   -9.6997    5.2212 C   0  0  1  0  0  0  0  0  0  0  0  0
    3.5344   -8.8972    6.3122 C   0  0  0  0  0  0  0  0  0  0  0  0
    4.8764   -8.3382    5.7241 C   0  0  0  0  0  0  0  0  0  0  0  0
    4.7908   -7.6989    4.3599 N   0  0  1  0  0  0  0  0  0  0  0  0
    6.1414   -7.3860    3.8244 C   0  0  0  0  0  0  0  0  0  0  0  0
    6.1050   -6.3546    2.7098 C   0  0  0  0  0  0  0  0  0  0  0  0
    6.0806   -6.7846    1.2637 C   0  0  0  0  0  0  0  0  0  0  0  0
    7.3172   -6.1488    1.8263 C   0  0  0  0  0  0  0  0  0  0  0  0
    3.8104   -8.3168    3.3721 C   0  0  1  0  0  0  0  0  0  0  0  0
    4.3360   -9.5628    2.6460 C   0  0  0  0  0  0  0  0  0  0  0  0
    2.4780   -8.6327    4.0957 C   0  0  2  0  0  0  0  0  0  0  0  0
    2.1281   -7.3107    4.5415 O   0  0  0  0  0  0  0  0  0  0  0  0
    1.1755   -9.1077    3.3383 C   0  0  1  0  0  0  0  0  0  0  0  0
    1.1119  -10.6577    3.1702 C   0  0  0  0  0  0  0  0  0  0  0  0
    1.0689  -11.3367    4.5699 C   0  0  0  0  0  0  0  0  0  0  0  0
    1.4670  -10.3412    5.6113 N   0  0  2  0  0  0  0  0  0  0  0  0
    0.3358   -9.3634    5.7128 C   0  0  0  0  0  0  0  0  0  0  0  0
   -0.0279   -8.8222    4.2919 C   0  0  0  0  0  0  0  0  0  0  0  0
    4.6459  -13.9439    6.8711 H   0  0  0  0  0  0  0  0  0  0  0  0
    6.5233  -13.4723    3.8829 H   0  0  0  0  0  0  0  0  0  0  0  0
    6.0927  -11.5784    2.3482 H   0  0  0  0  0  0  0  0  0  0  0  0
    3.5299  -11.9750    6.5939 H   0  0  0  0  0  0  0  0  0  0  0  0
    2.9277   -8.0938    6.7357 H   0  0  0  0  0  0  0  0  0  0  0  0
    3.7704   -9.5461    7.1579 H   0  0  0  0  0  0  0  0  0  0  0  0
    5.2769   -7.6043    6.4270 H   0  0  0  0  0  0  0  0  0  0  0  0
    5.6219   -9.1381    5.6958 H   0  0  0  0  0  0  0  0  0  0  0  0
    6.7512   -6.9573    4.6211 H   0  0  0  0  0  0  0  0  0  0  0  0
    6.6634   -8.2854    3.4972 H   0  0  0  0  0  0  0  0  0  0  0  0
    5.5668   -5.4370    2.9650 H   0  0  0  0  0  0  0  0  0  0  0  0
    6.1771   -7.8369    1.0052 H   0  0  0  0  0  0  0  0  0  0  0  0
    5.4617   -6.1948    0.5865 H   0  0  0  0  0  0  0  0  0  0  0  0
    7.5471   -5.1470    1.4638 H   0  0  0  0  0  0  0  0  0  0  0  0
    8.1831   -6.7963    1.9777 H   0  0  0  0  0  0  0  0  0  0  0  0
    3.6150   -7.5591    2.6103 H   0  0  0  0  0  0  0  0  0  0  0  0
    5.2725   -9.3816    2.1266 H   0  0  0  0  0  0  0  0  0  0  0  0
    3.6296   -9.8530    1.8674 H   0  0  0  0  0  0  0  0  0  0  0  0
    2.7505   -6.9992    5.1771 H   0  0  0  0  0  0  0  0  0  0  0  0
    1.0471   -8.5999    2.3787 H   0  0  0  0  0  0  0  0  0  0  0  0
    0.2209  -10.9456    2.6071 H   0  0  0  0  0  0  0  0  0  0  0  0
    1.9543  -11.0339    2.5943 H   0  0  0  0  0  0  0  0  0  0  0  0
    0.0658  -11.6974    4.7886 H   0  0  0  0  0  0  0  0  0  0  0  0
    1.6833  -12.2374    4.5896 H   0  0  0  0  0  0  0  0  0  0  0  0
   -0.5403   -9.8552    6.1399 H   0  0  0  0  0  0  0  0  0  0  0  0
    0.5861   -8.5440    6.3914 H   0  0  0  0  0  0  0  0  0  0  0  0
   -0.2882   -7.7639    4.3376 H   0  0  0  0  0  0  0  0  0  0  0  0
   -0.9279   -9.3150    3.9137 H   0  0  0  0  0  0  0  0  0  0  0  0
    1.5554  -10.8567    6.4891 H   0  0  0  0  0  0  0  0  0  0  0  0
    4.4115   -6.7805    4.5393 H   0  0  0  0  0  0  0  0  0  0  0  0
  1  2  1  0
  1 26  1  0
  2  7  2  0
  2  3  1  0
  3  4  2  0
  3 27  1  0
  4  5  1  0
  4 28  1  0
  5 17  1  0
  5  6  2  0
  6  7  1  0
  6  8  1  0
  7 29  1  0
  8 18  1  0
  8 23  1  0
  8  9  1  1
  9 10  1  0
  9 30  1  0
  9 31  1  0
 10 11  1  0
 10 32  1  0
 10 33  1  0
 11 12  1  0
 11 16  1  0
 11 55  1  1
 12 13  1  0
 12 34  1  0
 12 35  1  0
 13 15  1  0
 13 14  1  0
 13 36  1  0
 14 15  1  0
 14 37  1  0
 14 38  1  0
 15 39  1  0
 15 40  1  0
 16 17  1  0
 16 18  1  0
 16 41  1  6
 17 42  1  0
 17 43  1  0
 18 19  1  1
 18 20  1  0
 19 44  1  0
 20 25  1  0
 20 21  1  0
 20 45  1  6
 21 22  1  0
 21 46  1  0
 21 47  1  0
 22 23  1  0
 22 48  1  0
 22 49  1  0
 23 24  1  0
 23 54  1  1
 24 25  1  0
 24 50  1  0
 24 51  1  0
 25 52  1  0
 25 53  1  0
M  CHG  2  11   1  23   1
M  END
>  <i_m_ct_stereo_status>  (300) 
1

>  <s_m_source_file>  (300) 
/var/tmp/pbs.5076255.sched01/tmppdndq9e4/92von5zo7h.sdf

>  <i_m_source_file_index>  (300) 
33

>  <i_lp_mmshare_version>  (300) 
48012

>  <i_f3d_flags>  (300) 
0

>  <s_epik_input>  (300) 
W09IXWMoW2NIXTEpW2NIXVtjSF1jKGMxW0NAQF0yMzQpW0NIMl1bQ0BIXShOKFtDSDJdW0NIMl0yKVtDSDJdW0NIXTVbQ0gyXVtDSDJdNSlbQ0BAXTMoW09IXSlbQ0hdNltDSDJdW0NIMl1ONFtDSDJdW0NIMl02

>  <s_epik_cmdline>  (300) 
J2VwaWtfcHl0aG9uJywgJy1waHQnLCAnMi4wJywgJy1waCcsICc3LjAnLCAnLXRuJywgJzgnLCAnLW1hJywgJzIwMCcsICctaW1hZScsICc8aW5maWxlLm1hZT4nLCAnLW9tYWUnLCAnPG91dGZpbGUubWFlPic=

>  <r_lp_tautomer_probability>  (300) 
1

>  <r_epik_Ionization_Penalty>  (300) 
1.97523

>  <r_epik_Ionization_Penalty_Charging>  (300) 
1.96592

>  <r_epik_Ionization_Penalty_Neutral>  (300) 
0.00931637

>  <r_epik_State_Penalty>  (300) 
1.73759

>  <r_epik_Charging_Adjusted_Penalty>  (300) 
3.7035

>  <i_epik_Tot_Q>  (300) 
2

>  <i_epik_Tot_abs_Q>  (300) 
2

>  <s_lp_Force_Field>  (300) 
OPLS3e

>  <r_lp_Energy>  (300) 
93.9442

>  <b_lp_Chiralities_Consistent>  (300) 
1

>  <s_lp_Variant>  (300) 
76:0-2

>  <s_i_glide_gridfile>  (300) 
pfpi4k_grid

>  <i_i_glide_lignum>  (300) 
33

>  <i_i_glide_rotatable_bonds>  (300) 
4

>  <r_i_docking_score>  (300) 
-3.55641

>  <r_i_glide_ligand_efficiency>  (300) 
-0.142256

>  <r_i_glide_ligand_efficiency_sa>  (300) 
-0.41596

>  <r_i_glide_ligand_efficiency_ln>  (300) 
-0.842975

>  <r_i_glide_gscore>  (300) 
-3.55641

>  <r_i_glide_lipo>  (300) 
-0.34675

>  <r_i_glide_hbond>  (300) 
-0.2

>  <r_i_glide_metal>  (300) 
-0

>  <r_i_glide_rewards>  (300) 
-1.07403

>  <r_i_glide_evdw>  (300) 
-20.8979

>  <r_i_glide_ecoul>  (300) 
-7.52859

>  <r_i_glide_erotb>  (300) 
0.323354

>  <r_i_glide_esite>  (300) 
-0.084794

>  <r_i_glide_emodel>  (300) 
-38.258

>  <r_i_glide_energy>  (300) 
-28.4265

>  <r_i_glide_einternal>  (300) 
0.147368

>  <r_i_glide_intrahb_reward>  (300) 
-0

>  <i_i_glide_confnum>  (300) 
1

>  <i_i_glide_posenum>  (300) 
7

>  <r_i_glide_eff_state_penalty>  (300) 
0

>  <ligand_id>  (300) 
76

>  <original_smiles>  (300) 
Oc1ccc2c(c1)C13CCN(CC4CC4)C(C2)C1(O)C1CCN3CC1

>  <smiles>  (300) 
[H]Oc1c([H])c([H])c2c(c1[H])C13C([H])([H])C([H])([H])[N+]([H])(C([H])([H])C4([H])C([H])([H])C4([H])[H])C([H])(C2([H])[H])C1(O[H])C1([H])C([H])([H])C([H])([H])[N+]3([H])C([H])([H])C1([H])[H]

$$$$
76:1:1
     RDKit          3D

 55 60  0  0  1  0  0  0  0  0999 V2000
    4.2138  -13.1548    6.2661 O   0  0  0  0  0  0  0  0  0  0  0  0
    3.9529  -11.8319    6.0860 C   0  0  0  0  0  0  0  0  0  0  0  0
    3.9489  -10.9571    7.1888 C   0  0  0  0  0  0  0  0  0  0  0  0
    3.6542   -9.6010    6.9877 C   0  0  0  0  0  0  0  0  0  0  0  0
    3.3834   -9.1334    5.6955 C   0  0  0  0  0  0  0  0  0  0  0  0
    3.3712  -10.0059    4.5701 C   0  0  0  0  0  0  0  0  0  0  0  0
    3.6585  -11.3658    4.7962 C   0  0  0  0  0  0  0  0  0  0  0  0
    2.9715   -9.5189    3.1545 C   0  0  1  0  0  0  0  0  0  0  0  0
    1.5404  -10.0792    2.9532 C   0  0  0  0  0  0  0  0  0  0  0  0
    0.6107   -9.5351    4.0924 C   0  0  0  0  0  0  0  0  0  0  0  0
    0.7394   -8.0647    4.3953 N   0  0  1  0  0  0  0  0  0  0  0  0
   -0.0224   -7.6932    5.6137 C   0  0  0  0  0  0  0  0  0  0  0  0
   -0.3119   -6.2000    5.7114 C   0  0  0  0  0  0  0  0  0  0  0  0
    0.6704   -5.2202    6.3344 C   0  0  0  0  0  0  0  0  0  0  0  0
   -0.5894   -5.5528    7.0643 C   0  0  0  0  0  0  0  0  0  0  0  0
    2.1221   -7.4535    4.3024 C   0  0  1  0  0  0  0  0  0  0  0  0
    3.0159   -7.6910    5.5290 C   0  0  0  0  0  0  0  0  0  0  0  0
    2.8076   -7.9607    3.0205 C   0  0  2  0  0  0  0  0  0  0  0  0
    1.8279   -7.5204    2.0646 O   0  0  0  0  0  0  0  0  0  0  0  0
    4.1785   -7.3705    2.5025 C   0  0  1  0  0  0  0  0  0  0  0  0
    5.4150   -8.1177    3.1062 C   0  0  0  0  0  0  0  0  0  0  0  0
    5.3888   -9.6167    2.6840 C   0  0  0  0  0  0  0  0  0  0  0  0
    4.0288   -9.9467    2.1607 N   0  0  2  0  0  0  0  0  0  0  0  0
    3.9129   -9.2477    0.8491 C   0  0  0  0  0  0  0  0  0  0  0  0
    4.2761   -7.7353    0.9963 C   0  0  0  0  0  0  0  0  0  0  0  0
    3.4375  -13.6384    6.5473 H   0  0  0  0  0  0  0  0  0  0  0  0
    4.1307  -11.3153    8.1871 H   0  0  0  0  0  0  0  0  0  0  0  0
    3.5965   -8.9293    7.8386 H   0  0  0  0  0  0  0  0  0  0  0  0
    3.6473  -12.0723    3.9762 H   0  0  0  0  0  0  0  0  0  0  0  0
    1.1202   -9.8411    1.9728 H   0  0  0  0  0  0  0  0  0  0  0  0
    1.5417  -11.1697    2.9999 H   0  0  0  0  0  0  0  0  0  0  0  0
   -0.4249   -9.7453    3.8157 H   0  0  0  0  0  0  0  0  0  0  0  0
    0.7785  -10.1075    5.0073 H   0  0  0  0  0  0  0  0  0  0  0  0
   -0.9778   -8.2158    5.5709 H   0  0  0  0  0  0  0  0  0  0  0  0
    0.4580   -8.0542    6.5210 H   0  0  0  0  0  0  0  0  0  0  0  0
   -0.9395   -5.8342    4.8973 H   0  0  0  0  0  0  0  0  0  0  0  0
    1.5779   -5.5736    6.8211 H   0  0  0  0  0  0  0  0  0  0  0  0
    0.7405   -4.2474    5.8439 H   0  0  0  0  0  0  0  0  0  0  0  0
   -1.3272   -4.7545    7.1416 H   0  0  0  0  0  0  0  0  0  0  0  0
   -0.5129   -6.1863    7.9465 H   0  0  0  0  0  0  0  0  0  0  0  0
    1.9823   -6.3780    4.2011 H   0  0  0  0  0  0  0  0  0  0  0  0
    2.5572   -7.3900    6.4693 H   0  0  0  0  0  0  0  0  0  0  0  0
    3.9220   -7.0898    5.4271 H   0  0  0  0  0  0  0  0  0  0  0  0
    1.9581   -7.9842    1.2499 H   0  0  0  0  0  0  0  0  0  0  0  0
    4.2560   -6.2910    2.6455 H   0  0  0  0  0  0  0  0  0  0  0  0
    6.3478   -7.6679    2.7555 H   0  0  0  0  0  0  0  0  0  0  0  0
    5.4441   -8.0307    4.1914 H   0  0  0  0  0  0  0  0  0  0  0  0
    6.1242   -9.8033    1.9020 H   0  0  0  0  0  0  0  0  0  0  0  0
    5.6927  -10.2620    3.5068 H   0  0  0  0  0  0  0  0  0  0  0  0
    4.5886   -9.7112    0.1390 H   0  0  0  0  0  0  0  0  0  0  0  0
    2.9067   -9.4134    0.4591 H   0  0  0  0  0  0  0  0  0  0  0  0
    3.6451   -7.1040    0.3736 H   0  0  0  0  0  0  0  0  0  0  0  0
    5.2920   -7.5561    0.6294 H   0  0  0  0  0  0  0  0  0  0  0  0
    3.9684  -10.9378    1.9636 H   0  0  0  0  0  0  0  0  0  0  0  0
    0.2535   -7.6388    3.6181 H   0  0  0  0  0  0  0  0  0  0  0  0
  1  2  1  0
  1 26  1  0
  2  7  2  0
  2  3  1  0
  3  4  2  0
  3 27  1  0
  4  5  1  0
  4 28  1  0
  5 17  1  0
  5  6  2  0
  6  7  1  0
  6  8  1  0
  7 29  1  0
  8 18  1  0
  8 23  1  0
  8  9  1  6
  9 10  1  0
  9 30  1  0
  9 31  1  0
 10 11  1  0
 10 32  1  0
 10 33  1  0
 11 12  1  0
 11 16  1  0
 11 55  1  6
 12 13  1  0
 12 34  1  0
 12 35  1  0
 13 15  1  0
 13 14  1  0
 13 36  1  0
 14 15  1  0
 14 37  1  0
 14 38  1  0
 15 39  1  0
 15 40  1  0
 16 17  1  0
 16 18  1  0
 16 41  1  6
 17 42  1  0
 17 43  1  0
 18 19  1  6
 18 20  1  0
 19 44  1  0
 20 25  1  0
 20 21  1  0
 20 45  1  6
 21 22  1  0
 21 46  1  0
 21 47  1  0
 22 23  1  0
 22 48  1  0
 22 49  1  0
 23 24  1  0
 23 54  1  6
 24 25  1  0
 24 50  1  0
 24 51  1  0
 25 52  1  0
 25 53  1  0
M  CHG  2  11   1  23   1
M  END
>  <i_m_ct_stereo_status>  (301) 
1

>  <s_m_source_file>  (301) 
/var/tmp/pbs.5076255.sched01/tmppdndq9e4/92von5zo7h.sdf

>  <i_m_source_file_index>  (301) 
33

>  <i_lp_mmshare_version>  (301) 
48012

>  <i_f3d_flags>  (301) 
0

>  <s_epik_input>  (301) 
W09IXWMoW2NIXTEpW2NIXVtjSF1jKGMxW0NAQF0yMzQpW0NIMl1bQ0BIXShOKFtDSDJdW0NIMl0yKVtDSDJdW0NIXTVbQ0gyXVtDSDJdNSlbQ0BAXTMoW09IXSlbQ0hdNltDSDJdW0NIMl1ONFtDSDJdW0NIMl02

>  <s_epik_cmdline>  (301) 
J2VwaWtfcHl0aG9uJywgJy1waHQnLCAnMi4wJywgJy1waCcsICc3LjAnLCAnLXRuJywgJzgnLCAnLW1hJywgJzIwMCcsICctaW1hZScsICc8aW5maWxlLm1hZT4nLCAnLW9tYWUnLCAnPG91dGZpbGUubWFlPic=

>  <r_lp_tautomer_probability>  (301) 
1

>  <r_epik_Ionization_Penalty>  (301) 
1.97523

>  <r_epik_Ionization_Penalty_Charging>  (301) 
1.96592

>  <r_epik_Ionization_Penalty_Neutral>  (301) 
0.00931637

>  <r_epik_State_Penalty>  (301) 
1.73759

>  <r_epik_Charging_Adjusted_Penalty>  (301) 
3.7035

>  <i_epik_Tot_Q>  (301) 
2

>  <i_epik_Tot_abs_Q>  (301) 
2

>  <s_lp_Force_Field>  (301) 
OPLS3e

>  <r_lp_Energy>  (301) 
93.9442

>  <b_lp_Chiralities_Consistent>  (301) 
1

>  <s_lp_Variant>  (301) 
76:0-2

>  <s_i_glide_gridfile>  (301) 
pfpi4k_grid

>  <i_i_glide_lignum>  (301) 
33

>  <i_i_glide_rotatable_bonds>  (301) 
4

>  <r_i_docking_score>  (301) 
-3.51363

>  <r_i_glide_ligand_efficiency>  (301) 
-0.140545

>  <r_i_glide_ligand_efficiency_sa>  (301) 
-0.410957

>  <r_i_glide_ligand_efficiency_ln>  (301) 
-0.832836

>  <r_i_glide_gscore>  (301) 
-3.51363

>  <r_i_glide_lipo>  (301) 
-0.217522

>  <r_i_glide_hbond>  (301) 
-0.302551

>  <r_i_glide_metal>  (301) 
-0

>  <r_i_glide_rewards>  (301) 
-1.07403

>  <r_i_glide_evdw>  (301) 
-16.1602

>  <r_i_glide_ecoul>  (301) 
-8.9007

>  <r_i_glide_erotb>  (301) 
0.323354

>  <r_i_glide_esite>  (301) 
-0.0997644

>  <r_i_glide_emodel>  (301) 
-32.2668

>  <r_i_glide_energy>  (301) 
-25.0609

>  <r_i_glide_einternal>  (301) 
4.10424

>  <r_i_glide_intrahb_reward>  (301) 
-0

>  <i_i_glide_confnum>  (301) 
1

>  <i_i_glide_posenum>  (301) 
2

>  <r_i_glide_eff_state_penalty>  (301) 
0

>  <ligand_id>  (301) 
76

>  <original_smiles>  (301) 
Oc1ccc2c(c1)C13CCN(CC4CC4)C(C2)C1(O)C1CCN3CC1

>  <smiles>  (301) 
[H]Oc1c([H])c([H])c2c(c1[H])C13C([H])([H])C([H])([H])[N+]([H])(C([H])([H])C4([H])C([H])([H])C4([H])[H])C([H])(C2([H])[H])C1(O[H])C1([H])C([H])([H])C([H])([H])[N+]3([H])C([H])([H])C1([H])[H]

$$$$
76:1:2
     RDKit          3D

 55 60  0  0  1  0  0  0  0  0999 V2000
    5.7413  -13.4909    5.8035 O   0  0  0  0  0  0  0  0  0  0  0  0
    5.3357  -12.4951    4.9713 C   0  0  0  0  0  0  0  0  0  0  0  0
    5.9571  -12.3317    3.7221 C   0  0  0  0  0  0  0  0  0  0  0  0
    5.5447  -11.2890    2.8791 C   0  0  0  0  0  0  0  0  0  0  0  0
    4.5141  -10.4261    3.2796 C   0  0  0  0  0  0  0  0  0  0  0  0
    3.8770  -10.5680    4.5420 C   0  0  0  0  0  0  0  0  0  0  0  0
    4.3085  -11.6230    5.3792 C   0  0  0  0  0  0  0  0  0  0  0  0
    2.7992   -9.5556    5.0419 C   0  0  1  0  0  0  0  0  0  0  0  0
    3.5676   -8.6878    6.0754 C   0  0  0  0  0  0  0  0  0  0  0  0
    4.8092   -8.0176    5.3863 C   0  0  0  0  0  0  0  0  0  0  0  0
    4.5613   -7.3915    4.0342 N   0  0  1  0  0  0  0  0  0  0  0  0
    5.8345   -6.9673    3.3909 C   0  0  0  0  0  0  0  0  0  0  0  0
    5.6174   -5.9527    2.2794 C   0  0  0  0  0  0  0  0  0  0  0  0
    5.4093   -6.3918    0.8437 C   0  0  0  0  0  0  0  0  0  0  0  0
    6.6977   -5.7300    1.2378 C   0  0  0  0  0  0  0  0  0  0  0  0
    3.5649   -8.0964    3.1241 C   0  0  1  0  0  0  0  0  0  0  0  0
    4.1371   -9.2988    2.3579 C   0  0  0  0  0  0  0  0  0  0  0  0
    2.3247   -8.5178    3.9485 C   0  0  2  0  0  0  0  0  0  0  0  0
    1.9019   -7.2266    4.4224 O   0  0  0  0  0  0  0  0  0  0  0  0
    1.0131   -9.1019    3.2901 C   0  0  1  0  0  0  0  0  0  0  0  0
    1.0677  -10.6538    3.1217 C   0  0  0  0  0  0  0  0  0  0  0  0
    1.1784  -11.3325    4.5184 C   0  0  0  0  0  0  0  0  0  0  0  0
    1.5786  -10.3060    5.5307 N   0  0  2  0  0  0  0  0  0  0  0  0
    0.3824   -9.4223    5.7232 C   0  0  0  0  0  0  0  0  0  0  0  0
   -0.1291   -8.9078    4.3380 C   0  0  0  0  0  0  0  0  0  0  0  0
    6.5076  -13.9466    5.4934 H   0  0  0  0  0  0  0  0  0  0  0  0
    6.7412  -12.9897    3.3883 H   0  0  0  0  0  0  0  0  0  0  0  0
    6.0233  -11.1469    1.9228 H   0  0  0  0  0  0  0  0  0  0  0  0
    3.8543  -11.7678    6.3487 H   0  0  0  0  0  0  0  0  0  0  0  0
    2.9277   -7.9372    6.5467 H   0  0  0  0  0  0  0  0  0  0  0  0
    3.9228   -9.3130    6.8977 H   0  0  0  0  0  0  0  0  0  0  0  0
    5.1980   -7.2489    6.0600 H   0  0  0  0  0  0  0  0  0  0  0  0
    5.6135   -8.7540    5.2946 H   0  0  0  0  0  0  0  0  0  0  0  0
    6.4624   -6.4791    4.1398 H   0  0  0  0  0  0  0  0  0  0  0  0
    6.4045   -7.8239    3.0288 H   0  0  0  0  0  0  0  0  0  0  0  0
    5.0976   -5.0445    2.6022 H   0  0  0  0  0  0  0  0  0  0  0  0
    5.4930   -7.4401    0.5690 H   0  0  0  0  0  0  0  0  0  0  0  0
    4.6901   -5.8104    0.2662 H   0  0  0  0  0  0  0  0  0  0  0  0
    6.8599   -4.7299    0.8368 H   0  0  0  0  0  0  0  0  0  0  0  0
    7.5843   -6.3598    1.2809 H   0  0  0  0  0  0  0  0  0  0  0  0
    3.2434   -7.3612    2.3821 H   0  0  0  0  0  0  0  0  0  0  0  0
    5.0220   -9.0504    1.7787 H   0  0  0  0  0  0  0  0  0  0  0  0
    3.3971   -9.6495    1.6344 H   0  0  0  0  0  0  0  0  0  0  0  0
    2.5361   -6.8704    5.0238 H   0  0  0  0  0  0  0  0  0  0  0  0
    0.7683   -8.6080    2.3460 H   0  0  0  0  0  0  0  0  0  0  0  0
    0.1679  -11.0156    2.6209 H   0  0  0  0  0  0  0  0  0  0  0  0
    1.8952  -10.9577    2.4830 H   0  0  0  0  0  0  0  0  0  0  0  0
    0.2207  -11.7676    4.8120 H   0  0  0  0  0  0  0  0  0  0  0  0
    1.8677  -12.1794    4.4865 H   0  0  0  0  0  0  0  0  0  0  0  0
   -0.4099   -9.9894    6.2167 H   0  0  0  0  0  0  0  0  0  0  0  0
    0.6177   -8.5854    6.3864 H   0  0  0  0  0  0  0  0  0  0  0  0
   -0.4730   -7.8753    4.4096 H   0  0  0  0  0  0  0  0  0  0  0  0
   -1.0151   -9.4571    4.0169 H   0  0  0  0  0  0  0  0  0  0  0  0
    1.7762  -10.8083    6.3946 H   0  0  0  0  0  0  0  0  0  0  0  0
    4.1188   -6.5109    4.2465 H   0  0  0  0  0  0  0  0  0  0  0  0
  1  2  1  0
  1 26  1  0
  2  7  2  0
  2  3  1  0
  3  4  2  0
  3 27  1  0
  4  5  1  0
  4 28  1  0
  5 17  1  0
  5  6  2  0
  6  7  1  0
  6  8  1  0
  7 29  1  0
  8 18  1  0
  8 23  1  0
  8  9  1  1
  9 10  1  0
  9 30  1  0
  9 31  1  0
 10 11  1  0
 10 32  1  0
 10 33  1  0
 11 12  1  0
 11 16  1  0
 11 55  1  1
 12 13  1  0
 12 34  1  0
 12 35  1  0
 13 15  1  0
 13 14  1  0
 13 36  1  0
 14 15  1  0
 14 37  1  0
 14 38  1  0
 15 39  1  0
 15 40  1  0
 16 17  1  0
 16 18  1  0
 16 41  1  6
 17 42  1  0
 17 43  1  0
 18 19  1  1
 18 20  1  0
 19 44  1  0
 20 25  1  0
 20 21  1  0
 20 45  1  6
 21 22  1  0
 21 46  1  0
 21 47  1  0
 22 23  1  0
 22 48  1  0
 22 49  1  0
 23 24  1  0
 23 54  1  1
 24 25  1  0
 24 50  1  0
 24 51  1  0
 25 52  1  0
 25 53  1  0
M  CHG  2  11   1  23   1
M  END
>  <i_m_ct_stereo_status>  (302) 
1

>  <s_m_source_file>  (302) 
/var/tmp/pbs.5076255.sched01/tmppdndq9e4/92von5zo7h.sdf

>  <i_m_source_file_index>  (302) 
33

>  <i_lp_mmshare_version>  (302) 
48012

>  <i_f3d_flags>  (302) 
0

>  <s_epik_input>  (302) 
W09IXWMoW2NIXTEpW2NIXVtjSF1jKGMxW0NAQF0yMzQpW0NIMl1bQ0BIXShOKFtDSDJdW0NIMl0yKVtDSDJdW0NIXTVbQ0gyXVtDSDJdNSlbQ0BAXTMoW09IXSlbQ0hdNltDSDJdW0NIMl1ONFtDSDJdW0NIMl02

>  <s_epik_cmdline>  (302) 
J2VwaWtfcHl0aG9uJywgJy1waHQnLCAnMi4wJywgJy1waCcsICc3LjAnLCAnLXRuJywgJzgnLCAnLW1hJywgJzIwMCcsICctaW1hZScsICc8aW5maWxlLm1hZT4nLCAnLW9tYWUnLCAnPG91dGZpbGUubWFlPic=

>  <r_lp_tautomer_probability>  (302) 
1

>  <r_epik_Ionization_Penalty>  (302) 
1.97523

>  <r_epik_Ionization_Penalty_Charging>  (302) 
1.96592

>  <r_epik_Ionization_Penalty_Neutral>  (302) 
0.00931637

>  <r_epik_State_Penalty>  (302) 
1.73759

>  <r_epik_Charging_Adjusted_Penalty>  (302) 
3.7035

>  <i_epik_Tot_Q>  (302) 
2

>  <i_epik_Tot_abs_Q>  (302) 
2

>  <s_lp_Force_Field>  (302) 
OPLS3e

>  <r_lp_Energy>  (302) 
93.9442

>  <b_lp_Chiralities_Consistent>  (302) 
1

>  <s_lp_Variant>  (302) 
76:0-2

>  <s_i_glide_gridfile>  (302) 
pfpi4k_grid

>  <i_i_glide_lignum>  (302) 
33

>  <i_i_glide_rotatable_bonds>  (302) 
4

>  <r_i_docking_score>  (302) 
-3.31767

>  <r_i_glide_ligand_efficiency>  (302) 
-0.132707

>  <r_i_glide_ligand_efficiency_sa>  (302) 
-0.388037

>  <r_i_glide_ligand_efficiency_ln>  (302) 
-0.786387

>  <r_i_glide_gscore>  (302) 
-3.31767

>  <r_i_glide_lipo>  (302) 
-0.437034

>  <r_i_glide_hbond>  (302) 
-0.191236

>  <r_i_glide_metal>  (302) 
-0

>  <r_i_glide_rewards>  (302) 
-1.07403

>  <r_i_glide_evdw>  (302) 
-21.2683

>  <r_i_glide_ecoul>  (302) 
-5.33238

>  <r_i_glide_erotb>  (302) 
0.323354

>  <r_i_glide_esite>  (302) 
-0.0754501

>  <r_i_glide_emodel>  (302) 
-35.5099

>  <r_i_glide_energy>  (302) 
-26.6006

>  <r_i_glide_einternal>  (302) 
0.451658

>  <r_i_glide_intrahb_reward>  (302) 
-0

>  <i_i_glide_confnum>  (302) 
1

>  <i_i_glide_posenum>  (302) 
13

>  <r_i_glide_eff_state_penalty>  (302) 
0

>  <ligand_id>  (302) 
76

>  <original_smiles>  (302) 
Oc1ccc2c(c1)C13CCN(CC4CC4)C(C2)C1(O)C1CCN3CC1

>  <smiles>  (302) 
[H]Oc1c([H])c([H])c2c(c1[H])C13C([H])([H])C([H])([H])[N+]([H])(C([H])([H])C4([H])C([H])([H])C4([H])[H])C([H])(C2([H])[H])C1(O[H])C1([H])C([H])([H])C([H])([H])[N+]3([H])C([H])([H])C1([H])[H]

$$$$
76:2:0
     RDKit          3D

 54 59  0  0  1  0  0  0  0  0999 V2000
   -1.6211   -8.6607    4.3852 O   0  0  0  0  0  0  0  0  0  0  0  0
   -0.3044   -8.3443    4.4975 C   0  0  0  0  0  0  0  0  0  0  0  0
    0.0755   -7.1867    5.1982 C   0  0  0  0  0  0  0  0  0  0  0  0
    1.4270   -6.8689    5.3173 C   0  0  0  0  0  0  0  0  0  0  0  0
    2.3993   -7.6945    4.7232 C   0  0  0  0  0  0  0  0  0  0  0  0
    2.0300   -8.8797    4.0395 C   0  0  0  0  0  0  0  0  0  0  0  0
    0.6574   -9.1852    3.9208 C   0  0  0  0  0  0  0  0  0  0  0  0
    3.0894   -9.8200    3.3764 C   0  0  1  0  0  0  0  0  0  0  0  0
    2.9489   -9.5314    1.8657 C   0  0  0  0  0  0  0  0  0  0  0  0
    3.2710   -8.0198    1.5803 C   0  0  0  0  0  0  0  0  0  0  0  0
    4.4452   -7.4547    2.2983 N   0  0  0  0  0  0  0  0  0  0  0  0
    4.7665   -6.0654    1.9899 C   0  0  0  0  0  0  0  0  0  0  0  0
    6.2386   -5.7404    2.1862 C   0  0  0  0  0  0  0  0  0  0  0  0
    6.8806   -4.5535    1.4995 C   0  0  0  0  0  0  0  0  0  0  0  0
    7.1947   -5.9450    1.0369 C   0  0  0  0  0  0  0  0  0  0  0  0
    4.7003   -7.9194    3.7009 C   0  0  1  0  0  0  0  0  0  0  0  0
    3.8512   -7.2745    4.7984 C   0  0  0  0  0  0  0  0  0  0  0  0
    4.5840   -9.4522    3.7251 C   0  0  2  0  0  0  0  0  0  0  0  0
    5.5755   -9.7744    2.7314 O   0  0  0  0  0  0  0  0  0  0  0  0
    5.0333  -10.3104    4.9615 C   0  0  1  0  0  0  0  0  0  0  0  0
    3.8841  -10.5196    5.9936 C   0  0  0  0  0  0  0  0  0  0  0  0
    2.7050  -11.2905    5.3240 C   0  0  0  0  0  0  0  0  0  0  0  0
    2.8800  -11.2538    3.8296 N   0  0  2  0  0  0  0  0  0  0  0  0
    4.0500  -12.1582    3.5347 C   0  0  0  0  0  0  0  0  0  0  0  0
    5.2743  -11.7548    4.4260 C   0  0  0  0  0  0  0  0  0  0  0  0
   -1.7904   -9.6210    4.4958 H   0  0  0  0  0  0  0  0  0  0  0  0
   -0.6706   -6.5524    5.6501 H   0  0  0  0  0  0  0  0  0  0  0  0
    1.7312   -5.9725    5.8515 H   0  0  0  0  0  0  0  0  0  0  0  0
    0.3402  -10.0698    3.3856 H   0  0  0  0  0  0  0  0  0  0  0  0
    3.6117  -10.1650    1.2790 H   0  0  0  0  0  0  0  0  0  0  0  0
    1.9425   -9.7687    1.5100 H   0  0  0  0  0  0  0  0  0  0  0  0
    3.4674   -7.9566    0.5078 H   0  0  0  0  0  0  0  0  0  0  0  0
    2.3912   -7.3973    1.7522 H   0  0  0  0  0  0  0  0  0  0  0  0
    4.5046   -5.8508    0.9555 H   0  0  0  0  0  0  0  0  0  0  0  0
    4.1659   -5.3866    2.5926 H   0  0  0  0  0  0  0  0  0  0  0  0
    6.6284   -5.9486    3.1737 H   0  0  0  0  0  0  0  0  0  0  0  0
    6.2394   -3.9247    0.8792 H   0  0  0  0  0  0  0  0  0  0  0  0
    7.6695   -4.0613    2.0493 H   0  0  0  0  0  0  0  0  0  0  0  0
    8.1768   -6.3708    1.2564 H   0  0  0  0  0  0  0  0  0  0  0  0
    6.7543   -6.2630    0.1020 H   0  0  0  0  0  0  0  0  0  0  0  0
    5.7340   -7.7025    3.9763 H   0  0  0  0  0  0  0  0  0  0  0  0
    3.9389   -6.1930    4.7756 H   0  0  0  0  0  0  0  0  0  0  0  0
    4.2462   -7.5667    5.7650 H   0  0  0  0  0  0  0  0  0  0  0  0
    5.3704  -10.6113    2.3376 H   0  0  0  0  0  0  0  0  0  0  0  0
    5.9327   -9.9120    5.4344 H   0  0  0  0  0  0  0  0  0  0  0  0
    4.2369  -11.1000    6.8552 H   0  0  0  0  0  0  0  0  0  0  0  0
    3.5343   -9.5707    6.4021 H   0  0  0  0  0  0  0  0  0  0  0  0
    2.7115  -12.3267    5.6570 H   0  0  0  0  0  0  0  0  0  0  0  0
    1.7444  -10.8962    5.6491 H   0  0  0  0  0  0  0  0  0  0  0  0
    3.7912  -13.1900    3.7610 H   0  0  0  0  0  0  0  0  0  0  0  0
    4.2987  -12.1279    2.4921 H   0  0  0  0  0  0  0  0  0  0  0  0
    6.2042  -11.8471    3.8556 H   0  0  0  0  0  0  0  0  0  0  0  0
    5.3845  -12.4529    5.2643 H   0  0  0  0  0  0  0  0  0  0  0  0
    2.0575  -11.6351    3.3969 H   0  0  0  0  0  0  0  0  0  0  0  0
  1  2  1  0
  1 26  1  0
  2  7  2  0
  2  3  1  0
  3  4  2  0
  3 27  1  0
  4  5  1  0
  4 28  1  0
  5 17  1  0
  5  6  2  0
  6  7  1  0
  6  8  1  0
  7 29  1  0
  8 18  1  0
  8 23  1  0
  8  9  1  6
  9 10  1  0
  9 30  1  0
  9 31  1  0
 10 11  1  0
 10 32  1  0
 10 33  1  0
 11 12  1  0
 11 16  1  0
 12 13  1  0
 12 34  1  0
 12 35  1  0
 13 15  1  0
 13 14  1  0
 13 36  1  0
 14 15  1  0
 14 37  1  0
 14 38  1  0
 15 39  1  0
 15 40  1  0
 16 17  1  0
 16 18  1  0
 16 41  1  1
 17 42  1  0
 17 43  1  0
 18 19  1  6
 18 20  1  0
 19 44  1  0
 20 25  1  0
 20 21  1  0
 20 45  1  1
 21 22  1  0
 21 46  1  0
 21 47  1  0
 22 23  1  0
 22 48  1  0
 22 49  1  0
 23 24  1  0
 23 54  1  6
 24 25  1  0
 24 50  1  0
 24 51  1  0
 25 52  1  0
 25 53  1  0
M  CHG  1  23   1
M  END
>  <i_m_ct_stereo_status>  (303) 
1

>  <s_m_source_file>  (303) 
/var/tmp/pbs.5076255.sched01/tmppdndq9e4/92von5zo7h.sdf

>  <i_m_source_file_index>  (303) 
34

>  <i_lp_mmshare_version>  (303) 
48012

>  <i_f3d_flags>  (303) 
0

>  <s_epik_input>  (303) 
W09IXWMoW2NIXTEpW2NIXVtjSF1jKGMxW0NAQF0yMzQpW0NIMl1bQ0BIXShOKFtDSDJdW0NIMl0yKVtDSDJdW0NIXTVbQ0gyXVtDSDJdNSlbQ0BAXTMoW09IXSlbQ0hdNltDSDJdW0NIMl1ONFtDSDJdW0NIMl02

>  <s_epik_cmdline>  (303) 
J2VwaWtfcHl0aG9uJywgJy1waHQnLCAnMi4wJywgJy1waCcsICc3LjAnLCAnLXRuJywgJzgnLCAnLW1hJywgJzIwMCcsICctaW1hZScsICc8aW5maWxlLm1hZT4nLCAnLW9tYWUnLCAnPG91dGZpbGUubWFlPic=

>  <r_lp_tautomer_probability>  (303) 
1

>  <r_epik_Ionization_Penalty>  (303) 
0.480503

>  <r_epik_Ionization_Penalty_Charging>  (303) 
0.00562731

>  <r_epik_Ionization_Penalty_Neutral>  (303) 
0.474876

>  <r_epik_State_Penalty>  (303) 
1.8665

>  <r_epik_Charging_Adjusted_Penalty>  (303) 
1.87212

>  <i_epik_Tot_Q>  (303) 
1

>  <i_epik_Tot_abs_Q>  (303) 
1

>  <s_lp_Force_Field>  (303) 
OPLS3e

>  <r_lp_Energy>  (303) 
95.0859

>  <b_lp_Chiralities_Consistent>  (303) 
1

>  <s_lp_Variant>  (303) 
76:0-3

>  <s_i_glide_gridfile>  (303) 
pfpi4k_grid

>  <i_i_glide_lignum>  (303) 
34

>  <i_i_glide_rotatable_bonds>  (303) 
4

>  <r_i_docking_score>  (303) 
-3.74327

>  <r_i_glide_ligand_efficiency>  (303) 
-0.149731

>  <r_i_glide_ligand_efficiency_sa>  (303) 
-0.437815

>  <r_i_glide_ligand_efficiency_ln>  (303) 
-0.887267

>  <r_i_glide_gscore>  (303) 
-3.74327

>  <r_i_glide_lipo>  (303) 
-0.228549

>  <r_i_glide_hbond>  (303) 
-0.16

>  <r_i_glide_metal>  (303) 
-0

>  <r_i_glide_rewards>  (303) 
-1.08091

>  <r_i_glide_evdw>  (303) 
-14.3906

>  <r_i_glide_ecoul>  (303) 
-12.4194

>  <r_i_glide_erotb>  (303) 
0.325049

>  <r_i_glide_esite>  (303) 
-0.016416

>  <r_i_glide_emodel>  (303) 
-34.7623

>  <r_i_glide_energy>  (303) 
-26.8101

>  <r_i_glide_einternal>  (303) 
1.69845

>  <r_i_glide_intrahb_reward>  (303) 
-0

>  <i_i_glide_confnum>  (303) 
4

>  <i_i_glide_posenum>  (303) 
18

>  <r_i_glide_eff_state_penalty>  (303) 
0

>  <ligand_id>  (303) 
76

>  <original_smiles>  (303) 
Oc1ccc2c(c1)C13CCN(CC4CC4)C(C2)C1(O)C1CCN3CC1

>  <smiles>  (303) 
[H]Oc1c([H])c([H])c2c(c1[H])C13C([H])([H])C([H])([H])N(C([H])([H])C4([H])C([H])([H])C4([H])[H])C([H])(C2([H])[H])C1(O[H])C1([H])C([H])([H])C([H])([H])[N+]3([H])C([H])([H])C1([H])[H]

$$$$
76:2:1
     RDKit          3D

 54 59  0  0  1  0  0  0  0  0999 V2000
   -1.3879   -7.0871    2.8711 O   0  0  0  0  0  0  0  0  0  0  0  0
   -0.0786   -7.0498    3.2470 C   0  0  0  0  0  0  0  0  0  0  0  0
    0.3974   -5.9322    3.9487 C   0  0  0  0  0  0  0  0  0  0  0  0
    1.7464   -5.8501    4.3123 C   0  0  0  0  0  0  0  0  0  0  0  0
    2.6139   -6.8944    3.9690 C   0  0  0  0  0  0  0  0  0  0  0  0
    2.1430   -8.0583    3.3063 C   0  0  0  0  0  0  0  0  0  0  0  0
    0.7824   -8.1163    2.9241 C   0  0  0  0  0  0  0  0  0  0  0  0
    3.0939   -9.2323    2.9424 C   0  0  1  0  0  0  0  0  0  0  0  0
    3.3072   -9.0760    1.4224 C   0  0  0  0  0  0  0  0  0  0  0  0
    3.9777   -7.6923    1.1214 C   0  0  0  0  0  0  0  0  0  0  0  0
    5.1088   -7.3098    2.0106 N   0  0  0  0  0  0  0  0  0  0  0  0
    5.7276   -6.0311    1.6915 C   0  0  0  0  0  0  0  0  0  0  0  0
    7.1293   -5.8994    2.2460 C   0  0  0  0  0  0  0  0  0  0  0  0
    8.2345   -5.1649    1.5124 C   0  0  0  0  0  0  0  0  0  0  0  0
    8.2458   -6.6668    1.5789 C   0  0  0  0  0  0  0  0  0  0  0  0
    4.9735   -7.6540    3.4687 C   0  0  1  0  0  0  0  0  0  0  0  0
    4.0763   -6.7401    4.3008 C   0  0  0  0  0  0  0  0  0  0  0  0
    4.5350   -9.1190    3.5713 C   0  0  2  0  0  0  0  0  0  0  0  0
    5.6164   -9.7270    2.8384 O   0  0  0  0  0  0  0  0  0  0  0  0
    4.5564   -9.9067    4.9278 C   0  0  1  0  0  0  0  0  0  0  0  0
    3.2151   -9.7870    5.7138 C   0  0  0  0  0  0  0  0  0  0  0  0
    2.0547  -10.3919    4.8652 C   0  0  0  0  0  0  0  0  0  0  0  0
    2.5117  -10.5403    3.4435 N   0  0  2  0  0  0  0  0  0  0  0  0
    3.5006  -11.6712    3.4561 C   0  0  0  0  0  0  0  0  0  0  0  0
    4.5858  -11.4181    4.5523 C   0  0  0  0  0  0  0  0  0  0  0  0
   -1.6422   -7.9472    2.5707 H   0  0  0  0  0  0  0  0  0  0  0  0
   -0.2507   -5.1147    4.1987 H   0  0  0  0  0  0  0  0  0  0  0  0
    2.1180   -4.9693    4.8214 H   0  0  0  0  0  0  0  0  0  0  0  0
    0.4118   -8.9758    2.3756 H   0  0  0  0  0  0  0  0  0  0  0  0
    3.9508   -9.8530    1.0092 H   0  0  0  0  0  0  0  0  0  0  0  0
    2.3595   -9.1670    0.8848 H   0  0  0  0  0  0  0  0  0  0  0  0
    4.3337   -7.7734    0.0886 H   0  0  0  0  0  0  0  0  0  0  0  0
    3.2478   -6.8821    1.1164 H   0  0  0  0  0  0  0  0  0  0  0  0
    5.7911   -5.9288    0.6116 H   0  0  0  0  0  0  0  0  0  0  0  0
    5.1080   -5.2083    2.0406 H   0  0  0  0  0  0  0  0  0  0  0  0
    7.1750   -5.8249    3.3312 H   0  0  0  0  0  0  0  0  0  0  0  0
    7.9824   -4.6741    0.5712 H   0  0  0  0  0  0  0  0  0  0  0  0
    8.9606   -4.6526    2.1429 H   0  0  0  0  0  0  0  0  0  0  0  0
    8.9719   -7.1284    2.2458 H   0  0  0  0  0  0  0  0  0  0  0  0
    8.0275   -7.2286    0.6695 H   0  0  0  0  0  0  0  0  0  0  0  0
    5.9437   -7.6200    3.9685 H   0  0  0  0  0  0  0  0  0  0  0  0
    4.3904   -5.7032    4.2233 H   0  0  0  0  0  0  0  0  0  0  0  0
    4.2124   -6.9839    5.3470 H   0  0  0  0  0  0  0  0  0  0  0  0
    5.3553  -10.5840    2.5413 H   0  0  0  0  0  0  0  0  0  0  0  0
    5.4163   -9.6417    5.5503 H   0  0  0  0  0  0  0  0  0  0  0  0
    3.2655  -10.3361    6.6635 H   0  0  0  0  0  0  0  0  0  0  0  0
    2.9996   -8.7483    5.9708 H   0  0  0  0  0  0  0  0  0  0  0  0
    1.7874  -11.3716    5.2657 H   0  0  0  0  0  0  0  0  0  0  0  0
    1.1548   -9.7887    4.9618 H   0  0  0  0  0  0  0  0  0  0  0  0
    2.9966  -12.6053    3.6859 H   0  0  0  0  0  0  0  0  0  0  0  0
    3.9546  -11.7999    2.4829 H   0  0  0  0  0  0  0  0  0  0  0  0
    5.5621  -11.7527    4.1873 H   0  0  0  0  0  0  0  0  0  0  0  0
    4.3731  -12.0304    5.4370 H   0  0  0  0  0  0  0  0  0  0  0  0
    1.7191  -10.7979    2.8698 H   0  0  0  0  0  0  0  0  0  0  0  0
  1  2  1  0
  1 26  1  0
  2  7  2  0
  2  3  1  0
  3  4  2  0
  3 27  1  0
  4  5  1  0
  4 28  1  0
  5 17  1  0
  5  6  2  0
  6  7  1  0
  6  8  1  0
  7 29  1  0
  8 18  1  0
  8 23  1  0
  8  9  1  6
  9 10  1  0
  9 30  1  0
  9 31  1  0
 10 11  1  0
 10 32  1  0
 10 33  1  0
 11 12  1  0
 11 16  1  0
 12 13  1  0
 12 34  1  0
 12 35  1  0
 13 15  1  0
 13 14  1  0
 13 36  1  0
 14 15  1  0
 14 37  1  0
 14 38  1  0
 15 39  1  0
 15 40  1  0
 16 17  1  0
 16 18  1  0
 16 41  1  1
 17 42  1  0
 17 43  1  0
 18 19  1  6
 18 20  1  0
 19 44  1  0
 20 25  1  0
 20 21  1  0
 20 45  1  1
 21 22  1  0
 21 46  1  0
 21 47  1  0
 22 23  1  0
 22 48  1  0
 22 49  1  0
 23 24  1  0
 23 54  1  6
 24 25  1  0
 24 50  1  0
 24 51  1  0
 25 52  1  0
 25 53  1  0
M  CHG  1  23   1
M  END
>  <i_m_ct_stereo_status>  (304) 
1

>  <s_m_source_file>  (304) 
/var/tmp/pbs.5076255.sched01/tmppdndq9e4/92von5zo7h.sdf

>  <i_m_source_file_index>  (304) 
34

>  <i_lp_mmshare_version>  (304) 
48012

>  <i_f3d_flags>  (304) 
0

>  <s_epik_input>  (304) 
W09IXWMoW2NIXTEpW2NIXVtjSF1jKGMxW0NAQF0yMzQpW0NIMl1bQ0BIXShOKFtDSDJdW0NIMl0yKVtDSDJdW0NIXTVbQ0gyXVtDSDJdNSlbQ0BAXTMoW09IXSlbQ0hdNltDSDJdW0NIMl1ONFtDSDJdW0NIMl02

>  <s_epik_cmdline>  (304) 
J2VwaWtfcHl0aG9uJywgJy1waHQnLCAnMi4wJywgJy1waCcsICc3LjAnLCAnLXRuJywgJzgnLCAnLW1hJywgJzIwMCcsICctaW1hZScsICc8aW5maWxlLm1hZT4nLCAnLW9tYWUnLCAnPG91dGZpbGUubWFlPic=

>  <r_lp_tautomer_probability>  (304) 
1

>  <r_epik_Ionization_Penalty>  (304) 
0.480503

>  <r_epik_Ionization_Penalty_Charging>  (304) 
0.00562731

>  <r_epik_Ionization_Penalty_Neutral>  (304) 
0.474876

>  <r_epik_State_Penalty>  (304) 
1.8665

>  <r_epik_Charging_Adjusted_Penalty>  (304) 
1.87212

>  <i_epik_Tot_Q>  (304) 
1

>  <i_epik_Tot_abs_Q>  (304) 
1

>  <s_lp_Force_Field>  (304) 
OPLS3e

>  <r_lp_Energy>  (304) 
95.0859

>  <b_lp_Chiralities_Consistent>  (304) 
1

>  <s_lp_Variant>  (304) 
76:0-3

>  <s_i_glide_gridfile>  (304) 
pfpi4k_grid

>  <i_i_glide_lignum>  (304) 
34

>  <i_i_glide_rotatable_bonds>  (304) 
4

>  <r_i_docking_score>  (304) 
-3.27952

>  <r_i_glide_ligand_efficiency>  (304) 
-0.131181

>  <r_i_glide_ligand_efficiency_sa>  (304) 
-0.383574

>  <r_i_glide_ligand_efficiency_ln>  (304) 
-0.777343

>  <r_i_glide_gscore>  (304) 
-3.27952

>  <r_i_glide_lipo>  (304) 
-0.223446

>  <r_i_glide_hbond>  (304) 
-0.16

>  <r_i_glide_metal>  (304) 
-0

>  <r_i_glide_rewards>  (304) 
-1.08091

>  <r_i_glide_evdw>  (304) 
-18.4422

>  <r_i_glide_ecoul>  (304) 
-8.12069

>  <r_i_glide_erotb>  (304) 
0.325049

>  <r_i_glide_esite>  (304) 
0

>  <r_i_glide_emodel>  (304) 
-34.8676

>  <r_i_glide_energy>  (304) 
-26.5629

>  <r_i_glide_einternal>  (304) 
0.585295

>  <r_i_glide_intrahb_reward>  (304) 
-0

>  <i_i_glide_confnum>  (304) 
4

>  <i_i_glide_posenum>  (304) 
27

>  <r_i_glide_eff_state_penalty>  (304) 
0

>  <ligand_id>  (304) 
76

>  <original_smiles>  (304) 
Oc1ccc2c(c1)C13CCN(CC4CC4)C(C2)C1(O)C1CCN3CC1

>  <smiles>  (304) 
[H]Oc1c([H])c([H])c2c(c1[H])C13C([H])([H])C([H])([H])N(C([H])([H])C4([H])C([H])([H])C4([H])[H])C([H])(C2([H])[H])C1(O[H])C1([H])C([H])([H])C([H])([H])[N+]3([H])C([H])([H])C1([H])[H]

$$$$
76:2:2
     RDKit          3D

 54 59  0  0  1  0  0  0  0  0999 V2000
   -1.8330   -9.0343    2.3451 O   0  0  0  0  0  0  0  0  0  0  0  0
   -0.6672   -8.6610    2.9154 C   0  0  0  0  0  0  0  0  0  0  0  0
   -0.6369   -7.5171    3.7406 C   0  0  0  0  0  0  0  0  0  0  0  0
    0.5715   -7.0979    4.3053 C   0  0  0  0  0  0  0  0  0  0  0  0
    1.7480   -7.8181    4.0437 C   0  0  0  0  0  0  0  0  0  0  0  0
    1.7335   -8.9935    3.2548 C   0  0  0  0  0  0  0  0  0  0  0  0
    0.5069   -9.4003    2.6817 C   0  0  0  0  0  0  0  0  0  0  0  0
    3.0264   -9.8177    2.9687 C   0  0  1  0  0  0  0  0  0  0  0  0
    3.3815   -9.4650    1.5047 C   0  0  0  0  0  0  0  0  0  0  0  0
    3.6464   -7.9313    1.3721 C   0  0  0  0  0  0  0  0  0  0  0  0
    4.4763   -7.3236    2.4555 N   0  0  0  0  0  0  0  0  0  0  0  0
    4.7672   -5.9038    2.3144 C   0  0  0  0  0  0  0  0  0  0  0  0
    5.9783   -5.6736    1.4426 C   0  0  0  0  0  0  0  0  0  0  0  0
    7.3357   -5.4946    2.0890 C   0  0  0  0  0  0  0  0  0  0  0  0
    6.6747   -4.3366    1.3864 C   0  0  0  0  0  0  0  0  0  0  0  0
    4.2709   -7.8218    3.8453 C   0  0  1  0  0  0  0  0  0  0  0  0
    3.0509   -7.2952    4.6028 C   0  0  0  0  0  0  0  0  0  0  0  0
    4.2804   -9.3535    3.8074 C   0  0  2  0  0  0  0  0  0  0  0  0
    5.5716   -9.5543    3.2093 O   0  0  0  0  0  0  0  0  0  0  0  0
    4.3624  -10.2456    5.0990 C   0  0  1  0  0  0  0  0  0  0  0  0
    2.9562  -10.5848    5.6809 C   0  0  0  0  0  0  0  0  0  0  0  0
    2.1411  -11.4046    4.6388 C   0  0  0  0  0  0  0  0  0  0  0  0
    2.7938  -11.2721    3.2919 N   0  0  2  0  0  0  0  0  0  0  0  0
    4.0572  -12.0785    3.3847 C   0  0  0  0  0  0  0  0  0  0  0  0
    4.8760  -11.6475    4.6391 C   0  0  0  0  0  0  0  0  0  0  0  0
   -1.7425   -9.8421    1.8530 H   0  0  0  0  0  0  0  0  0  0  0  0
   -1.5435   -6.9687    3.9278 H   0  0  0  0  0  0  0  0  0  0  0  0
    0.6126   -6.2087    4.9240 H   0  0  0  0  0  0  0  0  0  0  0  0
    0.4722  -10.2805    2.0514 H   0  0  0  0  0  0  0  0  0  0  0  0
    4.2746   -9.9934    1.1729 H   0  0  0  0  0  0  0  0  0  0  0  0
    2.5809   -9.7743    0.8297 H   0  0  0  0  0  0  0  0  0  0  0  0
    4.1449   -7.8105    0.4088 H   0  0  0  0  0  0  0  0  0  0  0  0
    2.7062   -7.3840    1.2830 H   0  0  0  0  0  0  0  0  0  0  0  0
    3.9051   -5.4056    1.8830 H   0  0  0  0  0  0  0  0  0  0  0  0
    4.9549   -5.4338    3.2805 H   0  0  0  0  0  0  0  0  0  0  0  0
    5.9514   -6.2308    0.5096 H   0  0  0  0  0  0  0  0  0  0  0  0
    7.3793   -5.4815    3.1788 H   0  0  0  0  0  0  0  0  0  0  0  0
    8.1859   -5.9656    1.5965 H   0  0  0  0  0  0  0  0  0  0  0  0
    7.0948   -4.0456    0.4241 H   0  0  0  0  0  0  0  0  0  0  0  0
    6.2589   -3.5302    1.9904 H   0  0  0  0  0  0  0  0  0  0  0  0
    5.1271   -7.5140    4.4442 H   0  0  0  0  0  0  0  0  0  0  0  0
    3.0569   -6.2075    4.6326 H   0  0  0  0  0  0  0  0  0  0  0  0
    3.1308   -7.6005    5.6441 H   0  0  0  0  0  0  0  0  0  0  0  0
    5.6324  -10.4420    2.8891 H   0  0  0  0  0  0  0  0  0  0  0  0
    5.0247   -9.8172    5.8592 H   0  0  0  0  0  0  0  0  0  0  0  0
    3.0483  -11.1860    6.5905 H   0  0  0  0  0  0  0  0  0  0  0  0
    2.4150   -9.6843    5.9640 H   0  0  0  0  0  0  0  0  0  0  0  0
    2.1227  -12.4543    4.9305 H   0  0  0  0  0  0  0  0  0  0  0  0
    1.0960  -11.0955    4.6406 H   0  0  0  0  0  0  0  0  0  0  0  0
    3.8045  -13.1316    3.4725 H   0  0  0  0  0  0  0  0  0  0  0  0
    4.6523  -11.9835    2.4775 H   0  0  0  0  0  0  0  0  0  0  0  0
    5.9439  -11.6596    4.4079 H   0  0  0  0  0  0  0  0  0  0  0  0
    4.7399  -12.3742    5.4476 H   0  0  0  0  0  0  0  0  0  0  0  0
    2.1976  -11.6971    2.5945 H   0  0  0  0  0  0  0  0  0  0  0  0
  1  2  1  0
  1 26  1  0
  2  7  2  0
  2  3  1  0
  3  4  2  0
  3 27  1  0
  4  5  1  0
  4 28  1  0
  5 17  1  0
  5  6  2  0
  6  7  1  0
  6  8  1  0
  7 29  1  0
  8 18  1  0
  8 23  1  0
  8  9  1  6
  9 10  1  0
  9 30  1  0
  9 31  1  0
 10 11  1  0
 10 32  1  0
 10 33  1  0
 11 12  1  0
 11 16  1  0
 12 13  1  0
 12 34  1  0
 12 35  1  0
 13 15  1  0
 13 14  1  0
 13 36  1  0
 14 15  1  0
 14 37  1  0
 14 38  1  0
 15 39  1  0
 15 40  1  0
 16 17  1  0
 16 18  1  0
 16 41  1  1
 17 42  1  0
 17 43  1  0
 18 19  1  6
 18 20  1  0
 19 44  1  0
 20 25  1  0
 20 21  1  0
 20 45  1  1
 21 22  1  0
 21 46  1  0
 21 47  1  0
 22 23  1  0
 22 48  1  0
 22 49  1  0
 23 24  1  0
 23 54  1  6
 24 25  1  0
 24 50  1  0
 24 51  1  0
 25 52  1  0
 25 53  1  0
M  CHG  1  23   1
M  END
>  <i_m_ct_stereo_status>  (305) 
1

>  <s_m_source_file>  (305) 
/var/tmp/pbs.5076255.sched01/tmppdndq9e4/92von5zo7h.sdf

>  <i_m_source_file_index>  (305) 
34

>  <i_lp_mmshare_version>  (305) 
48012

>  <i_f3d_flags>  (305) 
0

>  <s_epik_input>  (305) 
W09IXWMoW2NIXTEpW2NIXVtjSF1jKGMxW0NAQF0yMzQpW0NIMl1bQ0BIXShOKFtDSDJdW0NIMl0yKVtDSDJdW0NIXTVbQ0gyXVtDSDJdNSlbQ0BAXTMoW09IXSlbQ0hdNltDSDJdW0NIMl1ONFtDSDJdW0NIMl02

>  <s_epik_cmdline>  (305) 
J2VwaWtfcHl0aG9uJywgJy1waHQnLCAnMi4wJywgJy1waCcsICc3LjAnLCAnLXRuJywgJzgnLCAnLW1hJywgJzIwMCcsICctaW1hZScsICc8aW5maWxlLm1hZT4nLCAnLW9tYWUnLCAnPG91dGZpbGUubWFlPic=

>  <r_lp_tautomer_probability>  (305) 
1

>  <r_epik_Ionization_Penalty>  (305) 
0.480503

>  <r_epik_Ionization_Penalty_Charging>  (305) 
0.00562731

>  <r_epik_Ionization_Penalty_Neutral>  (305) 
0.474876

>  <r_epik_State_Penalty>  (305) 
1.8665

>  <r_epik_Charging_Adjusted_Penalty>  (305) 
1.87212

>  <i_epik_Tot_Q>  (305) 
1

>  <i_epik_Tot_abs_Q>  (305) 
1

>  <s_lp_Force_Field>  (305) 
OPLS3e

>  <r_lp_Energy>  (305) 
95.0859

>  <b_lp_Chiralities_Consistent>  (305) 
1

>  <s_lp_Variant>  (305) 
76:0-3

>  <s_i_glide_gridfile>  (305) 
pfpi4k_grid

>  <i_i_glide_lignum>  (305) 
34

>  <i_i_glide_rotatable_bonds>  (305) 
4

>  <r_i_docking_score>  (305) 
-2.89118

>  <r_i_glide_ligand_efficiency>  (305) 
-0.115647

>  <r_i_glide_ligand_efficiency_sa>  (305) 
-0.338155

>  <r_i_glide_ligand_efficiency_ln>  (305) 
-0.685297

>  <r_i_glide_gscore>  (305) 
-2.89118

>  <r_i_glide_lipo>  (305) 
-0.229423

>  <r_i_glide_hbond>  (305) 
0

>  <r_i_glide_metal>  (305) 
-0

>  <r_i_glide_rewards>  (305) 
-1.08091

>  <r_i_glide_evdw>  (305) 
-21.8824

>  <r_i_glide_ecoul>  (305) 
-5.32661

>  <r_i_glide_erotb>  (305) 
0.325049

>  <r_i_glide_esite>  (305) 
-0.0127913

>  <r_i_glide_emodel>  (305) 
-34.0168

>  <r_i_glide_energy>  (305) 
-27.209

>  <r_i_glide_einternal>  (305) 
1.64131

>  <r_i_glide_intrahb_reward>  (305) 
-0

>  <i_i_glide_confnum>  (305) 
1

>  <i_i_glide_posenum>  (305) 
20

>  <r_i_glide_eff_state_penalty>  (305) 
0

>  <ligand_id>  (305) 
76

>  <original_smiles>  (305) 
Oc1ccc2c(c1)C13CCN(CC4CC4)C(C2)C1(O)C1CCN3CC1

>  <smiles>  (305) 
[H]Oc1c([H])c([H])c2c(c1[H])C13C([H])([H])C([H])([H])N(C([H])([H])C4([H])C([H])([H])C4([H])[H])C([H])(C2([H])[H])C1(O[H])C1([H])C([H])([H])C([H])([H])[N+]3([H])C([H])([H])C1([H])[H]

$$$$
77:0:0
     RDKit          3D

 33 35  0  0  1  0  0  0  0  0999 V2000
    3.6538   -1.2918   -3.7268 C   0  0  0  0  0  0  0  0  0  0  0  0
    4.1146   -2.6485   -3.1649 C   0  0  0  0  0  0  0  0  0  0  0  0
    4.0237   -2.6945   -1.6936 N   0  0  0  0  0  0  0  0  0  0  0  0
    2.8982   -3.4616   -1.1355 C   0  0  0  0  0  0  0  0  0  0  0  0
    3.3815   -4.6749   -0.3187 C   0  0  0  0  0  0  0  0  0  0  0  0
    3.7578   -4.2999    1.0399 N   0  0  0  0  0  0  0  0  0  0  0  0
    2.9263   -4.5622    2.1609 C   0  0  0  0  0  0  0  0  0  0  0  0
    3.1169   -3.9954    3.4668 C   0  0  0  0  0  0  0  0  0  0  0  0
    2.2573   -4.3822    4.3815 N   0  0  0  0  0  0  0  0  0  0  0  0
    1.2449   -5.4654    3.6168 S   0  0  0  0  0  0  0  0  0  0  0  0
    1.8985   -5.3817    2.0769 N   0  0  0  0  0  0  0  0  0  0  0  0
    4.9777   -3.5071    1.1549 C   0  0  0  0  0  0  0  0  0  0  0  0
    4.8242   -2.1081    0.5748 C   0  0  0  0  0  0  0  0  0  0  0  0
    3.9988   -1.0429    1.2635 C   0  0  0  0  0  0  0  0  0  0  0  0
    5.4978   -0.9557    1.3142 C   0  0  0  0  0  0  0  0  0  0  0  0
    4.9615   -2.0659   -0.9300 C   0  0  0  0  0  0  0  0  0  0  0  0
    5.9138   -1.4746   -1.4402 O   0  0  0  0  0  0  0  0  0  0  0  0
    3.7404   -1.2662   -4.8133 H   0  0  0  0  0  0  0  0  0  0  0  0
    4.2472   -0.4690   -3.3317 H   0  0  0  0  0  0  0  0  0  0  0  0
    2.6133   -1.0961   -3.4685 H   0  0  0  0  0  0  0  0  0  0  0  0
    3.5373   -3.4461   -3.6330 H   0  0  0  0  0  0  0  0  0  0  0  0
    5.1446   -2.8452   -3.4728 H   0  0  0  0  0  0  0  0  0  0  0  0
    2.2309   -2.8200   -0.5576 H   0  0  0  0  0  0  0  0  0  0  0  0
    2.2738   -3.8432   -1.9461 H   0  0  0  0  0  0  0  0  0  0  0  0
    2.5970   -5.4316   -0.3042 H   0  0  0  0  0  0  0  0  0  0  0  0
    4.2320   -5.1525   -0.8049 H   0  0  0  0  0  0  0  0  0  0  0  0
    3.8775   -3.2856    3.7626 H   0  0  0  0  0  0  0  0  0  0  0  0
    5.3237   -3.4465    2.1831 H   0  0  0  0  0  0  0  0  0  0  0  0
    5.7756   -4.0223    0.6157 H   0  0  0  0  0  0  0  0  0  0  0  0
    3.4720   -0.3216    0.6412 H   0  0  0  0  0  0  0  0  0  0  0  0
    3.4754   -1.3509    2.1670 H   0  0  0  0  0  0  0  0  0  0  0  0
    5.9951   -1.1877    2.2561 H   0  0  0  0  0  0  0  0  0  0  0  0
    5.9585   -0.1461    0.7474 H   0  0  0  0  0  0  0  0  0  0  0  0
  1  2  1  0
  1 18  1  0
  1 19  1  0
  1 20  1  0
  2  3  1  0
  2 21  1  0
  2 22  1  0
  3 16  1  0
  3  4  1  0
  4  5  1  0
  4 23  1  0
  4 24  1  0
  5  6  1  0
  5 25  1  0
  5 26  1  0
  6  7  1  0
  6 12  1  0
  7 11  2  0
  7  8  1  0
  8  9  2  0
  8 27  1  0
  9 10  1  0
 10 11  1  0
 12 13  1  0
 12 28  1  0
 12 29  1  0
 13 15  1  0
 13 14  1  0
 13 16  1  0
 14 15  1  0
 14 30  1  0
 14 31  1  0
 15 32  1  0
 15 33  1  0
 16 17  2  0
M  END
>  <i_m_ct_stereo_status>  (306) 
1

>  <s_m_source_file>  (306) 
/var/tmp/pbs.5076255.sched01/tmppdndq9e4/92von5zo7h.sdf

>  <i_m_source_file_index>  (306) 
35

>  <i_lp_mmshare_version>  (306) 
48012

>  <i_f3d_flags>  (306) 
0

>  <s_epik_input>  (306) 
W0NIM11bQ0gyXU4oQzE9TylbQ0gyXVtDSDJdTihjMltjSF1uc24yKVtDSDJdQzEzW0NIMl1bQ0gyXTM=

>  <s_epik_cmdline>  (306) 
J2VwaWtfcHl0aG9uJywgJy1waHQnLCAnMi4wJywgJy1waCcsICc3LjAnLCAnLXRuJywgJzgnLCAnLW1hJywgJzIwMCcsICctaW1hZScsICc8aW5maWxlLm1hZT4nLCAnLW9tYWUnLCAnPG91dGZpbGUubWFlPic=

>  <r_lp_tautomer_probability>  (306) 
1

>  <r_epik_Ionization_Penalty>  (306) 
2.56939e-07

>  <r_epik_Ionization_Penalty_Charging>  (306) 
0

>  <r_epik_Ionization_Penalty_Neutral>  (306) 
2.56939e-07

>  <r_epik_State_Penalty>  (306) 
-0

>  <r_epik_Charging_Adjusted_Penalty>  (306) 
0

>  <i_epik_Tot_Q>  (306) 
0

>  <i_epik_Tot_abs_Q>  (306) 
0

>  <s_lp_Force_Field>  (306) 
OPLS3e

>  <r_lp_Energy>  (306) 
11.4839

>  <b_lp_Chiralities_Consistent>  (306) 
1

>  <s_lp_Variant>  (306) 
77:0-1

>  <s_i_glide_gridfile>  (306) 
pfpi4k_grid

>  <i_i_glide_lignum>  (306) 
35

>  <i_i_glide_rotatable_bonds>  (306) 
2

>  <r_i_docking_score>  (306) 
-3.62549

>  <r_i_glide_ligand_efficiency>  (306) 
-0.213264

>  <r_i_glide_ligand_efficiency_sa>  (306) 
-0.548362

>  <r_i_glide_ligand_efficiency_ln>  (306) 
-0.945809

>  <r_i_glide_gscore>  (306) 
-3.62549

>  <r_i_glide_lipo>  (306) 
-0.55727

>  <r_i_glide_hbond>  (306) 
-0.100682

>  <r_i_glide_metal>  (306) 
-0

>  <r_i_glide_rewards>  (306) 
-1.6999

>  <r_i_glide_evdw>  (306) 
-19.7202

>  <r_i_glide_ecoul>  (306) 
-3.41898

>  <r_i_glide_erotb>  (306) 
0.275567

>  <r_i_glide_esite>  (306) 
-0.0443376

>  <r_i_glide_emodel>  (306) 
-28.5884

>  <r_i_glide_energy>  (306) 
-23.1392

>  <r_i_glide_einternal>  (306) 
0.254733

>  <r_i_glide_intrahb_reward>  (306) 
-0

>  <i_i_glide_confnum>  (306) 
1

>  <i_i_glide_posenum>  (306) 
13

>  <r_i_glide_eff_state_penalty>  (306) 
0

>  <ligand_id>  (306) 
77

>  <original_smiles>  (306) 
CCN1CCN(c2cnsn2)CC2(CC2)C1=O

>  <smiles>  (306) 
[H]c1nsnc1N1C([H])([H])C([H])([H])N(C([H])([H])C([H])([H])[H])C(=O)C2(C1([H])[H])C([H])([H])C2([H])[H]

$$$$
77:0:1
     RDKit          3D

 33 35  0  0  1  0  0  0  0  0999 V2000
    4.2362   -3.2013   -3.6751 C   0  0  0  0  0  0  0  0  0  0  0  0
    3.3400   -2.3119   -2.7973 C   0  0  0  0  0  0  0  0  0  0  0  0
    3.6964   -2.4354   -1.3755 N   0  0  0  0  0  0  0  0  0  0  0  0
    2.8426   -3.3127   -0.5642 C   0  0  0  0  0  0  0  0  0  0  0  0
    3.6166   -4.5063    0.0207 C   0  0  0  0  0  0  0  0  0  0  0  0
    4.3584   -4.1397    1.2203 N   0  0  0  0  0  0  0  0  0  0  0  0
    3.9029   -4.4418    2.5362 C   0  0  0  0  0  0  0  0  0  0  0  0
    2.7528   -5.2495    2.8394 C   0  0  0  0  0  0  0  0  0  0  0  0
    2.5167   -5.4319    4.1193 N   0  0  0  0  0  0  0  0  0  0  0  0
    3.7165   -4.5922    4.9245 S   0  0  0  0  0  0  0  0  0  0  0  0
    4.5273   -3.9835    3.5968 N   0  0  0  0  0  0  0  0  0  0  0  0
    5.5029   -3.2593    1.0083 C   0  0  0  0  0  0  0  0  0  0  0  0
    5.0869   -1.8571    0.5836 C   0  0  0  0  0  0  0  0  0  0  0  0
    4.4312   -0.8825    1.5422 C   0  0  0  0  0  0  0  0  0  0  0  0
    5.8704   -0.6819    1.1558 C   0  0  0  0  0  0  0  0  0  0  0  0
    4.7631   -1.7488   -0.8835 C   0  0  0  0  0  0  0  0  0  0  0  0
    5.4683   -1.0597   -1.6172 O   0  0  0  0  0  0  0  0  0  0  0  0
    3.9649   -3.0900   -4.7221 H   0  0  0  0  0  0  0  0  0  0  0  0
    4.1345   -4.2559   -3.4212 H   0  0  0  0  0  0  0  0  0  0  0  0
    5.2878   -2.9381   -3.5691 H   0  0  0  0  0  0  0  0  0  0  0  0
    3.4227   -1.2714   -3.1280 H   0  0  0  0  0  0  0  0  0  0  0  0
    2.2918   -2.5610   -2.9733 H   0  0  0  0  0  0  0  0  0  0  0  0
    2.3289   -2.7343    0.2030 H   0  0  0  0  0  0  0  0  0  0  0  0
    2.0513   -3.7281   -1.1877 H   0  0  0  0  0  0  0  0  0  0  0  0
    2.9256   -5.3216    0.2234 H   0  0  0  0  0  0  0  0  0  0  0  0
    4.3035   -4.9014   -0.7269 H   0  0  0  0  0  0  0  0  0  0  0  0
    2.0960   -5.7358    2.1335 H   0  0  0  0  0  0  0  0  0  0  0  0
    6.1328   -3.1968    1.8937 H   0  0  0  0  0  0  0  0  0  0  0  0
    6.1391   -3.6880    0.2323 H   0  0  0  0  0  0  0  0  0  0  0  0
    3.7043   -0.1785    1.1396 H   0  0  0  0  0  0  0  0  0  0  0  0
    4.2236   -1.2559    2.5422 H   0  0  0  0  0  0  0  0  0  0  0  0
    6.6320   -0.9026    1.9009 H   0  0  0  0  0  0  0  0  0  0  0  0
    6.0909    0.1715    0.5164 H   0  0  0  0  0  0  0  0  0  0  0  0
  1  2  1  0
  1 18  1  0
  1 19  1  0
  1 20  1  0
  2  3  1  0
  2 21  1  0
  2 22  1  0
  3 16  1  0
  3  4  1  0
  4  5  1  0
  4 23  1  0
  4 24  1  0
  5  6  1  0
  5 25  1  0
  5 26  1  0
  6  7  1  0
  6 12  1  0
  7 11  2  0
  7  8  1  0
  8  9  2  0
  8 27  1  0
  9 10  1  0
 10 11  1  0
 12 13  1  0
 12 28  1  0
 12 29  1  0
 13 15  1  0
 13 14  1  0
 13 16  1  0
 14 15  1  0
 14 30  1  0
 14 31  1  0
 15 32  1  0
 15 33  1  0
 16 17  2  0
M  END
>  <i_m_ct_stereo_status>  (307) 
1

>  <s_m_source_file>  (307) 
/var/tmp/pbs.5076255.sched01/tmppdndq9e4/92von5zo7h.sdf

>  <i_m_source_file_index>  (307) 
35

>  <i_lp_mmshare_version>  (307) 
48012

>  <i_f3d_flags>  (307) 
0

>  <s_epik_input>  (307) 
W0NIM11bQ0gyXU4oQzE9TylbQ0gyXVtDSDJdTihjMltjSF1uc24yKVtDSDJdQzEzW0NIMl1bQ0gyXTM=

>  <s_epik_cmdline>  (307) 
J2VwaWtfcHl0aG9uJywgJy1waHQnLCAnMi4wJywgJy1waCcsICc3LjAnLCAnLXRuJywgJzgnLCAnLW1hJywgJzIwMCcsICctaW1hZScsICc8aW5maWxlLm1hZT4nLCAnLW9tYWUnLCAnPG91dGZpbGUubWFlPic=

>  <r_lp_tautomer_probability>  (307) 
1

>  <r_epik_Ionization_Penalty>  (307) 
2.56939e-07

>  <r_epik_Ionization_Penalty_Charging>  (307) 
0

>  <r_epik_Ionization_Penalty_Neutral>  (307) 
2.56939e-07

>  <r_epik_State_Penalty>  (307) 
-0

>  <r_epik_Charging_Adjusted_Penalty>  (307) 
0

>  <i_epik_Tot_Q>  (307) 
0

>  <i_epik_Tot_abs_Q>  (307) 
0

>  <s_lp_Force_Field>  (307) 
OPLS3e

>  <r_lp_Energy>  (307) 
11.4839

>  <b_lp_Chiralities_Consistent>  (307) 
1

>  <s_lp_Variant>  (307) 
77:0-1

>  <s_i_glide_gridfile>  (307) 
pfpi4k_grid

>  <i_i_glide_lignum>  (307) 
35

>  <i_i_glide_rotatable_bonds>  (307) 
2

>  <r_i_docking_score>  (307) 
-3.21551

>  <r_i_glide_ligand_efficiency>  (307) 
-0.189147

>  <r_i_glide_ligand_efficiency_sa>  (307) 
-0.486351

>  <r_i_glide_ligand_efficiency_ln>  (307) 
-0.838854

>  <r_i_glide_gscore>  (307) 
-3.21551

>  <r_i_glide_lipo>  (307) 
-0.45289

>  <r_i_glide_hbond>  (307) 
-0.0167239

>  <r_i_glide_metal>  (307) 
-0

>  <r_i_glide_rewards>  (307) 
-1.71823

>  <r_i_glide_evdw>  (307) 
-19.1005

>  <r_i_glide_ecoul>  (307) 
-1.85248

>  <r_i_glide_erotb>  (307) 
0.275567

>  <r_i_glide_esite>  (307) 
-0.0703344

>  <r_i_glide_emodel>  (307) 
-25.849

>  <r_i_glide_energy>  (307) 
-20.953

>  <r_i_glide_einternal>  (307) 
0.0545073

>  <r_i_glide_intrahb_reward>  (307) 
-0

>  <i_i_glide_confnum>  (307) 
1

>  <i_i_glide_posenum>  (307) 
12

>  <r_i_glide_eff_state_penalty>  (307) 
0

>  <ligand_id>  (307) 
77

>  <original_smiles>  (307) 
CCN1CCN(c2cnsn2)CC2(CC2)C1=O

>  <smiles>  (307) 
[H]c1nsnc1N1C([H])([H])C([H])([H])N(C([H])([H])C([H])([H])[H])C(=O)C2(C1([H])[H])C([H])([H])C2([H])[H]

$$$$
77:0:2
     RDKit          3D

 33 35  0  0  1  0  0  0  0  0999 V2000
    5.0098   -3.8303   -3.6465 C   0  0  0  0  0  0  0  0  0  0  0  0
    3.8381   -2.9320   -3.2126 C   0  0  0  0  0  0  0  0  0  0  0  0
    3.7407   -2.8410   -1.7449 N   0  0  0  0  0  0  0  0  0  0  0  0
    2.6951   -3.6634   -1.1110 C   0  0  0  0  0  0  0  0  0  0  0  0
    3.2758   -4.7252   -0.1629 C   0  0  0  0  0  0  0  0  0  0  0  0
    3.6008   -4.1652    1.1442 N   0  0  0  0  0  0  0  0  0  0  0  0
    2.7623   -4.3281    2.2805 C   0  0  0  0  0  0  0  0  0  0  0  0
    1.8146   -5.3967    2.4466 C   0  0  0  0  0  0  0  0  0  0  0  0
    1.1297   -5.3748    3.5682 N   0  0  0  0  0  0  0  0  0  0  0  0
    1.6917   -4.0470    4.4134 S   0  0  0  0  0  0  0  0  0  0  0  0
    2.8072   -3.4925    3.2960 N   0  0  0  0  0  0  0  0  0  0  0  0
    4.7225   -3.2341    1.1681 C   0  0  0  0  0  0  0  0  0  0  0  0
    4.4324   -1.9245    0.4427 C   0  0  0  0  0  0  0  0  0  0  0  0
    3.4902   -0.8809    1.0050 C   0  0  0  0  0  0  0  0  0  0  0  0
    4.9724   -0.6408    1.0559 C   0  0  0  0  0  0  0  0  0  0  0  0
    4.5781   -2.0186   -1.0543 C   0  0  0  0  0  0  0  0  0  0  0  0
    5.4539   -1.3634   -1.6297 O   0  0  0  0  0  0  0  0  0  0  0  0
    5.0722   -3.8868   -4.7305 H   0  0  0  0  0  0  0  0  0  0  0  0
    4.8903   -4.8450   -3.2751 H   0  0  0  0  0  0  0  0  0  0  0  0
    5.9616   -3.4534   -3.2792 H   0  0  0  0  0  0  0  0  0  0  0  0
    3.9607   -1.9351   -3.6503 H   0  0  0  0  0  0  0  0  0  0  0  0
    2.9139   -3.3061   -3.6552 H   0  0  0  0  0  0  0  0  0  0  0  0
    1.9534   -3.0442   -0.6130 H   0  0  0  0  0  0  0  0  0  0  0  0
    2.1279   -4.1974   -1.8722 H   0  0  0  0  0  0  0  0  0  0  0  0
    2.5640   -5.5419   -0.0659 H   0  0  0  0  0  0  0  0  0  0  0  0
    4.1676   -5.1713   -0.6024 H   0  0  0  0  0  0  0  0  0  0  0  0
    1.6286   -6.2051    1.7531 H   0  0  0  0  0  0  0  0  0  0  0  0
    5.0307   -3.0280    2.1921 H   0  0  0  0  0  0  0  0  0  0  0  0
    5.5843   -3.7133    0.6970 H   0  0  0  0  0  0  0  0  0  0  0  0
    2.9080   -0.2898    0.3006 H   0  0  0  0  0  0  0  0  0  0  0  0
    2.9859   -1.1294    1.9359 H   0  0  0  0  0  0  0  0  0  0  0  0
    5.4753   -0.7204    2.0180 H   0  0  0  0  0  0  0  0  0  0  0  0
    5.3606    0.1415    0.4040 H   0  0  0  0  0  0  0  0  0  0  0  0
  1  2  1  0
  1 18  1  0
  1 19  1  0
  1 20  1  0
  2  3  1  0
  2 21  1  0
  2 22  1  0
  3 16  1  0
  3  4  1  0
  4  5  1  0
  4 23  1  0
  4 24  1  0
  5  6  1  0
  5 25  1  0
  5 26  1  0
  6  7  1  0
  6 12  1  0
  7 11  2  0
  7  8  1  0
  8  9  2  0
  8 27  1  0
  9 10  1  0
 10 11  1  0
 12 13  1  0
 12 28  1  0
 12 29  1  0
 13 15  1  0
 13 14  1  0
 13 16  1  0
 14 15  1  0
 14 30  1  0
 14 31  1  0
 15 32  1  0
 15 33  1  0
 16 17  2  0
M  END
>  <i_m_ct_stereo_status>  (308) 
1

>  <s_m_source_file>  (308) 
/var/tmp/pbs.5076255.sched01/tmppdndq9e4/92von5zo7h.sdf

>  <i_m_source_file_index>  (308) 
35

>  <i_lp_mmshare_version>  (308) 
48012

>  <i_f3d_flags>  (308) 
0

>  <s_epik_input>  (308) 
W0NIM11bQ0gyXU4oQzE9TylbQ0gyXVtDSDJdTihjMltjSF1uc24yKVtDSDJdQzEzW0NIMl1bQ0gyXTM=

>  <s_epik_cmdline>  (308) 
J2VwaWtfcHl0aG9uJywgJy1waHQnLCAnMi4wJywgJy1waCcsICc3LjAnLCAnLXRuJywgJzgnLCAnLW1hJywgJzIwMCcsICctaW1hZScsICc8aW5maWxlLm1hZT4nLCAnLW9tYWUnLCAnPG91dGZpbGUubWFlPic=

>  <r_lp_tautomer_probability>  (308) 
1

>  <r_epik_Ionization_Penalty>  (308) 
2.56939e-07

>  <r_epik_Ionization_Penalty_Charging>  (308) 
0

>  <r_epik_Ionization_Penalty_Neutral>  (308) 
2.56939e-07

>  <r_epik_State_Penalty>  (308) 
-0

>  <r_epik_Charging_Adjusted_Penalty>  (308) 
0

>  <i_epik_Tot_Q>  (308) 
0

>  <i_epik_Tot_abs_Q>  (308) 
0

>  <s_lp_Force_Field>  (308) 
OPLS3e

>  <r_lp_Energy>  (308) 
11.4839

>  <b_lp_Chiralities_Consistent>  (308) 
1

>  <s_lp_Variant>  (308) 
77:0-1

>  <s_i_glide_gridfile>  (308) 
pfpi4k_grid

>  <i_i_glide_lignum>  (308) 
35

>  <i_i_glide_rotatable_bonds>  (308) 
2

>  <r_i_docking_score>  (308) 
-3.14843

>  <r_i_glide_ligand_efficiency>  (308) 
-0.185202

>  <r_i_glide_ligand_efficiency_sa>  (308) 
-0.476206

>  <r_i_glide_ligand_efficiency_ln>  (308) 
-0.821355

>  <r_i_glide_gscore>  (308) 
-3.14843

>  <r_i_glide_lipo>  (308) 
-0.359932

>  <r_i_glide_hbond>  (308) 
-0.00445554

>  <r_i_glide_metal>  (308) 
-0

>  <r_i_glide_rewards>  (308) 
-1.6943

>  <r_i_glide_evdw>  (308) 
-20.5654

>  <r_i_glide_ecoul>  (308) 
-1.93143

>  <r_i_glide_erotb>  (308) 
0.275567

>  <r_i_glide_esite>  (308) 
-0.0473247

>  <r_i_glide_emodel>  (308) 
-27.0172

>  <r_i_glide_energy>  (308) 
-22.4968

>  <r_i_glide_einternal>  (308) 
0.610452

>  <r_i_glide_intrahb_reward>  (308) 
-0

>  <i_i_glide_confnum>  (308) 
1

>  <i_i_glide_posenum>  (308) 
1

>  <r_i_glide_eff_state_penalty>  (308) 
0

>  <ligand_id>  (308) 
77

>  <original_smiles>  (308) 
CCN1CCN(c2cnsn2)CC2(CC2)C1=O

>  <smiles>  (308) 
[H]c1nsnc1N1C([H])([H])C([H])([H])N(C([H])([H])C([H])([H])[H])C(=O)C2(C1([H])[H])C([H])([H])C2([H])[H]

$$$$
78:0:0
     RDKit          3D

 65 69  0  0  1  0  0  0  0  0999 V2000
    1.6460   -3.9884    6.9268 C   0  0  0  0  0  0  0  0  0  0  0  0
    1.9366   -3.9654    5.4097 C   0  0  2  0  0  0  0  0  0  0  0  0
    2.4147   -5.3555    4.8977 C   0  0  1  0  0  0  0  0  0  0  0  0
    1.3587   -5.9489    4.1458 O   0  0  0  0  0  0  0  0  0  0  0  0
    1.4862   -7.3655    3.9392 C   0  0  0  0  0  0  0  0  0  0  0  0
    0.2207   -7.8639    3.2916 C   0  0  0  0  0  0  0  0  0  0  0  0
   -0.8242   -7.0455    3.0080 N   0  0  0  0  0  0  0  0  0  0  0  0
   -1.7876   -7.8666    2.4895 N   0  0  0  0  0  0  0  0  0  0  0  0
   -1.2162   -9.0901    2.4890 C   0  0  0  0  0  0  0  0  0  0  0  0
    0.0119   -9.1403    2.9704 N   0  0  0  0  0  0  0  0  0  0  0  0
    0.8693  -10.3027    3.1086 C   0  0  0  0  0  0  0  0  0  0  0  0
    3.6496   -5.0876    4.0293 C   0  0  0  0  0  0  0  0  0  0  0  0
    3.5730   -3.6031    3.6555 C   0  0  1  0  0  0  0  0  0  0  0  0
    2.7049   -3.4566    2.3900 C   0  0  0  0  0  0  0  0  0  0  0  0
    2.3879   -1.9963    2.0842 C   0  0  0  0  0  0  0  0  0  0  0  0
    1.5996   -1.3946    3.2492 C   0  0  2  0  0  0  0  0  0  0  0  0
    1.0941    0.0281    2.9166 C   0  0  2  0  0  0  0  0  0  0  0  0
    2.1657    1.0305    2.4346 C   0  0  0  0  0  0  0  0  0  0  0  0
    1.6052    2.4254    2.7569 C   0  0  0  0  0  0  0  0  0  0  0  0
    0.3642    2.1984    3.5894 C   0  0  0  0  0  0  0  0  0  0  0  0
   -0.5573    3.0412    3.8739 N   0  0  0  0  0  0  0  0  0  0  0  0
   -0.2562    4.3238    3.2956 O   0  0  0  0  0  0  0  0  0  0  0  0
    0.3464    0.7427    4.0546 C   0  0  1  0  0  0  0  0  0  0  0  0
   -1.0852    0.1991    4.2388 C   0  0  0  0  0  0  0  0  0  0  0  0
    1.1520    0.6155    5.3783 C   0  0  0  0  0  0  0  0  0  0  0  0
    1.5625   -0.8369    5.7043 C   0  0  0  0  0  0  0  0  0  0  0  0
    2.3957   -1.4816    4.5726 C   0  0  1  0  0  0  0  0  0  0  0  0
    2.9773   -2.9089    4.9093 C   0  0  1  0  0  0  0  0  0  0  0  0
    4.1328   -2.7245    5.9362 C   0  0  0  0  0  0  0  0  0  0  0  0
    2.5171   -4.2929    7.5092 H   0  0  0  0  0  0  0  0  0  0  0  0
    0.8466   -4.6956    7.1525 H   0  0  0  0  0  0  0  0  0  0  0  0
    1.3286   -3.0204    7.3079 H   0  0  0  0  0  0  0  0  0  0  0  0
    0.9909   -3.7511    4.9112 H   0  0  0  0  0  0  0  0  0  0  0  0
    2.6742   -5.9990    5.7415 H   0  0  0  0  0  0  0  0  0  0  0  0
    2.3316   -7.6273    3.3051 H   0  0  0  0  0  0  0  0  0  0  0  0
    1.5933   -7.8739    4.8989 H   0  0  0  0  0  0  0  0  0  0  0  0
   -1.7589   -9.9628    2.1214 H   0  0  0  0  0  0  0  0  0  0  0  0
    0.2926  -11.2127    2.9506 H   0  0  0  0  0  0  0  0  0  0  0  0
    1.3008  -10.3441    4.1107 H   0  0  0  0  0  0  0  0  0  0  0  0
    1.6689  -10.2672    2.3700 H   0  0  0  0  0  0  0  0  0  0  0  0
    4.5455   -5.2601    4.6289 H   0  0  0  0  0  0  0  0  0  0  0  0
    3.7349   -5.7448    3.1667 H   0  0  0  0  0  0  0  0  0  0  0  0
    4.5650   -3.2174    3.4291 H   0  0  0  0  0  0  0  0  0  0  0  0
    3.2234   -3.8957    1.5356 H   0  0  0  0  0  0  0  0  0  0  0  0
    1.7688   -4.0011    2.4953 H   0  0  0  0  0  0  0  0  0  0  0  0
    3.3197   -1.4488    1.9244 H   0  0  0  0  0  0  0  0  0  0  0  0
    1.8143   -1.9266    1.1618 H   0  0  0  0  0  0  0  0  0  0  0  0
    0.7019   -2.0105    3.3685 H   0  0  0  0  0  0  0  0  0  0  0  0
    0.3900   -0.0644    2.0825 H   0  0  0  0  0  0  0  0  0  0  0  0
    3.1075    0.8943    2.9631 H   0  0  0  0  0  0  0  0  0  0  0  0
    2.3614    0.9214    1.3692 H   0  0  0  0  0  0  0  0  0  0  0  0
    2.3253    3.0221    3.3208 H   0  0  0  0  0  0  0  0  0  0  0  0
    1.3971    2.9398    1.8266 H   0  0  0  0  0  0  0  0  0  0  0  0
   -0.1834    4.1442    2.3471 H   0  0  0  0  0  0  0  0  0  0  0  0
   -1.0854   -0.8657    4.4740 H   0  0  0  0  0  0  0  0  0  0  0  0
   -1.6823    0.3313    3.3378 H   0  0  0  0  0  0  0  0  0  0  0  0
   -1.6060    0.7069    5.0502 H   0  0  0  0  0  0  0  0  0  0  0  0
    2.0602    1.2186    5.3372 H   0  0  0  0  0  0  0  0  0  0  0  0
    0.5695    1.0197    6.2089 H   0  0  0  0  0  0  0  0  0  0  0  0
    2.1165   -0.8331    6.6408 H   0  0  0  0  0  0  0  0  0  0  0  0
    0.6573   -1.4238    5.8719 H   0  0  0  0  0  0  0  0  0  0  0  0
    3.2693   -0.8353    4.4384 H   0  0  0  0  0  0  0  0  0  0  0  0
    4.9342   -2.1095    5.5205 H   0  0  0  0  0  0  0  0  0  0  0  0
    4.5837   -3.6715    6.2318 H   0  0  0  0  0  0  0  0  0  0  0  0
    3.8097   -2.2358    6.8545 H   0  0  0  0  0  0  0  0  0  0  0  0
  1  2  1  0
  1 30  1  0
  1 31  1  0
  1 32  1  0
  2 28  1  0
  2  3  1  0
  2 33  1  6
  3  4  1  0
  3 12  1  0
  3 34  1  1
  4  5  1  0
  5  6  1  0
  5 35  1  0
  5 36  1  0
  6 10  1  0
  6  7  2  0
  7  8  1  0
  8  9  2  0
  9 10  1  0
  9 37  1  0
 10 11  1  0
 11 38  1  0
 11 39  1  0
 11 40  1  0
 12 13  1  0
 12 41  1  0
 12 42  1  0
 13 28  1  0
 13 14  1  0
 13 43  1  6
 14 15  1  0
 14 44  1  0
 14 45  1  0
 15 16  1  0
 15 46  1  0
 15 47  1  0
 16 27  1  0
 16 17  1  0
 16 48  1  1
 17 23  1  0
 17 18  1  0
 17 49  1  6
 18 19  1  0
 18 50  1  0
 18 51  1  0
 19 20  1  0
 19 52  1  0
 19 53  1  0
 20 21  2  3
 20 23  1  0
 21 22  1  0
 22 54  1  0
 23 24  1  1
 23 25  1  0
 24 55  1  0
 24 56  1  0
 24 57  1  0
 25 26  1  0
 25 58  1  0
 25 59  1  0
 26 27  1  0
 26 60  1  0
 26 61  1  0
 27 28  1  0
 27 62  1  6
 28 29  1  1
 29 63  1  0
 29 64  1  0
 29 65  1  0
M  END
>  <i_m_ct_stereo_status>  (309) 
1

>  <s_m_source_file>  (309) 
/var/tmp/pbs.5076255.sched01/tmppdndq9e4/92von5zo7h.sdf

>  <i_m_source_file_index>  (309) 
36

>  <i_lp_mmshare_version>  (309) 
48012

>  <i_f3d_flags>  (309) 
0

>  <s_epik_input>  (309) 
W0NIM11uMVtjSF1ubmMxW0NIMl1PW0NASF0oW0NASF0yW0NIM10pW0NIMl1bQ0BASF0oW0NIMl1bQ0gyXTMpW0NAQF0yKFtDSDNdKVtDQEhdKFtDSDJdW0NIMl00KVtDQEhdM1tDQEBIXShbQ0BAXTQ1W0NIM10pW0NIMl1bQ0gyXS9DNT1OXFtPSF0=

>  <s_epik_cmdline>  (309) 
J2VwaWtfcHl0aG9uJywgJy1waHQnLCAnMi4wJywgJy1waCcsICc3LjAnLCAnLXRuJywgJzgnLCAnLW1hJywgJzIwMCcsICctaW1hZScsICc8aW5maWxlLm1hZT4nLCAnLW9tYWUnLCAnPG91dGZpbGUubWFlPic=

>  <r_lp_tautomer_probability>  (309) 
1

>  <r_epik_Ionization_Penalty>  (309) 
3.67705e-05

>  <r_epik_Ionization_Penalty_Charging>  (309) 
0

>  <r_epik_Ionization_Penalty_Neutral>  (309) 
3.67705e-05

>  <r_epik_State_Penalty>  (309) 
-0

>  <r_epik_Charging_Adjusted_Penalty>  (309) 
0

>  <i_epik_Tot_Q>  (309) 
0

>  <i_epik_Tot_abs_Q>  (309) 
0

>  <s_epik_Chemistry_Notes>  (309) 
This compound has an imine and may undergo hydrolysis.

>  <s_lp_Force_Field>  (309) 
OPLS3e

>  <r_lp_Energy>  (309) 
44.8959

>  <b_lp_Chiralities_Consistent>  (309) 
1

>  <s_lp_Variant>  (309) 
78:0-1

>  <s_i_glide_gridfile>  (309) 
pfpi4k_grid

>  <i_i_glide_lignum>  (309) 
36

>  <i_i_glide_rotatable_bonds>  (309) 
4

>  <r_i_docking_score>  (309) 
-3.74712

>  <r_i_glide_ligand_efficiency>  (309) 
-0.129211

>  <r_i_glide_ligand_efficiency_sa>  (309) 
-0.396977

>  <r_i_glide_ligand_efficiency_ln>  (309) 
-0.857995

>  <r_i_glide_gscore>  (309) 
-3.74712

>  <r_i_glide_lipo>  (309) 
-0.111958

>  <r_i_glide_hbond>  (309) 
-0.16

>  <r_i_glide_metal>  (309) 
-0

>  <r_i_glide_rewards>  (309) 
-0.889607

>  <r_i_glide_evdw>  (309) 
-23.6655

>  <r_i_glide_ecoul>  (309) 
-10.035

>  <r_i_glide_erotb>  (309) 
0.488773

>  <r_i_glide_esite>  (309) 
-0.3858

>  <r_i_glide_emodel>  (309) 
-42.3636

>  <r_i_glide_energy>  (309) 
-33.7005

>  <r_i_glide_einternal>  (309) 
2.76316

>  <r_i_glide_intrahb_reward>  (309) 
-0

>  <i_i_glide_confnum>  (309) 
4

>  <i_i_glide_posenum>  (309) 
23

>  <r_i_glide_eff_state_penalty>  (309) 
0

>  <ligand_id>  (309) 
78

>  <original_smiles>  (309) 
CC1C(OCc2nncn2C)CC2CCC3C4CCC(=NO)C4(C)CCC3C21C

>  <smiles>  (309) 
[H]ON=C1C([H])([H])C([H])([H])C2([H])C3([H])C([H])([H])C([H])([H])C4([H])C([H])([H])C([H])(OC([H])([H])c5nnc([H])n5C([H])([H])[H])C([H])(C([H])([H])[H])C4(C([H])([H])[H])C3([H])C([H])([H])C([H])([H])C12C([H])([H])[H]

$$$$
78:0:1
     RDKit          3D

 65 69  0  0  1  0  0  0  0  0999 V2000
    1.6940   -4.3982    5.9024 C   0  0  0  0  0  0  0  0  0  0  0  0
    2.1501   -4.1579    4.4460 C   0  0  2  0  0  0  0  0  0  0  0  0
    2.7010   -5.4623    3.8088 C   0  0  1  0  0  0  0  0  0  0  0  0
    1.7450   -5.9390    2.8668 O   0  0  0  0  0  0  0  0  0  0  0  0
    1.8022   -7.3449    2.5802 C   0  0  0  0  0  0  0  0  0  0  0  0
    0.3849   -7.8446    2.6342 C   0  0  0  0  0  0  0  0  0  0  0  0
   -0.6735   -7.0390    2.3766 N   0  0  0  0  0  0  0  0  0  0  0  0
   -1.7824   -7.8217    2.5917 N   0  0  0  0  0  0  0  0  0  0  0  0
   -1.2724   -9.0250    2.9236 C   0  0  0  0  0  0  0  0  0  0  0  0
    0.0481   -9.0925    2.9670 N   0  0  0  0  0  0  0  0  0  0  0  0
    0.8748  -10.2320    3.3100 C   0  0  0  0  0  0  0  0  0  0  0  0
    4.0170   -5.0883    3.1195 C   0  0  0  0  0  0  0  0  0  0  0  0
    3.9663   -3.5651    2.9512 C   0  0  1  0  0  0  0  0  0  0  0  0
    3.2431   -3.2349    1.6317 C   0  0  0  0  0  0  0  0  0  0  0  0
    2.9504   -1.7442    1.5050 C   0  0  0  0  0  0  0  0  0  0  0  0
    2.0248   -1.3088    2.6456 C   0  0  2  0  0  0  0  0  0  0  0  0
    1.5391    0.1498    2.4651 C   0  0  2  0  0  0  0  0  0  0  0  0
    2.6385    1.2101    2.2508 C   0  0  0  0  0  0  0  0  0  0  0  0
    2.0236    2.5509    2.6964 C   0  0  0  0  0  0  0  0  0  0  0  0
    0.7171    2.2036    3.3710 C   0  0  0  0  0  0  0  0  0  0  0  0
   -0.2231    3.0091    3.6935 N   0  0  0  0  0  0  0  0  0  0  0  0
    0.1294    4.3441    3.3010 O   0  0  0  0  0  0  0  0  0  0  0  0
    0.6666    0.6983    3.6103 C   0  0  1  0  0  0  0  0  0  0  0  0
   -0.7710    0.1457    3.5635 C   0  0  0  0  0  0  0  0  0  0  0  0
    1.3239    0.3777    4.9792 C   0  0  0  0  0  0  0  0  0  0  0  0
    1.7112   -1.1069    5.1366 C   0  0  0  0  0  0  0  0  0  0  0  0
    2.6719   -1.5859    4.0239 C   0  0  1  0  0  0  0  0  0  0  0  0
    3.2289   -3.0493    4.2181 C   0  0  1  0  0  0  0  0  0  0  0  0
    4.2628   -3.0198    5.3813 C   0  0  0  0  0  0  0  0  0  0  0  0
    2.4995   -4.7880    6.5275 H   0  0  0  0  0  0  0  0  0  0  0  0
    0.8842   -5.1289    5.9341 H   0  0  0  0  0  0  0  0  0  0  0  0
    1.3246   -3.4943    6.3810 H   0  0  0  0  0  0  0  0  0  0  0  0
    1.2624   -3.8738    3.8803 H   0  0  0  0  0  0  0  0  0  0  0  0
    2.8747   -6.2037    4.5913 H   0  0  0  0  0  0  0  0  0  0  0  0
    2.2087   -7.5332    1.5864 H   0  0  0  0  0  0  0  0  0  0  0  0
    2.4049   -7.8994    3.2986 H   0  0  0  0  0  0  0  0  0  0  0  0
   -1.9270   -9.8537    3.1557 H   0  0  0  0  0  0  0  0  0  0  0  0
    0.2586  -11.0175    3.7440 H   0  0  0  0  0  0  0  0  0  0  0  0
    1.6307   -9.9478    4.0452 H   0  0  0  0  0  0  0  0  0  0  0  0
    1.3668  -10.6166    2.4181 H   0  0  0  0  0  0  0  0  0  0  0  0
    4.8458   -5.3495    3.7798 H   0  0  0  0  0  0  0  0  0  0  0  0
    4.1887   -5.6270    2.1892 H   0  0  0  0  0  0  0  0  0  0  0  0
    4.9735   -3.1564    2.8930 H   0  0  0  0  0  0  0  0  0  0  0  0
    3.8553   -3.5518    0.7860 H   0  0  0  0  0  0  0  0  0  0  0  0
    2.3054   -3.7815    1.5536 H   0  0  0  0  0  0  0  0  0  0  0  0
    3.8869   -1.1836    1.5322 H   0  0  0  0  0  0  0  0  0  0  0  0
    2.4945   -1.5451    0.5379 H   0  0  0  0  0  0  0  0  0  0  0  0
    1.1274   -1.9321    2.5769 H   0  0  0  0  0  0  0  0  0  0  0  0
    0.9307    0.1755    1.5547 H   0  0  0  0  0  0  0  0  0  0  0  0
    3.5151    0.9954    2.8604 H   0  0  0  0  0  0  0  0  0  0  0  0
    2.9638    1.2417    1.2154 H   0  0  0  0  0  0  0  0  0  0  0  0
    2.6802    3.0531    3.4106 H   0  0  0  0  0  0  0  0  0  0  0  0
    1.8703    3.2180    1.8503 H   0  0  0  0  0  0  0  0  0  0  0  0
    0.1848    4.2761    2.3312 H   0  0  0  0  0  0  0  0  0  0  0  0
   -0.7781   -0.9370    3.6767 H   0  0  0  0  0  0  0  0  0  0  0  0
   -1.2640    0.3979    2.6243 H   0  0  0  0  0  0  0  0  0  0  0  0
   -1.3865    0.5440    4.3685 H   0  0  0  0  0  0  0  0  0  0  0  0
    2.2241    0.9770    5.1231 H   0  0  0  0  0  0  0  0  0  0  0  0
    0.6481    0.6624    5.7877 H   0  0  0  0  0  0  0  0  0  0  0  0
    2.1585   -1.2401    6.1195 H   0  0  0  0  0  0  0  0  0  0  0  0
    0.8010   -1.7095    5.1188 H   0  0  0  0  0  0  0  0  0  0  0  0
    3.5471   -0.9325    4.0800 H   0  0  0  0  0  0  0  0  0  0  0  0
    5.0978   -2.3561    5.1482 H   0  0  0  0  0  0  0  0  0  0  0  0
    4.6885   -4.0013    5.5872 H   0  0  0  0  0  0  0  0  0  0  0  0
    3.8348   -2.6658    6.3176 H   0  0  0  0  0  0  0  0  0  0  0  0
  1  2  1  0
  1 30  1  0
  1 31  1  0
  1 32  1  0
  2 28  1  0
  2  3  1  0
  2 33  1  6
  3  4  1  0
  3 12  1  0
  3 34  1  1
  4  5  1  0
  5  6  1  0
  5 35  1  0
  5 36  1  0
  6 10  1  0
  6  7  2  0
  7  8  1  0
  8  9  2  0
  9 10  1  0
  9 37  1  0
 10 11  1  0
 11 38  1  0
 11 39  1  0
 11 40  1  0
 12 13  1  0
 12 41  1  0
 12 42  1  0
 13 28  1  0
 13 14  1  0
 13 43  1  6
 14 15  1  0
 14 44  1  0
 14 45  1  0
 15 16  1  0
 15 46  1  0
 15 47  1  0
 16 27  1  0
 16 17  1  0
 16 48  1  1
 17 23  1  0
 17 18  1  0
 17 49  1  6
 18 19  1  0
 18 50  1  0
 18 51  1  0
 19 20  1  0
 19 52  1  0
 19 53  1  0
 20 21  2  3
 20 23  1  0
 21 22  1  0
 22 54  1  0
 23 24  1  1
 23 25  1  0
 24 55  1  0
 24 56  1  0
 24 57  1  0
 25 26  1  0
 25 58  1  0
 25 59  1  0
 26 27  1  0
 26 60  1  0
 26 61  1  0
 27 28  1  0
 27 62  1  6
 28 29  1  1
 29 63  1  0
 29 64  1  0
 29 65  1  0
M  END
>  <i_m_ct_stereo_status>  (310) 
1

>  <s_m_source_file>  (310) 
/var/tmp/pbs.5076255.sched01/tmppdndq9e4/92von5zo7h.sdf

>  <i_m_source_file_index>  (310) 
36

>  <i_lp_mmshare_version>  (310) 
48012

>  <i_f3d_flags>  (310) 
0

>  <s_epik_input>  (310) 
W0NIM11uMVtjSF1ubmMxW0NIMl1PW0NASF0oW0NASF0yW0NIM10pW0NIMl1bQ0BASF0oW0NIMl1bQ0gyXTMpW0NAQF0yKFtDSDNdKVtDQEhdKFtDSDJdW0NIMl00KVtDQEhdM1tDQEBIXShbQ0BAXTQ1W0NIM10pW0NIMl1bQ0gyXS9DNT1OXFtPSF0=

>  <s_epik_cmdline>  (310) 
J2VwaWtfcHl0aG9uJywgJy1waHQnLCAnMi4wJywgJy1waCcsICc3LjAnLCAnLXRuJywgJzgnLCAnLW1hJywgJzIwMCcsICctaW1hZScsICc8aW5maWxlLm1hZT4nLCAnLW9tYWUnLCAnPG91dGZpbGUubWFlPic=

>  <r_lp_tautomer_probability>  (310) 
1

>  <r_epik_Ionization_Penalty>  (310) 
3.67705e-05

>  <r_epik_Ionization_Penalty_Charging>  (310) 
0

>  <r_epik_Ionization_Penalty_Neutral>  (310) 
3.67705e-05

>  <r_epik_State_Penalty>  (310) 
-0

>  <r_epik_Charging_Adjusted_Penalty>  (310) 
0

>  <i_epik_Tot_Q>  (310) 
0

>  <i_epik_Tot_abs_Q>  (310) 
0

>  <s_epik_Chemistry_Notes>  (310) 
This compound has an imine and may undergo hydrolysis.

>  <s_lp_Force_Field>  (310) 
OPLS3e

>  <r_lp_Energy>  (310) 
44.8959

>  <b_lp_Chiralities_Consistent>  (310) 
1

>  <s_lp_Variant>  (310) 
78:0-1

>  <s_i_glide_gridfile>  (310) 
pfpi4k_grid

>  <i_i_glide_lignum>  (310) 
36

>  <i_i_glide_rotatable_bonds>  (310) 
4

>  <r_i_docking_score>  (310) 
-3.71551

>  <r_i_glide_ligand_efficiency>  (310) 
-0.128121

>  <r_i_glide_ligand_efficiency_sa>  (310) 
-0.393629

>  <r_i_glide_ligand_efficiency_ln>  (310) 
-0.850759

>  <r_i_glide_gscore>  (310) 
-3.71551

>  <r_i_glide_lipo>  (310) 
-0.0841661

>  <r_i_glide_hbond>  (310) 
-0.16

>  <r_i_glide_metal>  (310) 
-0

>  <r_i_glide_rewards>  (310) 
-0.678017

>  <r_i_glide_evdw>  (310) 
-24.527

>  <r_i_glide_ecoul>  (310) 
-10.7599

>  <r_i_glide_erotb>  (310) 
0.488773

>  <r_i_glide_esite>  (310) 
-0.441766

>  <r_i_glide_emodel>  (310) 
-42.5672

>  <r_i_glide_energy>  (310) 
-35.2869

>  <r_i_glide_einternal>  (310) 
5.31732

>  <r_i_glide_intrahb_reward>  (310) 
-0

>  <i_i_glide_confnum>  (310) 
4

>  <i_i_glide_posenum>  (310) 
6

>  <r_i_glide_eff_state_penalty>  (310) 
0

>  <ligand_id>  (310) 
78

>  <original_smiles>  (310) 
CC1C(OCc2nncn2C)CC2CCC3C4CCC(=NO)C4(C)CCC3C21C

>  <smiles>  (310) 
[H]ON=C1C([H])([H])C([H])([H])C2([H])C3([H])C([H])([H])C([H])([H])C4([H])C([H])([H])C([H])(OC([H])([H])c5nnc([H])n5C([H])([H])[H])C([H])(C([H])([H])[H])C4(C([H])([H])[H])C3([H])C([H])([H])C([H])([H])C12C([H])([H])[H]

$$$$
78:0:2
     RDKit          3D

 65 69  0  0  1  0  0  0  0  0999 V2000
    0.5546   -4.0331    5.2449 C   0  0  0  0  0  0  0  0  0  0  0  0
    1.3976   -3.5625    4.0406 C   0  0  2  0  0  0  0  0  0  0  0  0
    2.1702   -4.7490    3.3989 C   0  0  1  0  0  0  0  0  0  0  0  0
    1.6077   -5.0576    2.1267 O   0  0  0  0  0  0  0  0  0  0  0  0
    1.8101   -6.4020    1.6886 C   0  0  0  0  0  0  0  0  0  0  0  0
    0.6390   -7.2087    2.1661 C   0  0  0  0  0  0  0  0  0  0  0  0
   -0.5948   -6.6594    2.2863 N   0  0  0  0  0  0  0  0  0  0  0  0
   -1.3893   -7.6702    2.7735 N   0  0  0  0  0  0  0  0  0  0  0  0
   -0.5479   -8.7312    2.8672 C   0  0  0  0  0  0  0  0  0  0  0  0
    0.7014   -8.4955    2.4991 N   0  0  0  0  0  0  0  0  0  0  0  0
    1.8235   -9.4106    2.4794 C   0  0  0  0  0  0  0  0  0  0  0  0
    3.6105   -4.2641    3.1982 C   0  0  0  0  0  0  0  0  0  0  0  0
    3.5391   -2.7335    3.2581 C   0  0  1  0  0  0  0  0  0  0  0  0
    3.2123   -2.1897    1.8530 C   0  0  0  0  0  0  0  0  0  0  0  0
    2.8981   -0.6960    1.8764 C   0  0  0  0  0  0  0  0  0  0  0  0
    1.6710   -0.4485    2.7569 C   0  0  2  0  0  0  0  0  0  0  0  0
    1.1952    1.0226    2.6753 C   0  0  2  0  0  0  0  0  0  0  0  0
    2.2630    2.1009    2.9588 C   0  0  0  0  0  0  0  0  0  0  0  0
    1.4819    3.3514    3.4102 C   0  0  0  0  0  0  0  0  0  0  0  0
    0.0549    2.9034    3.6206 C   0  0  0  0  0  0  0  0  0  0  0  0
   -0.9725    3.6545    3.7782 N   0  0  0  0  0  0  0  0  0  0  0  0
   -0.5718    5.0334    3.6436 O   0  0  0  0  0  0  0  0  0  0  0  0
    0.0068    1.3815    3.5863 C   0  0  1  0  0  0  0  0  0  0  0  0
   -1.3234    0.8568    3.0307 C   0  0  0  0  0  0  0  0  0  0  0  0
    0.2528    0.8363    5.0175 C   0  0  0  0  0  0  0  0  0  0  0  0
    0.6423   -0.6576    5.0454 C   0  0  0  0  0  0  0  0  0  0  0  0
    1.9020   -0.9545    4.1999 C   0  0  1  0  0  0  0  0  0  0  0  0
    2.4439   -2.4317    4.3146 C   0  0  1  0  0  0  0  0  0  0  0  0
    3.0955   -2.5940    5.7194 C   0  0  0  0  0  0  0  0  0  0  0  0
    1.1631   -4.5183    6.0098 H   0  0  0  0  0  0  0  0  0  0  0  0
   -0.1895   -4.7615    4.9226 H   0  0  0  0  0  0  0  0  0  0  0  0
    0.0201   -3.2182    5.7271 H   0  0  0  0  0  0  0  0  0  0  0  0
    0.6997   -3.1910    3.2904 H   0  0  0  0  0  0  0  0  0  0  0  0
    2.1414   -5.6228    4.0549 H   0  0  0  0  0  0  0  0  0  0  0  0
    1.8046   -6.4260    0.6001 H   0  0  0  0  0  0  0  0  0  0  0  0
    2.7546   -6.8144    2.0374 H   0  0  0  0  0  0  0  0  0  0  0  0
   -0.9053   -9.6957    3.2308 H   0  0  0  0  0  0  0  0  0  0  0  0
    1.5739  -10.3162    3.0280 H   0  0  0  0  0  0  0  0  0  0  0  0
    2.6915   -8.9510    2.9555 H   0  0  0  0  0  0  0  0  0  0  0  0
    2.0738   -9.6731    1.4520 H   0  0  0  0  0  0  0  0  0  0  0  0
    4.2235   -4.6302    4.0232 H   0  0  0  0  0  0  0  0  0  0  0  0
    4.0714   -4.6414    2.2864 H   0  0  0  0  0  0  0  0  0  0  0  0
    4.5009   -2.3248    3.5599 H   0  0  0  0  0  0  0  0  0  0  0  0
    4.0594   -2.3627    1.1862 H   0  0  0  0  0  0  0  0  0  0  0  0
    2.3646   -2.7151    1.4172 H   0  0  0  0  0  0  0  0  0  0  0  0
    3.7647   -0.1518    2.2583 H   0  0  0  0  0  0  0  0  0  0  0  0
    2.7143   -0.3438    0.8620 H   0  0  0  0  0  0  0  0  0  0  0  0
    0.8624   -1.0496    2.3280 H   0  0  0  0  0  0  0  0  0  0  0  0
    0.8711    1.1966    1.6435 H   0  0  0  0  0  0  0  0  0  0  0  0
    2.9317    1.7842    3.7585 H   0  0  0  0  0  0  0  0  0  0  0  0
    2.8726    2.3020    2.0813 H   0  0  0  0  0  0  0  0  0  0  0  0
    1.8791    3.7299    4.3542 H   0  0  0  0  0  0  0  0  0  0  0  0
    1.5513    4.1433    2.6677 H   0  0  0  0  0  0  0  0  0  0  0  0
   -0.2024    5.0353    2.7728 H   0  0  0  0  0  0  0  0  0  0  0  0
   -1.2950   -0.2253    2.9609 H   0  0  0  0  0  0  0  0  0  0  0  0
   -1.5418    1.2467    2.0361 H   0  0  0  0  0  0  0  0  0  0  0  0
   -2.1597    1.1127    3.6804 H   0  0  0  0  0  0  0  0  0  0  0  0
    1.0462    1.3999    5.5102 H   0  0  0  0  0  0  0  0  0  0  0  0
   -0.6411    0.9863    5.6261 H   0  0  0  0  0  0  0  0  0  0  0  0
    0.7940   -0.9506    6.0817 H   0  0  0  0  0  0  0  0  0  0  0  0
   -0.1971   -1.2444    4.6665 H   0  0  0  0  0  0  0  0  0  0  0  0
    2.6947   -0.3238    4.6143 H   0  0  0  0  0  0  0  0  0  0  0  0
    3.9317   -1.9027    5.8466 H   0  0  0  0  0  0  0  0  0  0  0  0
    3.4891   -3.5969    5.8850 H   0  0  0  0  0  0  0  0  0  0  0  0
    2.4009   -2.3954    6.5344 H   0  0  0  0  0  0  0  0  0  0  0  0
  1  2  1  0
  1 30  1  0
  1 31  1  0
  1 32  1  0
  2 28  1  0
  2  3  1  0
  2 33  1  6
  3  4  1  0
  3 12  1  0
  3 34  1  1
  4  5  1  0
  5  6  1  0
  5 35  1  0
  5 36  1  0
  6 10  1  0
  6  7  2  0
  7  8  1  0
  8  9  2  0
  9 10  1  0
  9 37  1  0
 10 11  1  0
 11 38  1  0
 11 39  1  0
 11 40  1  0
 12 13  1  0
 12 41  1  0
 12 42  1  0
 13 28  1  0
 13 14  1  0
 13 43  1  1
 14 15  1  0
 14 44  1  0
 14 45  1  0
 15 16  1  0
 15 46  1  0
 15 47  1  0
 16 27  1  0
 16 17  1  0
 16 48  1  6
 17 23  1  0
 17 18  1  0
 17 49  1  6
 18 19  1  0
 18 50  1  0
 18 51  1  0
 19 20  1  0
 19 52  1  0
 19 53  1  0
 20 21  2  3
 20 23  1  0
 21 22  1  0
 22 54  1  0
 23 24  1  6
 23 25  1  0
 24 55  1  0
 24 56  1  0
 24 57  1  0
 25 26  1  0
 25 58  1  0
 25 59  1  0
 26 27  1  0
 26 60  1  0
 26 61  1  0
 27 28  1  0
 27 62  1  1
 28 29  1  1
 29 63  1  0
 29 64  1  0
 29 65  1  0
M  END
>  <i_m_ct_stereo_status>  (311) 
1

>  <s_m_source_file>  (311) 
/var/tmp/pbs.5076255.sched01/tmppdndq9e4/92von5zo7h.sdf

>  <i_m_source_file_index>  (311) 
36

>  <i_lp_mmshare_version>  (311) 
48012

>  <i_f3d_flags>  (311) 
0

>  <s_epik_input>  (311) 
W0NIM11uMVtjSF1ubmMxW0NIMl1PW0NASF0oW0NASF0yW0NIM10pW0NIMl1bQ0BASF0oW0NIMl1bQ0gyXTMpW0NAQF0yKFtDSDNdKVtDQEhdKFtDSDJdW0NIMl00KVtDQEhdM1tDQEBIXShbQ0BAXTQ1W0NIM10pW0NIMl1bQ0gyXS9DNT1OXFtPSF0=

>  <s_epik_cmdline>  (311) 
J2VwaWtfcHl0aG9uJywgJy1waHQnLCAnMi4wJywgJy1waCcsICc3LjAnLCAnLXRuJywgJzgnLCAnLW1hJywgJzIwMCcsICctaW1hZScsICc8aW5maWxlLm1hZT4nLCAnLW9tYWUnLCAnPG91dGZpbGUubWFlPic=

>  <r_lp_tautomer_probability>  (311) 
1

>  <r_epik_Ionization_Penalty>  (311) 
3.67705e-05

>  <r_epik_Ionization_Penalty_Charging>  (311) 
0

>  <r_epik_Ionization_Penalty_Neutral>  (311) 
3.67705e-05

>  <r_epik_State_Penalty>  (311) 
-0

>  <r_epik_Charging_Adjusted_Penalty>  (311) 
0

>  <i_epik_Tot_Q>  (311) 
0

>  <i_epik_Tot_abs_Q>  (311) 
0

>  <s_epik_Chemistry_Notes>  (311) 
This compound has an imine and may undergo hydrolysis.

>  <s_lp_Force_Field>  (311) 
OPLS3e

>  <r_lp_Energy>  (311) 
44.8959

>  <b_lp_Chiralities_Consistent>  (311) 
1

>  <s_lp_Variant>  (311) 
78:0-1

>  <s_i_glide_gridfile>  (311) 
pfpi4k_grid

>  <i_i_glide_lignum>  (311) 
36

>  <i_i_glide_rotatable_bonds>  (311) 
4

>  <r_i_docking_score>  (311) 
-3.52594

>  <r_i_glide_ligand_efficiency>  (311) 
-0.121584

>  <r_i_glide_ligand_efficiency_sa>  (311) 
-0.373545

>  <r_i_glide_ligand_efficiency_ln>  (311) 
-0.807351

>  <r_i_glide_gscore>  (311) 
-3.52594

>  <r_i_glide_lipo>  (311) 
-0.0854486

>  <r_i_glide_hbond>  (311) 
-0.145738

>  <r_i_glide_metal>  (311) 
-0

>  <r_i_glide_rewards>  (311) 
-0.678017

>  <r_i_glide_evdw>  (311) 
-23.7597

>  <r_i_glide_ecoul>  (311) 
-9.25535

>  <r_i_glide_erotb>  (311) 
0.488773

>  <r_i_glide_esite>  (311) 
-0.529224

>  <r_i_glide_emodel>  (311) 
-40.4472

>  <r_i_glide_energy>  (311) 
-33.015

>  <r_i_glide_einternal>  (311) 
3.89539

>  <r_i_glide_intrahb_reward>  (311) 
-0

>  <i_i_glide_confnum>  (311) 
4

>  <i_i_glide_posenum>  (311) 
12

>  <r_i_glide_eff_state_penalty>  (311) 
0

>  <ligand_id>  (311) 
78

>  <original_smiles>  (311) 
CC1C(OCc2nncn2C)CC2CCC3C4CCC(=NO)C4(C)CCC3C21C

>  <smiles>  (311) 
[H]ON=C1C([H])([H])C([H])([H])C2([H])C3([H])C([H])([H])C([H])([H])C4([H])C([H])([H])C([H])(OC([H])([H])c5nnc([H])n5C([H])([H])[H])C([H])(C([H])([H])[H])C4(C([H])([H])[H])C3([H])C([H])([H])C([H])([H])C12C([H])([H])[H]

$$$$
78:1:0
     RDKit          3D

 65 69  0  0  1  0  0  0  0  0999 V2000
    3.9884    1.8026    5.0724 C   0  0  0  0  0  0  0  0  0  0  0  0
    2.8484    0.7780    4.8586 C   0  0  2  0  0  0  0  0  0  0  0  0
    1.6347    1.0871    5.7740 C   0  0  1  0  0  0  0  0  0  0  0  0
    0.4889    1.5318    5.0451 O   0  0  0  0  0  0  0  0  0  0  0  0
    0.5993    2.8066    4.4119 C   0  0  0  0  0  0  0  0  0  0  0  0
   -0.7232    3.1301    3.7851 C   0  0  0  0  0  0  0  0  0  0  0  0
   -1.4091    4.2465    4.0666 N   0  0  0  0  0  0  0  0  0  0  0  0
   -2.5680    4.1654    3.3110 N   0  0  0  0  0  0  0  0  0  0  0  0
   -2.4813    3.0019    2.6761 C   0  0  0  0  0  0  0  0  0  0  0  0
   -1.3496    2.3243    2.8992 N   0  0  0  0  0  0  0  0  0  0  0  0
   -0.9638    1.0520    2.3416 C   0  0  0  0  0  0  0  0  0  0  0  0
    1.2592   -0.2473    6.4361 C   0  0  0  0  0  0  0  0  0  0  0  0
    1.8740   -1.3518    5.5636 C   0  0  1  0  0  0  0  0  0  0  0  0
    0.9015   -1.6837    4.4258 C   0  0  0  0  0  0  0  0  0  0  0  0
    1.5159   -2.5476    3.3409 C   0  0  0  0  0  0  0  0  0  0  0  0
    2.6923   -1.7983    2.7040 C   0  0  2  0  0  0  0  0  0  0  0  0
    3.2492   -2.5651    1.4739 C   0  0  2  0  0  0  0  0  0  0  0  0
    3.5184   -4.0595    1.6749 C   0  0  0  0  0  0  0  0  0  0  0  0
    4.3191   -4.4477    0.4368 C   0  0  0  0  0  0  0  0  0  0  0  0
    5.1018   -3.2148    0.0566 C   0  0  0  0  0  0  0  0  0  0  0  0
    6.0591   -3.2819   -0.7833 N   0  0  0  0  0  0  0  0  0  0  0  0
    6.6852   -2.0204   -0.9488 O   0  0  0  0  0  0  0  0  0  0  0  0
    4.5546   -2.0023    0.8449 C   0  0  1  0  0  0  0  0  0  0  0  0
    4.2172   -0.7965   -0.0663 C   0  0  0  0  0  0  0  0  0  0  0  0
    5.5602   -1.5912    1.9540 C   0  0  0  0  0  0  0  0  0  0  0  0
    4.9339   -0.7363    3.0686 C   0  0  0  0  0  0  0  0  0  0  0  0
    3.7636   -1.4608    3.7696 C   0  0  1  0  0  0  0  0  0  0  0  0
    3.2113   -0.7331    5.0591 C   0  0  1  0  0  0  0  0  0  0  0  0
    4.2447   -0.9222    6.1996 C   0  0  0  0  0  0  0  0  0  0  0  0
    4.3511    1.8135    6.1014 H   0  0  0  0  0  0  0  0  0  0  0  0
    3.6470    2.8126    4.8442 H   0  0  0  0  0  0  0  0  0  0  0  0
    4.8429    1.6074    4.4300 H   0  0  0  0  0  0  0  0  0  0  0  0
    2.5192    0.8821    3.8259 H   0  0  0  0  0  0  0  0  0  0  0  0
    1.8839    1.8161    6.5495 H   0  0  0  0  0  0  0  0  0  0  0  0
    0.8442    3.5830    5.1429 H   0  0  0  0  0  0  0  0  0  0  0  0
    1.3549    2.8129    3.6269 H   0  0  0  0  0  0  0  0  0  0  0  0
   -3.2440    2.6244    2.0128 H   0  0  0  0  0  0  0  0  0  0  0  0
   -1.7804    0.6144    1.7675 H   0  0  0  0  0  0  0  0  0  0  0  0
   -0.7642    0.3814    3.1638 H   0  0  0  0  0  0  0  0  0  0  0  0
   -0.1008    1.1564    1.6763 H   0  0  0  0  0  0  0  0  0  0  0  0
    1.7004   -0.2902    7.4287 H   0  0  0  0  0  0  0  0  0  0  0  0
    0.1805   -0.3428    6.5751 H   0  0  0  0  0  0  0  0  0  0  0  0
    2.0426   -2.2587    6.1508 H   0  0  0  0  0  0  0  0  0  0  0  0
   -0.0071   -2.1511    4.8131 H   0  0  0  0  0  0  0  0  0  0  0  0
    0.6335   -0.7461    3.9607 H   0  0  0  0  0  0  0  0  0  0  0  0
    1.8207   -3.5069    3.7599 H   0  0  0  0  0  0  0  0  0  0  0  0
    0.7588   -2.7350    2.5839 H   0  0  0  0  0  0  0  0  0  0  0  0
    2.3025   -0.8547    2.3111 H   0  0  0  0  0  0  0  0  0  0  0  0
    2.4760   -2.5086    0.7030 H   0  0  0  0  0  0  0  0  0  0  0  0
    4.1209   -4.2158    2.5709 H   0  0  0  0  0  0  0  0  0  0  0  0
    2.6057   -4.6462    1.7767 H   0  0  0  0  0  0  0  0  0  0  0  0
    4.9836   -5.2877    0.6309 H   0  0  0  0  0  0  0  0  0  0  0  0
    3.6567   -4.7124   -0.3891 H   0  0  0  0  0  0  0  0  0  0  0  0
    6.2533   -1.5102   -0.2734 H   0  0  0  0  0  0  0  0  0  0  0  0
    3.6119   -0.0687    0.4729 H   0  0  0  0  0  0  0  0  0  0  0  0
    3.6429   -1.0981   -0.9446 H   0  0  0  0  0  0  0  0  0  0  0  0
    5.0975   -0.2589   -0.4147 H   0  0  0  0  0  0  0  0  0  0  0  0
    5.9932   -2.4824    2.4098 H   0  0  0  0  0  0  0  0  0  0  0  0
    6.3978   -1.0399    1.5227 H   0  0  0  0  0  0  0  0  0  0  0  0
    5.7120   -0.4872    3.7879 H   0  0  0  0  0  0  0  0  0  0  0  0
    4.5825    0.2015    2.6382 H   0  0  0  0  0  0  0  0  0  0  0  0
    4.1493   -2.4181    4.1186 H   0  0  0  0  0  0  0  0  0  0  0  0
    4.3700   -1.9820    6.4297 H   0  0  0  0  0  0  0  0  0  0  0  0
    3.9332   -0.4293    7.1213 H   0  0  0  0  0  0  0  0  0  0  0  0
    5.2285   -0.5294    5.9442 H   0  0  0  0  0  0  0  0  0  0  0  0
  1  2  1  0
  1 30  1  0
  1 31  1  0
  1 32  1  0
  2 28  1  0
  2  3  1  0
  2 33  1  6
  3  4  1  0
  3 12  1  0
  3 34  1  1
  4  5  1  0
  5  6  1  0
  5 35  1  0
  5 36  1  0
  6 10  1  0
  6  7  2  0
  7  8  1  0
  8  9  2  0
  9 10  1  0
  9 37  1  0
 10 11  1  0
 11 38  1  0
 11 39  1  0
 11 40  1  0
 12 13  1  0
 12 41  1  0
 12 42  1  0
 13 28  1  0
 13 14  1  0
 13 43  1  1
 14 15  1  0
 14 44  1  0
 14 45  1  0
 15 16  1  0
 15 46  1  0
 15 47  1  0
 16 27  1  0
 16 17  1  0
 16 48  1  6
 17 23  1  0
 17 18  1  0
 17 49  1  6
 18 19  1  0
 18 50  1  0
 18 51  1  0
 19 20  1  0
 19 52  1  0
 19 53  1  0
 20 21  2  3
 20 23  1  0
 21 22  1  0
 22 54  1  0
 23 24  1  6
 23 25  1  0
 24 55  1  0
 24 56  1  0
 24 57  1  0
 25 26  1  0
 25 58  1  0
 25 59  1  0
 26 27  1  0
 26 60  1  0
 26 61  1  0
 27 28  1  0
 27 62  1  1
 28 29  1  1
 29 63  1  0
 29 64  1  0
 29 65  1  0
M  END
>  <i_m_ct_stereo_status>  (312) 
1

>  <s_m_source_file>  (312) 
/var/tmp/pbs.5076255.sched01/tmppdndq9e4/92von5zo7h.sdf

>  <i_m_source_file_index>  (312) 
37

>  <i_lp_mmshare_version>  (312) 
48012

>  <i_f3d_flags>  (312) 
0

>  <s_epik_input>  (312) 
W0NIM11uMVtjSF1ubmMxW0NIMl1PW0NASF0oW0NASF0yW0NIM10pW0NIMl1bQ0BASF0oW0NIMl1bQ0gyXTMpW0NAQF0yKFtDSDNdKVtDQEhdKFtDSDJdW0NIMl00KVtDQEhdM1tDQEBIXShbQ0BAXTQ1W0NIM10pW0NIMl1bQ0gyXS9DNT1OXFtPSF0=

>  <s_epik_cmdline>  (312) 
J2VwaWtfcHl0aG9uJywgJy1waHQnLCAnMi4wJywgJy1waCcsICc3LjAnLCAnLXRuJywgJzgnLCAnLW1hJywgJzIwMCcsICctaW1hZScsICc8aW5maWxlLm1hZT4nLCAnLW9tYWUnLCAnPG91dGZpbGUubWFlPic=

>  <r_lp_tautomer_probability>  (312) 
1

>  <r_epik_Ionization_Penalty>  (312) 
3.67705e-05

>  <r_epik_Ionization_Penalty_Charging>  (312) 
0

>  <r_epik_Ionization_Penalty_Neutral>  (312) 
3.67705e-05

>  <r_epik_State_Penalty>  (312) 
-0

>  <r_epik_Charging_Adjusted_Penalty>  (312) 
0

>  <i_epik_Tot_Q>  (312) 
0

>  <i_epik_Tot_abs_Q>  (312) 
0

>  <s_epik_Chemistry_Notes>  (312) 
This compound has an imine and may undergo hydrolysis.

>  <s_lp_Force_Field>  (312) 
OPLS3e

>  <r_lp_Energy>  (312) 
45.9405

>  <b_lp_Chiralities_Consistent>  (312) 
1

>  <s_lp_Variant>  (312) 
78:0-2

>  <s_i_glide_gridfile>  (312) 
pfpi4k_grid

>  <i_i_glide_lignum>  (312) 
37

>  <i_i_glide_rotatable_bonds>  (312) 
4

>  <r_i_docking_score>  (312) 
-3.11984

>  <r_i_glide_ligand_efficiency>  (312) 
-0.107581

>  <r_i_glide_ligand_efficiency_sa>  (312) 
-0.330522

>  <r_i_glide_ligand_efficiency_ln>  (312) 
-0.714365

>  <r_i_glide_gscore>  (312) 
-3.11984

>  <r_i_glide_lipo>  (312) 
-0.310396

>  <r_i_glide_hbond>  (312) 
0

>  <r_i_glide_metal>  (312) 
-0

>  <r_i_glide_rewards>  (312) 
-0.724724

>  <r_i_glide_evdw>  (312) 
-23.1627

>  <r_i_glide_ecoul>  (312) 
-6.80427

>  <r_i_glide_erotb>  (312) 
0.488773

>  <r_i_glide_esite>  (312) 
-0.394719

>  <r_i_glide_emodel>  (312) 
-36.6054

>  <r_i_glide_energy>  (312) 
-29.967

>  <r_i_glide_einternal>  (312) 
0.387837

>  <r_i_glide_intrahb_reward>  (312) 
-0

>  <i_i_glide_confnum>  (312) 
1

>  <i_i_glide_posenum>  (312) 
15

>  <r_i_glide_eff_state_penalty>  (312) 
0

>  <ligand_id>  (312) 
78

>  <original_smiles>  (312) 
CC1C(OCc2nncn2C)CC2CCC3C4CCC(=NO)C4(C)CCC3C21C

>  <smiles>  (312) 
[H]ON=C1C([H])([H])C([H])([H])C2([H])C3([H])C([H])([H])C([H])([H])C4([H])C([H])([H])C([H])(OC([H])([H])c5nnc([H])n5C([H])([H])[H])C([H])(C([H])([H])[H])C4(C([H])([H])[H])C3([H])C([H])([H])C([H])([H])C12C([H])([H])[H]

$$$$
78:1:1
     RDKit          3D

 65 69  0  0  1  0  0  0  0  0999 V2000
    3.2131   -3.1775   -0.7135 C   0  0  0  0  0  0  0  0  0  0  0  0
    3.7831   -3.2367    0.7209 C   0  0  2  0  0  0  0  0  0  0  0  0
    4.7040   -2.0220    1.0129 C   0  0  1  0  0  0  0  0  0  0  0  0
    4.1397   -1.1406    1.9785 O   0  0  0  0  0  0  0  0  0  0  0  0
    3.0793   -0.3054    1.5122 C   0  0  0  0  0  0  0  0  0  0  0  0
    2.6469    0.5786    2.6552 C   0  0  0  0  0  0  0  0  0  0  0  0
    3.4289    0.8256    3.7361 N   0  0  0  0  0  0  0  0  0  0  0  0
    2.6843    1.6653    4.5359 N   0  0  0  0  0  0  0  0  0  0  0  0
    1.5329    1.8355    3.8523 C   0  0  0  0  0  0  0  0  0  0  0  0
    1.4582    1.1843    2.7026 N   0  0  0  0  0  0  0  0  0  0  0  0
    0.3496    1.1635    1.7668 C   0  0  0  0  0  0  0  0  0  0  0  0
    5.9788   -2.5980    1.6390 C   0  0  0  0  0  0  0  0  0  0  0  0
    5.5899   -3.9853    2.1614 C   0  0  1  0  0  0  0  0  0  0  0  0
    5.0062   -3.8407    3.5803 C   0  0  0  0  0  0  0  0  0  0  0  0
    4.3703   -5.1370    4.0661 C   0  0  0  0  0  0  0  0  0  0  0  0
    3.2164   -5.5202    3.1332 C   0  0  2  0  0  0  0  0  0  0  0  0
    2.4112   -6.7246    3.6845 C   0  0  2  0  0  0  0  0  0  0  0  0
    3.2339   -7.9449    4.1255 C   0  0  0  0  0  0  0  0  0  0  0  0
    2.1824   -9.0334    4.3241 C   0  0  0  0  0  0  0  0  0  0  0  0
    1.0950   -8.7153    3.3342 C   0  0  0  0  0  0  0  0  0  0  0  0
    0.2026   -9.5890    3.0843 N   0  0  0  0  0  0  0  0  0  0  0  0
   -0.7113   -9.0879    2.1229 O   0  0  0  0  0  0  0  0  0  0  0  0
    1.3041   -7.2974    2.7621 C   0  0  1  0  0  0  0  0  0  0  0  0
    0.0405   -6.4166    2.8528 C   0  0  0  0  0  0  0  0  0  0  0  0
    1.8111   -7.3857    1.2994 C   0  0  0  0  0  0  0  0  0  0  0  0
    2.5055   -6.1004    0.8040 C   0  0  0  0  0  0  0  0  0  0  0  0
    3.7111   -5.7122    1.6829 C   0  0  1  0  0  0  0  0  0  0  0  0
    4.5796   -4.5256    1.1128 C   0  0  1  0  0  0  0  0  0  0  0  0
    5.4050   -5.0680   -0.0897 C   0  0  0  0  0  0  0  0  0  0  0  0
    3.9979   -3.1700   -1.4704 H   0  0  0  0  0  0  0  0  0  0  0  0
    2.6273   -2.2685   -0.8553 H   0  0  0  0  0  0  0  0  0  0  0  0
    2.5547   -4.0132   -0.9399 H   0  0  0  0  0  0  0  0  0  0  0  0
    2.9382   -3.1665    1.4046 H   0  0  0  0  0  0  0  0  0  0  0  0
    4.9692   -1.4691    0.1081 H   0  0  0  0  0  0  0  0  0  0  0  0
    3.4071    0.3229    0.6871 H   0  0  0  0  0  0  0  0  0  0  0  0
    2.2327   -0.9121    1.1933 H   0  0  0  0  0  0  0  0  0  0  0  0
    0.7287    2.4515    4.2482 H   0  0  0  0  0  0  0  0  0  0  0  0
   -0.5371    1.6069    2.2198 H   0  0  0  0  0  0  0  0  0  0  0  0
    0.1195    0.1375    1.4706 H   0  0  0  0  0  0  0  0  0  0  0  0
    0.5960    1.7441    0.8827 H   0  0  0  0  0  0  0  0  0  0  0  0
    6.7484   -2.7034    0.8729 H   0  0  0  0  0  0  0  0  0  0  0  0
    6.3953   -1.9418    2.4017 H   0  0  0  0  0  0  0  0  0  0  0  0
    6.4693   -4.6247    2.2261 H   0  0  0  0  0  0  0  0  0  0  0  0
    5.7940   -3.5461    4.2759 H   0  0  0  0  0  0  0  0  0  0  0  0
    4.2583   -3.0509    3.6146 H   0  0  0  0  0  0  0  0  0  0  0  0
    5.1290   -5.9217    4.0857 H   0  0  0  0  0  0  0  0  0  0  0  0
    4.0118   -5.0115    5.0866 H   0  0  0  0  0  0  0  0  0  0  0  0
    2.5250   -4.6728    3.1303 H   0  0  0  0  0  0  0  0  0  0  0  0
    1.9169   -6.3745    4.5947 H   0  0  0  0  0  0  0  0  0  0  0  0
    3.9228   -8.2434    3.3317 H   0  0  0  0  0  0  0  0  0  0  0  0
    3.8099   -7.7672    5.0314 H   0  0  0  0  0  0  0  0  0  0  0  0
    2.5858  -10.0314    4.1583 H   0  0  0  0  0  0  0  0  0  0  0  0
    1.7599   -8.9904    5.3296 H   0  0  0  0  0  0  0  0  0  0  0  0
   -0.4142   -9.5310    1.3329 H   0  0  0  0  0  0  0  0  0  0  0  0
    0.2985   -5.3731    2.6910 H   0  0  0  0  0  0  0  0  0  0  0  0
   -0.4327   -6.4831    3.8313 H   0  0  0  0  0  0  0  0  0  0  0  0
   -0.7054   -6.6819    2.1052 H   0  0  0  0  0  0  0  0  0  0  0  0
    2.5156   -8.2117    1.2020 H   0  0  0  0  0  0  0  0  0  0  0  0
    0.9820   -7.6217    0.6286 H   0  0  0  0  0  0  0  0  0  0  0  0
    2.8202   -6.2486   -0.2247 H   0  0  0  0  0  0  0  0  0  0  0  0
    1.7854   -5.2830    0.7979 H   0  0  0  0  0  0  0  0  0  0  0  0
    4.3728   -6.5834    1.7018 H   0  0  0  0  0  0  0  0  0  0  0  0
    6.0742   -5.8723    0.2232 H   0  0  0  0  0  0  0  0  0  0  0  0
    6.0277   -4.3007   -0.5502 H   0  0  0  0  0  0  0  0  0  0  0  0
    4.7781   -5.4748   -0.8823 H   0  0  0  0  0  0  0  0  0  0  0  0
  1  2  1  0
  1 30  1  0
  1 31  1  0
  1 32  1  0
  2 28  1  0
  2  3  1  0
  2 33  1  1
  3  4  1  0
  3 12  1  0
  3 34  1  6
  4  5  1  0
  5  6  1  0
  5 35  1  0
  5 36  1  0
  6 10  1  0
  6  7  2  0
  7  8  1  0
  8  9  2  0
  9 10  1  0
  9 37  1  0
 10 11  1  0
 11 38  1  0
 11 39  1  0
 11 40  1  0
 12 13  1  0
 12 41  1  0
 12 42  1  0
 13 28  1  0
 13 14  1  0
 13 43  1  1
 14 15  1  0
 14 44  1  0
 14 45  1  0
 15 16  1  0
 15 46  1  0
 15 47  1  0
 16 27  1  0
 16 17  1  0
 16 48  1  6
 17 23  1  0
 17 18  1  0
 17 49  1  1
 18 19  1  0
 18 50  1  0
 18 51  1  0
 19 20  1  0
 19 52  1  0
 19 53  1  0
 20 21  2  3
 20 23  1  0
 21 22  1  0
 22 54  1  0
 23 24  1  6
 23 25  1  0
 24 55  1  0
 24 56  1  0
 24 57  1  0
 25 26  1  0
 25 58  1  0
 25 59  1  0
 26 27  1  0
 26 60  1  0
 26 61  1  0
 27 28  1  0
 27 62  1  1
 28 29  1  6
 29 63  1  0
 29 64  1  0
 29 65  1  0
M  END
>  <i_m_ct_stereo_status>  (313) 
1

>  <s_m_source_file>  (313) 
/var/tmp/pbs.5076255.sched01/tmppdndq9e4/92von5zo7h.sdf

>  <i_m_source_file_index>  (313) 
37

>  <i_lp_mmshare_version>  (313) 
48012

>  <i_f3d_flags>  (313) 
0

>  <s_epik_input>  (313) 
W0NIM11uMVtjSF1ubmMxW0NIMl1PW0NASF0oW0NASF0yW0NIM10pW0NIMl1bQ0BASF0oW0NIMl1bQ0gyXTMpW0NAQF0yKFtDSDNdKVtDQEhdKFtDSDJdW0NIMl00KVtDQEhdM1tDQEBIXShbQ0BAXTQ1W0NIM10pW0NIMl1bQ0gyXS9DNT1OXFtPSF0=

>  <s_epik_cmdline>  (313) 
J2VwaWtfcHl0aG9uJywgJy1waHQnLCAnMi4wJywgJy1waCcsICc3LjAnLCAnLXRuJywgJzgnLCAnLW1hJywgJzIwMCcsICctaW1hZScsICc8aW5maWxlLm1hZT4nLCAnLW9tYWUnLCAnPG91dGZpbGUubWFlPic=

>  <r_lp_tautomer_probability>  (313) 
1

>  <r_epik_Ionization_Penalty>  (313) 
3.67705e-05

>  <r_epik_Ionization_Penalty_Charging>  (313) 
0

>  <r_epik_Ionization_Penalty_Neutral>  (313) 
3.67705e-05

>  <r_epik_State_Penalty>  (313) 
-0

>  <r_epik_Charging_Adjusted_Penalty>  (313) 
0

>  <i_epik_Tot_Q>  (313) 
0

>  <i_epik_Tot_abs_Q>  (313) 
0

>  <s_epik_Chemistry_Notes>  (313) 
This compound has an imine and may undergo hydrolysis.

>  <s_lp_Force_Field>  (313) 
OPLS3e

>  <r_lp_Energy>  (313) 
45.9405

>  <b_lp_Chiralities_Consistent>  (313) 
1

>  <s_lp_Variant>  (313) 
78:0-2

>  <s_i_glide_gridfile>  (313) 
pfpi4k_grid

>  <i_i_glide_lignum>  (313) 
37

>  <i_i_glide_rotatable_bonds>  (313) 
4

>  <r_i_docking_score>  (313) 
-2.90735

>  <r_i_glide_ligand_efficiency>  (313) 
-0.100254

>  <r_i_glide_ligand_efficiency_sa>  (313) 
-0.308011

>  <r_i_glide_ligand_efficiency_ln>  (313) 
-0.665711

>  <r_i_glide_gscore>  (313) 
-2.90735

>  <r_i_glide_lipo>  (313) 
-0.271629

>  <r_i_glide_hbond>  (313) 
-0.32

>  <r_i_glide_metal>  (313) 
-0

>  <r_i_glide_rewards>  (313) 
-0.695784

>  <r_i_glide_evdw>  (313) 
-25.0309

>  <r_i_glide_ecoul>  (313) 
-5.18256

>  <r_i_glide_erotb>  (313) 
0.488773

>  <r_i_glide_esite>  (313) 
-0.0797834

>  <r_i_glide_emodel>  (313) 
-35.8501

>  <r_i_glide_energy>  (313) 
-30.2135

>  <r_i_glide_einternal>  (313) 
2.45375

>  <r_i_glide_intrahb_reward>  (313) 
-0

>  <i_i_glide_confnum>  (313) 
2

>  <i_i_glide_posenum>  (313) 
29

>  <r_i_glide_eff_state_penalty>  (313) 
0

>  <ligand_id>  (313) 
78

>  <original_smiles>  (313) 
CC1C(OCc2nncn2C)CC2CCC3C4CCC(=NO)C4(C)CCC3C21C

>  <smiles>  (313) 
[H]ON=C1C([H])([H])C([H])([H])C2([H])C3([H])C([H])([H])C([H])([H])C4([H])C([H])([H])C([H])(OC([H])([H])c5nnc([H])n5C([H])([H])[H])C([H])(C([H])([H])[H])C4(C([H])([H])[H])C3([H])C([H])([H])C([H])([H])C12C([H])([H])[H]

$$$$
78:1:2
     RDKit          3D

 65 69  0  0  1  0  0  0  0  0999 V2000
    6.3650   -5.5150    1.9725 C   0  0  0  0  0  0  0  0  0  0  0  0
    4.9269   -4.9534    2.0599 C   0  0  2  0  0  0  0  0  0  0  0  0
    4.8723   -3.4693    1.6172 C   0  0  1  0  0  0  0  0  0  0  0  0
    4.1687   -3.2841    0.3972 O   0  0  0  0  0  0  0  0  0  0  0  0
    4.9001   -3.4871   -0.8036 C   0  0  0  0  0  0  0  0  0  0  0  0
    4.3861   -2.4962   -1.7785 C   0  0  0  0  0  0  0  0  0  0  0  0
    5.1523   -1.5147   -2.2944 N   0  0  0  0  0  0  0  0  0  0  0  0
    4.3393   -0.8138   -3.1449 N   0  0  0  0  0  0  0  0  0  0  0  0
    3.1561   -1.4248   -3.0684 C   0  0  0  0  0  0  0  0  0  0  0  0
    3.1153   -2.4653   -2.2280 N   0  0  0  0  0  0  0  0  0  0  0  0
    1.9735   -3.2846   -1.8971 C   0  0  0  0  0  0  0  0  0  0  0  0
    4.0610   -2.7296    2.6823 C   0  0  0  0  0  0  0  0  0  0  0  0
    3.2678   -3.8077    3.4206 C   0  0  1  0  0  0  0  0  0  0  0  0
    1.9531   -4.0692    2.6688 C   0  0  0  0  0  0  0  0  0  0  0  0
    1.2286   -5.2946    3.2041 C   0  0  0  0  0  0  0  0  0  0  0  0
    2.1116   -6.5308    3.0141 C   0  0  2  0  0  0  0  0  0  0  0  0
    1.3491   -7.8320    3.3742 C   0  0  2  0  0  0  0  0  0  0  0  0
    0.6147   -7.8389    4.7180 C   0  0  0  0  0  0  0  0  0  0  0  0
    0.2397   -9.2975    4.9021 C   0  0  0  0  0  0  0  0  0  0  0  0
    1.3156  -10.0916    4.2169 C   0  0  0  0  0  0  0  0  0  0  0  0
    1.3980  -11.3421    4.3871 N   0  0  0  0  0  0  0  0  0  0  0  0
    2.4980  -11.8745    3.6699 O   0  0  0  0  0  0  0  0  0  0  0  0
    2.1840   -9.1382    3.3579 C   0  0  1  0  0  0  0  0  0  0  0  0
    2.3597   -9.6325    1.9047 C   0  0  0  0  0  0  0  0  0  0  0  0
    3.5582   -8.9166    4.0343 C   0  0  0  0  0  0  0  0  0  0  0  0
    4.2890   -7.6567    3.5370 C   0  0  0  0  0  0  0  0  0  0  0  0
    3.4582   -6.3736    3.7593 C   0  0  1  0  0  0  0  0  0  0  0  0
    4.2270   -5.0314    3.4573 C   0  0  1  0  0  0  0  0  0  0  0  0
    5.2317   -4.7898    4.6192 C   0  0  0  0  0  0  0  0  0  0  0  0
    7.0657   -4.9526    2.5866 H   0  0  0  0  0  0  0  0  0  0  0  0
    6.7323   -5.4655    0.9480 H   0  0  0  0  0  0  0  0  0  0  0  0
    6.4328   -6.5538    2.2877 H   0  0  0  0  0  0  0  0  0  0  0  0
    4.3236   -5.5228    1.3543 H   0  0  0  0  0  0  0  0  0  0  0  0
    5.8604   -3.0090    1.5735 H   0  0  0  0  0  0  0  0  0  0  0  0
    5.9761   -3.3035   -0.6909 H   0  0  0  0  0  0  0  0  0  0  0  0
    4.7626   -4.5066   -1.1787 H   0  0  0  0  0  0  0  0  0  0  0  0
    2.3163   -1.0905   -3.6369 H   0  0  0  0  0  0  0  0  0  0  0  0
    1.0708   -2.8394   -2.3045 H   0  0  0  0  0  0  0  0  0  0  0  0
    1.8853   -3.3809   -0.8175 H   0  0  0  0  0  0  0  0  0  0  0  0
    2.0798   -4.2529   -2.3624 H   0  0  0  0  0  0  0  0  0  0  0  0
    4.7486   -2.2449    3.3701 H   0  0  0  0  0  0  0  0  0  0  0  0
    3.4422   -1.9307    2.2592 H   0  0  0  0  0  0  0  0  0  0  0  0
    3.0212   -3.4609    4.4274 H   0  0  0  0  0  0  0  0  0  0  0  0
    1.3081   -3.1964    2.7654 H   0  0  0  0  0  0  0  0  0  0  0  0
    2.1448   -4.2014    1.6016 H   0  0  0  0  0  0  0  0  0  0  0  0
    1.0009   -5.1313    4.2571 H   0  0  0  0  0  0  0  0  0  0  0  0
    0.2805   -5.4357    2.6823 H   0  0  0  0  0  0  0  0  0  0  0  0
    2.3314   -6.5958    1.9531 H   0  0  0  0  0  0  0  0  0  0  0  0
    0.5715   -7.9515    2.6178 H   0  0  0  0  0  0  0  0  0  0  0  0
    1.2832   -7.5282    5.5212 H   0  0  0  0  0  0  0  0  0  0  0  0
   -0.2666   -7.1909    4.7295 H   0  0  0  0  0  0  0  0  0  0  0  0
    0.1456   -9.5884    5.9503 H   0  0  0  0  0  0  0  0  0  0  0  0
   -0.7029   -9.4870    4.3929 H   0  0  0  0  0  0  0  0  0  0  0  0
    2.2775  -12.8004    3.6521 H   0  0  0  0  0  0  0  0  0  0  0  0
    2.7399   -8.8444    1.2606 H   0  0  0  0  0  0  0  0  0  0  0  0
    1.4137   -9.9598    1.4846 H   0  0  0  0  0  0  0  0  0  0  0  0
    3.0546  -10.4672    1.8229 H   0  0  0  0  0  0  0  0  0  0  0  0
    3.4358   -8.8417    5.1155 H   0  0  0  0  0  0  0  0  0  0  0  0
    4.1957   -9.7861    3.8652 H   0  0  0  0  0  0  0  0  0  0  0  0
    5.2466   -7.5859    4.0555 H   0  0  0  0  0  0  0  0  0  0  0  0
    4.5026   -7.7733    2.4754 H   0  0  0  0  0  0  0  0  0  0  0  0
    3.2178   -6.3456    4.8182 H   0  0  0  0  0  0  0  0  0  0  0  0
    4.7145   -4.6960    5.5760 H   0  0  0  0  0  0  0  0  0  0  0  0
    5.8133   -3.8769    4.4863 H   0  0  0  0  0  0  0  0  0  0  0  0
    5.9492   -5.6029    4.7318 H   0  0  0  0  0  0  0  0  0  0  0  0
  1  2  1  0
  1 30  1  0
  1 31  1  0
  1 32  1  0
  2 28  1  0
  2  3  1  0
  2 33  1  6
  3  4  1  0
  3 12  1  0
  3 34  1  6
  4  5  1  0
  5  6  1  0
  5 35  1  0
  5 36  1  0
  6 10  1  0
  6  7  2  0
  7  8  1  0
  8  9  2  0
  9 10  1  0
  9 37  1  0
 10 11  1  0
 11 38  1  0
 11 39  1  0
 11 40  1  0
 12 13  1  0
 12 41  1  0
 12 42  1  0
 13 28  1  0
 13 14  1  0
 13 43  1  1
 14 15  1  0
 14 44  1  0
 14 45  1  0
 15 16  1  0
 15 46  1  0
 15 47  1  0
 16 27  1  0
 16 17  1  0
 16 48  1  6
 17 23  1  0
 17 18  1  0
 17 49  1  6
 18 19  1  0
 18 50  1  0
 18 51  1  0
 19 20  1  0
 19 52  1  0
 19 53  1  0
 20 21  2  3
 20 23  1  0
 21 22  1  0
 22 54  1  0
 23 24  1  6
 23 25  1  0
 24 55  1  0
 24 56  1  0
 24 57  1  0
 25 26  1  0
 25 58  1  0
 25 59  1  0
 26 27  1  0
 26 60  1  0
 26 61  1  0
 27 28  1  0
 27 62  1  1
 28 29  1  1
 29 63  1  0
 29 64  1  0
 29 65  1  0
M  END
>  <i_m_ct_stereo_status>  (314) 
1

>  <s_m_source_file>  (314) 
/var/tmp/pbs.5076255.sched01/tmppdndq9e4/92von5zo7h.sdf

>  <i_m_source_file_index>  (314) 
37

>  <i_lp_mmshare_version>  (314) 
48012

>  <i_f3d_flags>  (314) 
0

>  <s_epik_input>  (314) 
W0NIM11uMVtjSF1ubmMxW0NIMl1PW0NASF0oW0NASF0yW0NIM10pW0NIMl1bQ0BASF0oW0NIMl1bQ0gyXTMpW0NAQF0yKFtDSDNdKVtDQEhdKFtDSDJdW0NIMl00KVtDQEhdM1tDQEBIXShbQ0BAXTQ1W0NIM10pW0NIMl1bQ0gyXS9DNT1OXFtPSF0=

>  <s_epik_cmdline>  (314) 
J2VwaWtfcHl0aG9uJywgJy1waHQnLCAnMi4wJywgJy1waCcsICc3LjAnLCAnLXRuJywgJzgnLCAnLW1hJywgJzIwMCcsICctaW1hZScsICc8aW5maWxlLm1hZT4nLCAnLW9tYWUnLCAnPG91dGZpbGUubWFlPic=

>  <r_lp_tautomer_probability>  (314) 
1

>  <r_epik_Ionization_Penalty>  (314) 
3.67705e-05

>  <r_epik_Ionization_Penalty_Charging>  (314) 
0

>  <r_epik_Ionization_Penalty_Neutral>  (314) 
3.67705e-05

>  <r_epik_State_Penalty>  (314) 
-0

>  <r_epik_Charging_Adjusted_Penalty>  (314) 
0

>  <i_epik_Tot_Q>  (314) 
0

>  <i_epik_Tot_abs_Q>  (314) 
0

>  <s_epik_Chemistry_Notes>  (314) 
This compound has an imine and may undergo hydrolysis.

>  <s_lp_Force_Field>  (314) 
OPLS3e

>  <r_lp_Energy>  (314) 
45.9405

>  <b_lp_Chiralities_Consistent>  (314) 
1

>  <s_lp_Variant>  (314) 
78:0-2

>  <s_i_glide_gridfile>  (314) 
pfpi4k_grid

>  <i_i_glide_lignum>  (314) 
37

>  <i_i_glide_rotatable_bonds>  (314) 
4

>  <r_i_docking_score>  (314) 
-2.89892

>  <r_i_glide_ligand_efficiency>  (314) 
-0.0999626

>  <r_i_glide_ligand_efficiency_sa>  (314) 
-0.307117

>  <r_i_glide_ligand_efficiency_ln>  (314) 
-0.663778

>  <r_i_glide_gscore>  (314) 
-2.89892

>  <r_i_glide_lipo>  (314) 
-0.28935

>  <r_i_glide_hbond>  (314) 
-0.32

>  <r_i_glide_metal>  (314) 
-0

>  <r_i_glide_rewards>  (314) 
-0.678017

>  <r_i_glide_evdw>  (314) 
-24.8773

>  <r_i_glide_ecoul>  (314) 
-4.75381

>  <r_i_glide_erotb>  (314) 
0.488773

>  <r_i_glide_esite>  (314) 
-0.143388

>  <r_i_glide_emodel>  (314) 
-35.0821

>  <r_i_glide_energy>  (314) 
-29.6311

>  <r_i_glide_einternal>  (314) 
2.64117

>  <r_i_glide_intrahb_reward>  (314) 
-0

>  <i_i_glide_confnum>  (314) 
1

>  <i_i_glide_posenum>  (314) 
18

>  <r_i_glide_eff_state_penalty>  (314) 
0

>  <ligand_id>  (314) 
78

>  <original_smiles>  (314) 
CC1C(OCc2nncn2C)CC2CCC3C4CCC(=NO)C4(C)CCC3C21C

>  <smiles>  (314) 
[H]ON=C1C([H])([H])C([H])([H])C2([H])C3([H])C([H])([H])C([H])([H])C4([H])C([H])([H])C([H])(OC([H])([H])c5nnc([H])n5C([H])([H])[H])C([H])(C([H])([H])[H])C4(C([H])([H])[H])C3([H])C([H])([H])C([H])([H])C12C([H])([H])[H]

$$$$
79:0:0
     RDKit          3D

 34 34  0  0  1  0  0  0  0  0999 V2000
   -0.0618   -9.1076    2.5075 C   0  0  0  0  0  0  0  0  0  0  0  0
    0.4640   -7.7497    3.0013 C   0  0  0  0  0  0  0  0  0  0  0  0
   -0.6349   -6.9406    3.7155 C   0  0  0  0  0  0  0  0  0  0  0  0
    1.1383   -6.9588    1.9054 C   0  0  0  0  0  0  0  0  0  0  0  0
    0.4616   -6.5224    0.8526 N   0  0  0  0  0  0  0  0  0  0  0  0
    1.4293   -5.8565    0.0794 O   0  0  0  0  0  0  0  0  0  0  0  0
    2.5915   -5.9414    0.7750 C   0  0  0  0  0  0  0  0  0  0  0  0
    3.8746   -5.3726    0.2169 C   0  0  0  0  0  0  0  0  0  0  0  0
    3.5449   -4.2259   -0.6869 N   0  0  1  0  0  0  0  0  0  0  0  0
    2.9989   -3.0436    0.0403 C   0  0  0  0  0  0  0  0  0  0  0  0
    4.6769   -3.8884   -1.6173 C   0  0  0  0  0  0  0  0  0  0  0  0
    5.9117   -3.3019   -0.9029 C   0  0  0  0  0  0  0  0  0  0  0  0
    4.2462   -2.9843   -2.7960 C   0  0  0  0  0  0  0  0  0  0  0  0
    2.4619   -6.6045    1.9266 N   0  0  0  0  0  0  0  0  0  0  0  0
    0.7395   -9.7082    2.0787 H   0  0  0  0  0  0  0  0  0  0  0  0
   -0.8298   -8.9821    1.7435 H   0  0  0  0  0  0  0  0  0  0  0  0
   -0.5075   -9.6889    3.3183 H   0  0  0  0  0  0  0  0  0  0  0  0
    1.2233   -7.9708    3.7584 H   0  0  0  0  0  0  0  0  0  0  0  0
   -0.2385   -6.0196    4.1389 H   0  0  0  0  0  0  0  0  0  0  0  0
   -1.0808   -7.5085    4.5327 H   0  0  0  0  0  0  0  0  0  0  0  0
   -1.4445   -6.6831    3.0341 H   0  0  0  0  0  0  0  0  0  0  0  0
    4.5154   -5.0567    1.0402 H   0  0  0  0  0  0  0  0  0  0  0  0
    4.3944   -6.1696   -0.3190 H   0  0  0  0  0  0  0  0  0  0  0  0
    3.7511   -2.5671    0.6672 H   0  0  0  0  0  0  0  0  0  0  0  0
    2.1806   -3.3198    0.7060 H   0  0  0  0  0  0  0  0  0  0  0  0
    2.6159   -2.2934   -0.6509 H   0  0  0  0  0  0  0  0  0  0  0  0
    5.0113   -4.8200   -2.0875 H   0  0  0  0  0  0  0  0  0  0  0  0
    6.6814   -3.0491   -1.6318 H   0  0  0  0  0  0  0  0  0  0  0  0
    6.3491   -4.0217   -0.2049 H   0  0  0  0  0  0  0  0  0  0  0  0
    5.6901   -2.3817   -0.3569 H   0  0  0  0  0  0  0  0  0  0  0  0
    5.1244   -2.6982   -3.3747 H   0  0  0  0  0  0  0  0  0  0  0  0
    3.7734   -2.0538   -2.4774 H   0  0  0  0  0  0  0  0  0  0  0  0
    3.5610   -3.5050   -3.4699 H   0  0  0  0  0  0  0  0  0  0  0  0
    2.8242   -4.5917   -1.3001 H   0  0  0  0  0  0  0  0  0  0  0  0
  1  2  1  0
  1 15  1  0
  1 16  1  0
  1 17  1  0
  2  3  1  0
  2  4  1  0
  2 18  1  0
  3 19  1  0
  3 20  1  0
  3 21  1  0
  4 14  1  0
  4  5  2  0
  5  6  1  0
  6  7  1  0
  7  8  1  0
  7 14  2  0
  8  9  1  0
  8 22  1  0
  8 23  1  0
  9 10  1  0
  9 11  1  0
  9 34  1  6
 10 24  1  0
 10 25  1  0
 10 26  1  0
 11 12  1  0
 11 13  1  0
 11 27  1  0
 12 28  1  0
 12 29  1  0
 12 30  1  0
 13 31  1  0
 13 32  1  0
 13 33  1  0
M  CHG  1   9   1
M  END
>  <i_m_ct_stereo_status>  (315) 
1

>  <s_m_source_file>  (315) 
/var/tmp/pbs.5076255.sched01/tmppdndq9e4/92von5zo7h.sdf

>  <i_m_source_file_index>  (315) 
38

>  <i_lp_mmshare_version>  (315) 
48012

>  <i_f3d_flags>  (315) 
0

>  <s_epik_input>  (315) 
W0NIM11bQ0hdKFtDSDNdKWMxbm9jKG4xKVtDSDJdTihbQ0gzXSlbQ0hdKFtDSDNdKVtDSDNd

>  <s_epik_cmdline>  (315) 
J2VwaWtfcHl0aG9uJywgJy1waHQnLCAnMi4wJywgJy1waCcsICc3LjAnLCAnLXRuJywgJzgnLCAnLW1hJywgJzIwMCcsICctaW1hZScsICc8aW5maWxlLm1hZT4nLCAnLW9tYWUnLCAnPG91dGZpbGUubWFlPic=

>  <r_lp_tautomer_probability>  (315) 
1

>  <r_epik_Ionization_Penalty>  (315) 
0.00242543

>  <r_epik_Ionization_Penalty_Charging>  (315) 
0.00242543

>  <r_epik_Ionization_Penalty_Neutral>  (315) 
2.57328e-13

>  <r_epik_State_Penalty>  (315) 
0.00167858

>  <r_epik_Charging_Adjusted_Penalty>  (315) 
0.00410401

>  <i_epik_Tot_Q>  (315) 
1

>  <i_epik_Tot_abs_Q>  (315) 
1

>  <s_lp_Force_Field>  (315) 
OPLS3e

>  <r_lp_Energy>  (315) 
14.9527

>  <b_lp_Chiralities_Consistent>  (315) 
1

>  <s_lp_Variant>  (315) 
79:0-1

>  <s_i_glide_gridfile>  (315) 
pfpi4k_grid

>  <i_i_glide_lignum>  (315) 
38

>  <i_i_glide_rotatable_bonds>  (315) 
4

>  <r_i_docking_score>  (315) 
-3.79246

>  <r_i_glide_ligand_efficiency>  (315) 
-0.27089

>  <r_i_glide_ligand_efficiency_sa>  (315) 
-0.652883

>  <r_i_glide_ligand_efficiency_ln>  (315) 
-1.04215

>  <r_i_glide_gscore>  (315) 
-3.79246

>  <r_i_glide_lipo>  (315) 
-0.122123

>  <r_i_glide_hbond>  (315) 
0

>  <r_i_glide_metal>  (315) 
-0

>  <r_i_glide_rewards>  (315) 
-2.05715

>  <r_i_glide_evdw>  (315) 
-16.9049

>  <r_i_glide_ecoul>  (315) 
-8.75269

>  <r_i_glide_erotb>  (315) 
0.828464

>  <r_i_glide_esite>  (315) 
-0.283506

>  <r_i_glide_emodel>  (315) 
-33.2394

>  <r_i_glide_energy>  (315) 
-25.6575

>  <r_i_glide_einternal>  (315) 
1.33679

>  <r_i_glide_intrahb_reward>  (315) 
-0

>  <i_i_glide_confnum>  (315) 
1

>  <i_i_glide_posenum>  (315) 
24

>  <r_i_glide_eff_state_penalty>  (315) 
0

>  <ligand_id>  (315) 
79

>  <original_smiles>  (315) 
CC(C)c1noc(CN(C)C(C)C)n1

>  <smiles>  (315) 
[H]C([H])([H])C([H])(c1noc(C([H])([H])[N+]([H])(C([H])([H])[H])C([H])(C([H])([H])[H])C([H])([H])[H])n1)C([H])([H])[H]

$$$$
79:0:1
     RDKit          3D

 34 34  0  0  1  0  0  0  0  0999 V2000
    0.7837   -8.9278    2.4745 C   0  0  0  0  0  0  0  0  0  0  0  0
    1.4847   -7.6425    2.9425 C   0  0  0  0  0  0  0  0  0  0  0  0
    0.6449   -6.8774    3.9804 C   0  0  0  0  0  0  0  0  0  0  0  0
    1.9119   -6.7651    1.7917 C   0  0  0  0  0  0  0  0  0  0  0  0
    1.0200   -6.2568    0.9487 N   0  0  0  0  0  0  0  0  0  0  0  0
    1.8029   -5.4709    0.0774 O   0  0  0  0  0  0  0  0  0  0  0  0
    3.0894   -5.6327    0.4746 C   0  0  0  0  0  0  0  0  0  0  0  0
    4.2218   -5.0207   -0.3157 C   0  0  0  0  0  0  0  0  0  0  0  0
    3.6971   -3.8470   -1.0852 N   0  0  1  0  0  0  0  0  0  0  0  0
    3.3661   -2.6869   -0.2124 C   0  0  0  0  0  0  0  0  0  0  0  0
    4.5641   -3.4892   -2.2589 C   0  0  0  0  0  0  0  0  0  0  0  0
    5.9704   -2.9996   -1.8554 C   0  0  0  0  0  0  0  0  0  0  0  0
    3.8982   -2.4925   -3.2389 C   0  0  0  0  0  0  0  0  0  0  0  0
    3.2086   -6.4055    1.5516 N   0  0  0  0  0  0  0  0  0  0  0  0
    1.4196   -9.5031    1.8029 H   0  0  0  0  0  0  0  0  0  0  0  0
   -0.1422   -8.7022    1.9447 H   0  0  0  0  0  0  0  0  0  0  0  0
    0.5236   -9.5766    3.3136 H   0  0  0  0  0  0  0  0  0  0  0  0
    2.3976   -7.9612    3.4579 H   0  0  0  0  0  0  0  0  0  0  0  0
    1.1859   -6.0187    4.3715 H   0  0  0  0  0  0  0  0  0  0  0  0
    0.3850   -7.5119    4.8270 H   0  0  0  0  0  0  0  0  0  0  0  0
   -0.2884   -6.5178    3.5489 H   0  0  0  0  0  0  0  0  0  0  0  0
    5.0214   -4.7274    0.3661 H   0  0  0  0  0  0  0  0  0  0  0  0
    4.6276   -5.7833   -0.9809 H   0  0  0  0  0  0  0  0  0  0  0  0
    4.2619   -2.2347    0.2180 H   0  0  0  0  0  0  0  0  0  0  0  0
    2.7306   -2.9830    0.6260 H   0  0  0  0  0  0  0  0  0  0  0  0
    2.8310   -1.9098   -0.7629 H   0  0  0  0  0  0  0  0  0  0  0  0
    4.7113   -4.3986   -2.8480 H   0  0  0  0  0  0  0  0  0  0  0  0
    6.5431   -2.7288   -2.7424 H   0  0  0  0  0  0  0  0  0  0  0  0
    6.5306   -3.7805   -1.3326 H   0  0  0  0  0  0  0  0  0  0  0  0
    5.9440   -2.1104   -1.2205 H   0  0  0  0  0  0  0  0  0  0  0  0
    4.6160   -2.2026   -4.0064 H   0  0  0  0  0  0  0  0  0  0  0  0
    3.5785   -1.5615   -2.7674 H   0  0  0  0  0  0  0  0  0  0  0  0
    3.0346   -2.9384   -3.7398 H   0  0  0  0  0  0  0  0  0  0  0  0
    2.8355   -4.1852   -1.5018 H   0  0  0  0  0  0  0  0  0  0  0  0
  1  2  1  0
  1 15  1  0
  1 16  1  0
  1 17  1  0
  2  3  1  0
  2  4  1  0
  2 18  1  0
  3 19  1  0
  3 20  1  0
  3 21  1  0
  4 14  1  0
  4  5  2  0
  5  6  1  0
  6  7  1  0
  7  8  1  0
  7 14  2  0
  8  9  1  0
  8 22  1  0
  8 23  1  0
  9 10  1  0
  9 11  1  0
  9 34  1  6
 10 24  1  0
 10 25  1  0
 10 26  1  0
 11 12  1  0
 11 13  1  0
 11 27  1  0
 12 28  1  0
 12 29  1  0
 12 30  1  0
 13 31  1  0
 13 32  1  0
 13 33  1  0
M  CHG  1   9   1
M  END
>  <i_m_ct_stereo_status>  (316) 
1

>  <s_m_source_file>  (316) 
/var/tmp/pbs.5076255.sched01/tmppdndq9e4/92von5zo7h.sdf

>  <i_m_source_file_index>  (316) 
38

>  <i_lp_mmshare_version>  (316) 
48012

>  <i_f3d_flags>  (316) 
0

>  <s_epik_input>  (316) 
W0NIM11bQ0hdKFtDSDNdKWMxbm9jKG4xKVtDSDJdTihbQ0gzXSlbQ0hdKFtDSDNdKVtDSDNd

>  <s_epik_cmdline>  (316) 
J2VwaWtfcHl0aG9uJywgJy1waHQnLCAnMi4wJywgJy1waCcsICc3LjAnLCAnLXRuJywgJzgnLCAnLW1hJywgJzIwMCcsICctaW1hZScsICc8aW5maWxlLm1hZT4nLCAnLW9tYWUnLCAnPG91dGZpbGUubWFlPic=

>  <r_lp_tautomer_probability>  (316) 
1

>  <r_epik_Ionization_Penalty>  (316) 
0.00242543

>  <r_epik_Ionization_Penalty_Charging>  (316) 
0.00242543

>  <r_epik_Ionization_Penalty_Neutral>  (316) 
2.57328e-13

>  <r_epik_State_Penalty>  (316) 
0.00167858

>  <r_epik_Charging_Adjusted_Penalty>  (316) 
0.00410401

>  <i_epik_Tot_Q>  (316) 
1

>  <i_epik_Tot_abs_Q>  (316) 
1

>  <s_lp_Force_Field>  (316) 
OPLS3e

>  <r_lp_Energy>  (316) 
14.9527

>  <b_lp_Chiralities_Consistent>  (316) 
1

>  <s_lp_Variant>  (316) 
79:0-1

>  <s_i_glide_gridfile>  (316) 
pfpi4k_grid

>  <i_i_glide_lignum>  (316) 
38

>  <i_i_glide_rotatable_bonds>  (316) 
4

>  <r_i_docking_score>  (316) 
-3.76101

>  <r_i_glide_ligand_efficiency>  (316) 
-0.268644

>  <r_i_glide_ligand_efficiency_sa>  (316) 
-0.64747

>  <r_i_glide_ligand_efficiency_ln>  (316) 
-1.03351

>  <r_i_glide_gscore>  (316) 
-3.76101

>  <r_i_glide_lipo>  (316) 
-0.239407

>  <r_i_glide_hbond>  (316) 
0

>  <r_i_glide_metal>  (316) 
-0

>  <r_i_glide_rewards>  (316) 
-2.05715

>  <r_i_glide_evdw>  (316) 
-16.2661

>  <r_i_glide_ecoul>  (316) 
-8.26611

>  <r_i_glide_erotb>  (316) 
0.828464

>  <r_i_glide_esite>  (316) 
-0.239704

>  <r_i_glide_emodel>  (316) 
-31.896

>  <r_i_glide_energy>  (316) 
-24.5322

>  <r_i_glide_einternal>  (316) 
1.5204

>  <r_i_glide_intrahb_reward>  (316) 
-0

>  <i_i_glide_confnum>  (316) 
1

>  <i_i_glide_posenum>  (316) 
10

>  <r_i_glide_eff_state_penalty>  (316) 
0

>  <ligand_id>  (316) 
79

>  <original_smiles>  (316) 
CC(C)c1noc(CN(C)C(C)C)n1

>  <smiles>  (316) 
[H]C([H])([H])C([H])(c1noc(C([H])([H])[N+]([H])(C([H])([H])[H])C([H])(C([H])([H])[H])C([H])([H])[H])n1)C([H])([H])[H]

$$$$
79:0:2
     RDKit          3D

 34 34  0  0  1  0  0  0  0  0999 V2000
    0.9604   -8.9561    2.3489 C   0  0  0  0  0  0  0  0  0  0  0  0
    1.5502   -7.6282    2.8564 C   0  0  0  0  0  0  0  0  0  0  0  0
    0.6284   -6.9539    3.8881 C   0  0  0  0  0  0  0  0  0  0  0  0
    1.9289   -6.6991    1.7365 C   0  0  0  0  0  0  0  0  0  0  0  0
    1.0226   -6.2546    0.8723 N   0  0  0  0  0  0  0  0  0  0  0  0
    1.7648   -5.4402    0.0080 O   0  0  0  0  0  0  0  0  0  0  0  0
    3.0376   -5.4483    0.4723 C   0  0  0  0  0  0  0  0  0  0  0  0
    4.1223   -4.7044   -0.2661 C   0  0  0  0  0  0  0  0  0  0  0  0
    3.5545   -3.4057   -0.7713 N   0  0  1  0  0  0  0  0  0  0  0  0
    3.2494   -2.4733    0.3522 C   0  0  0  0  0  0  0  0  0  0  0  0
    4.4197   -2.7762   -1.8300 C   0  0  0  0  0  0  0  0  0  0  0  0
    3.9930   -1.3364   -2.2042 C   0  0  0  0  0  0  0  0  0  0  0  0
    4.4788   -3.6196   -3.1211 C   0  0  0  0  0  0  0  0  0  0  0  0
    3.1955   -6.2120    1.5523 N   0  0  0  0  0  0  0  0  0  0  0  0
    1.6535   -9.4664    1.6804 H   0  0  0  0  0  0  0  0  0  0  0  0
    0.0317   -8.7874    1.8026 H   0  0  0  0  0  0  0  0  0  0  0  0
    0.7348   -9.6414    3.1687 H   0  0  0  0  0  0  0  0  0  0  0  0
    2.4693   -7.8872    3.3849 H   0  0  0  0  0  0  0  0  0  0  0  0
    1.0923   -6.0633    4.3093 H   0  0  0  0  0  0  0  0  0  0  0  0
    0.4003   -7.6262    4.7166 H   0  0  0  0  0  0  0  0  0  0  0  0
   -0.3213   -6.6614    3.4413 H   0  0  0  0  0  0  0  0  0  0  0  0
    4.9716   -4.5329    0.3971 H   0  0  0  0  0  0  0  0  0  0  0  0
    4.4798   -5.3491   -1.0670 H   0  0  0  0  0  0  0  0  0  0  0  0
    4.1653   -2.1089    0.8215 H   0  0  0  0  0  0  0  0  0  0  0  0
    2.6398   -2.9438    1.1241 H   0  0  0  0  0  0  0  0  0  0  0  0
    2.6783   -1.6054    0.0221 H   0  0  0  0  0  0  0  0  0  0  0  0
    5.4345   -2.7015   -1.4380 H   0  0  0  0  0  0  0  0  0  0  0  0
    4.5850   -0.9588   -3.0380 H   0  0  0  0  0  0  0  0  0  0  0  0
    4.1521   -0.6320   -1.3855 H   0  0  0  0  0  0  0  0  0  0  0  0
    2.9419   -1.2898   -2.4983 H   0  0  0  0  0  0  0  0  0  0  0  0
    5.0112   -3.0759   -3.9008 H   0  0  0  0  0  0  0  0  0  0  0  0
    3.4800   -3.8516   -3.4958 H   0  0  0  0  0  0  0  0  0  0  0  0
    5.0149   -4.5592   -2.9883 H   0  0  0  0  0  0  0  0  0  0  0  0
    2.6729   -3.6252   -1.2217 H   0  0  0  0  0  0  0  0  0  0  0  0
  1  2  1  0
  1 15  1  0
  1 16  1  0
  1 17  1  0
  2  3  1  0
  2  4  1  0
  2 18  1  0
  3 19  1  0
  3 20  1  0
  3 21  1  0
  4 14  1  0
  4  5  2  0
  5  6  1  0
  6  7  1  0
  7  8  1  0
  7 14  2  0
  8  9  1  0
  8 22  1  0
  8 23  1  0
  9 10  1  0
  9 11  1  0
  9 34  1  6
 10 24  1  0
 10 25  1  0
 10 26  1  0
 11 12  1  0
 11 13  1  0
 11 27  1  0
 12 28  1  0
 12 29  1  0
 12 30  1  0
 13 31  1  0
 13 32  1  0
 13 33  1  0
M  CHG  1   9   1
M  END
>  <i_m_ct_stereo_status>  (317) 
1

>  <s_m_source_file>  (317) 
/var/tmp/pbs.5076255.sched01/tmppdndq9e4/92von5zo7h.sdf

>  <i_m_source_file_index>  (317) 
38

>  <i_lp_mmshare_version>  (317) 
48012

>  <i_f3d_flags>  (317) 
0

>  <s_epik_input>  (317) 
W0NIM11bQ0hdKFtDSDNdKWMxbm9jKG4xKVtDSDJdTihbQ0gzXSlbQ0hdKFtDSDNdKVtDSDNd

>  <s_epik_cmdline>  (317) 
J2VwaWtfcHl0aG9uJywgJy1waHQnLCAnMi4wJywgJy1waCcsICc3LjAnLCAnLXRuJywgJzgnLCAnLW1hJywgJzIwMCcsICctaW1hZScsICc8aW5maWxlLm1hZT4nLCAnLW9tYWUnLCAnPG91dGZpbGUubWFlPic=

>  <r_lp_tautomer_probability>  (317) 
1

>  <r_epik_Ionization_Penalty>  (317) 
0.00242543

>  <r_epik_Ionization_Penalty_Charging>  (317) 
0.00242543

>  <r_epik_Ionization_Penalty_Neutral>  (317) 
2.57328e-13

>  <r_epik_State_Penalty>  (317) 
0.00167858

>  <r_epik_Charging_Adjusted_Penalty>  (317) 
0.00410401

>  <i_epik_Tot_Q>  (317) 
1

>  <i_epik_Tot_abs_Q>  (317) 
1

>  <s_lp_Force_Field>  (317) 
OPLS3e

>  <r_lp_Energy>  (317) 
14.9527

>  <b_lp_Chiralities_Consistent>  (317) 
1

>  <s_lp_Variant>  (317) 
79:0-1

>  <s_i_glide_gridfile>  (317) 
pfpi4k_grid

>  <i_i_glide_lignum>  (317) 
38

>  <i_i_glide_rotatable_bonds>  (317) 
4

>  <r_i_docking_score>  (317) 
-3.44809

>  <r_i_glide_ligand_efficiency>  (317) 
-0.246292

>  <r_i_glide_ligand_efficiency_sa>  (317) 
-0.593599

>  <r_i_glide_ligand_efficiency_ln>  (317) 
-0.947523

>  <r_i_glide_gscore>  (317) 
-3.44809

>  <r_i_glide_lipo>  (317) 
-0.0339285

>  <r_i_glide_hbond>  (317) 
0

>  <r_i_glide_metal>  (317) 
-0

>  <r_i_glide_rewards>  (317) 
-2.05715

>  <r_i_glide_evdw>  (317) 
-15.8197

>  <r_i_glide_ecoul>  (317) 
-7.79023

>  <r_i_glide_erotb>  (317) 
0.828464

>  <r_i_glide_esite>  (317) 
-0.225961

>  <r_i_glide_emodel>  (317) 
-31.0491

>  <r_i_glide_energy>  (317) 
-23.6099

>  <r_i_glide_einternal>  (317) 
0.648138

>  <r_i_glide_intrahb_reward>  (317) 
-0

>  <i_i_glide_confnum>  (317) 
3

>  <i_i_glide_posenum>  (317) 
36

>  <r_i_glide_eff_state_penalty>  (317) 
0

>  <ligand_id>  (317) 
79

>  <original_smiles>  (317) 
CC(C)c1noc(CN(C)C(C)C)n1

>  <smiles>  (317) 
[H]C([H])([H])C([H])(c1noc(C([H])([H])[N+]([H])(C([H])([H])[H])C([H])(C([H])([H])[H])C([H])([H])[H])n1)C([H])([H])[H]

$$$$
82:0:0
     RDKit          3D

 38 41  0  0  1  0  0  0  0  0999 V2000
    8.5489   -2.4261   -0.4828 O   0  0  0  0  0  0  0  0  0  0  0  0
    7.3599   -2.6654   -0.3173 C   0  0  0  0  0  0  0  0  0  0  0  0
    6.7736   -2.5328    0.8839 N   0  0  0  0  0  0  0  0  0  0  0  0
    5.4263   -2.7621    1.1589 C   0  0  0  0  0  0  0  0  0  0  0  0
    5.0377   -2.5759    2.6124 C   0  0  0  0  0  0  0  0  0  0  0  0
    3.6950   -3.2465    2.9605 C   0  0  1  0  0  0  0  0  0  0  0  0
    3.1853   -2.8106    4.2950 C   0  0  0  0  0  0  0  0  0  0  0  0
    3.5711   -1.8494    5.1870 C   0  0  0  0  0  0  0  0  0  0  0  0
    2.6663   -1.9232    6.2826 C   0  0  0  0  0  0  0  0  0  0  0  0
    1.7934   -2.9271    5.9785 C   0  0  0  0  0  0  0  0  0  0  0  0
    2.0923   -3.4779    4.7688 O   0  0  0  0  0  0  0  0  0  0  0  0
    2.6448   -3.0062    1.8644 C   0  0  0  0  0  0  0  0  0  0  0  0
    3.1563   -3.3837    0.4753 C   0  0  0  0  0  0  0  0  0  0  0  0
    2.3656   -3.8976   -0.3142 O   0  0  0  0  0  0  0  0  0  0  0  0
    4.5857   -3.1214    0.1709 C   0  0  0  0  0  0  0  0  0  0  0  0
    5.1112   -3.2885   -1.2555 C   0  0  1  0  0  0  0  0  0  0  0  0
    4.3990   -2.3754   -2.2406 C   0  0  0  0  0  0  0  0  0  0  0  0
    3.3065   -2.8532   -2.9847 C   0  0  0  0  0  0  0  0  0  0  0  0
    2.6182   -1.9673   -3.8217 C   0  0  0  0  0  0  0  0  0  0  0  0
    3.0792   -0.6430   -3.9263 C   0  0  0  0  0  0  0  0  0  0  0  0
    4.1765   -0.2551   -3.1333 C   0  0  0  0  0  0  0  0  0  0  0  0
    4.8351   -1.0976   -2.3112 N   0  0  0  0  0  0  0  0  0  0  0  0
    6.5658   -3.0783   -1.3175 N   0  0  0  0  0  0  0  0  0  0  0  0
    4.9676   -1.4977    2.7626 H   0  0  0  0  0  0  0  0  0  0  0  0
    5.8159   -2.9482    3.2791 H   0  0  0  0  0  0  0  0  0  0  0  0
    3.8767   -4.3226    3.0066 H   0  0  0  0  0  0  0  0  0  0  0  0
    4.4041   -1.1730    5.0608 H   0  0  0  0  0  0  0  0  0  0  0  0
    2.6575   -1.3174    7.1787 H   0  0  0  0  0  0  0  0  0  0  0  0
    0.9410   -3.3612    6.4863 H   0  0  0  0  0  0  0  0  0  0  0  0
    1.7620   -3.6093    2.0710 H   0  0  0  0  0  0  0  0  0  0  0  0
    2.3288   -1.9613    1.8439 H   0  0  0  0  0  0  0  0  0  0  0  0
    7.3578   -2.2402    1.6509 H   0  0  0  0  0  0  0  0  0  0  0  0
    4.9382   -4.3216   -1.5558 H   0  0  0  0  0  0  0  0  0  0  0  0
    2.9450   -3.8557   -2.8613 H   0  0  0  0  0  0  0  0  0  0  0  0
    1.7250   -2.3053   -4.3243 H   0  0  0  0  0  0  0  0  0  0  0  0
    2.5740    0.0762   -4.5571 H   0  0  0  0  0  0  0  0  0  0  0  0
    4.5398    0.7648   -3.1522 H   0  0  0  0  0  0  0  0  0  0  0  0
    6.9907   -3.1478   -2.2305 H   0  0  0  0  0  0  0  0  0  0  0  0
  1  2  2  0
  2 23  1  0
  2  3  1  0
  3  4  1  0
  3 32  1  0
  4 15  2  0
  4  5  1  0
  5  6  1  0
  5 24  1  0
  5 25  1  0
  6  7  1  0
  6 12  1  0
  6 26  1  1
  7 11  1  0
  7  8  2  0
  8  9  1  0
  8 27  1  0
  9 10  2  0
  9 28  1  0
 10 11  1  0
 10 29  1  0
 12 30  1  0
 12 31  1  0
 12 13  1  0
 13 14  2  0
 13 15  1  0
 15 16  1  0
 16 17  1  0
 16 23  1  0
 16 33  1  6
 17 22  1  0
 17 18  2  0
 18 19  1  0
 18 34  1  0
 19 20  2  0
 19 35  1  0
 20 21  1  0
 20 36  1  0
 21 22  2  0
 21 37  1  0
 23 38  1  0
M  END
>  <i_m_ct_stereo_status>  (318) 
1

>  <s_m_source_file>  (318) 
/var/tmp/pbs.5076255.sched01/tmppdndq9e4/92von5zo7h.sdf

>  <i_m_source_file_index>  (318) 
41

>  <i_lp_mmshare_version>  (318) 
48012

>  <i_f3d_flags>  (318) 
0

>  <s_epik_input>  (318) 
bjFbY0hdW2NIXVtjSF1bY0hdYzFbQ0BASF0oW05IXUMoPU8pTj0yKVtDQEhdKEMyMylDKD1PKVtDSDJdW0NAQEhdKFtDSDJdMyljNFtjSF1bY0hdW2NIXW80

>  <s_epik_cmdline>  (318) 
J2VwaWtfcHl0aG9uJywgJy1waHQnLCAnMi4wJywgJy1waCcsICc3LjAnLCAnLXRuJywgJzgnLCAnLW1hJywgJzIwMCcsICctaW1hZScsICc8aW5maWxlLm1hZT4nLCAnLW9tYWUnLCAnPG91dGZpbGUubWFlPic=

>  <r_lp_tautomer_probability>  (318) 
1

>  <r_epik_Ionization_Penalty>  (318) 
0.00625017

>  <r_epik_Ionization_Penalty_Charging>  (318) 
0

>  <r_epik_Ionization_Penalty_Neutral>  (318) 
0.00625017

>  <r_epik_State_Penalty>  (318) 
0.00459692

>  <r_epik_Charging_Adjusted_Penalty>  (318) 
0.00459692

>  <i_epik_Tot_Q>  (318) 
0

>  <i_epik_Tot_abs_Q>  (318) 
0

>  <s_lp_Force_Field>  (318) 
OPLS3e

>  <r_lp_Energy>  (318) 
46.1801

>  <b_lp_Chiralities_Consistent>  (318) 
1

>  <s_lp_Variant>  (318) 
82:0-1

>  <s_i_glide_gridfile>  (318) 
pfpi4k_grid

>  <i_i_glide_lignum>  (318) 
41

>  <i_i_glide_rotatable_bonds>  (318) 
2

>  <r_i_docking_score>  (318) 
-3.52703

>  <r_i_glide_ligand_efficiency>  (318) 
-0.153349

>  <r_i_glide_ligand_efficiency_sa>  (318) 
-0.436104

>  <r_i_glide_ligand_efficiency_ln>  (318) 
-0.852868

>  <r_i_glide_gscore>  (318) 
-3.52703

>  <r_i_glide_lipo>  (318) 
-0.845717

>  <r_i_glide_hbond>  (318) 
-0.0460745

>  <r_i_glide_metal>  (318) 
-0

>  <r_i_glide_rewards>  (318) 
-1.30647

>  <r_i_glide_evdw>  (318) 
-27.8075

>  <r_i_glide_ecoul>  (318) 
-2.10863

>  <r_i_glide_erotb>  (318) 
0.387014

>  <r_i_glide_esite>  (318) 
-0.00911162

>  <r_i_glide_emodel>  (318) 
-35.6441

>  <r_i_glide_energy>  (318) 
-29.9161

>  <r_i_glide_einternal>  (318) 
1.79287

>  <r_i_glide_intrahb_reward>  (318) 
-0

>  <i_i_glide_confnum>  (318) 
5

>  <i_i_glide_posenum>  (318) 
3

>  <r_i_glide_eff_state_penalty>  (318) 
0

>  <ligand_id>  (318) 
82

>  <original_smiles>  (318) 
O=C1N=C2CC(c3ccco3)CC(=O)C2C(c2ccccn2)N1

>  <smiles>  (318) 
[H]c1nc(C2([H])C3=C(N([H])C(=O)N2[H])C([H])([H])C([H])(c2oc([H])c([H])c2[H])C([H])([H])C3=O)c([H])c([H])c1[H]

$$$$
82:0:1
     RDKit          3D

 38 41  0  0  1  0  0  0  0  0999 V2000
    0.6384  -11.8253    2.9228 O   0  0  0  0  0  0  0  0  0  0  0  0
    0.6652  -10.6712    3.3321 C   0  0  0  0  0  0  0  0  0  0  0  0
    0.8754  -10.3813    4.6255 N   0  0  0  0  0  0  0  0  0  0  0  0
    0.9052   -9.0956    5.1607 C   0  0  0  0  0  0  0  0  0  0  0  0
    1.1121   -9.0460    6.6613 C   0  0  0  0  0  0  0  0  0  0  0  0
    0.7529   -7.6736    7.2724 C   0  0  1  0  0  0  0  0  0  0  0  0
    1.2186   -7.5377    8.6753 C   0  0  0  0  0  0  0  0  0  0  0  0
    2.0407   -8.2800    9.4672 C   0  0  0  0  0  0  0  0  0  0  0  0
    2.1054   -7.6104   10.7269 C   0  0  0  0  0  0  0  0  0  0  0  0
    1.3080   -6.5137   10.6070 C   0  0  0  0  0  0  0  0  0  0  0  0
    0.7485   -6.4545    9.3634 O   0  0  0  0  0  0  0  0  0  0  0  0
    1.2331   -6.5044    6.3905 C   0  0  0  0  0  0  0  0  0  0  0  0
    0.8124   -6.6552    4.9265 C   0  0  0  0  0  0  0  0  0  0  0  0
    0.5472   -5.6394    4.2807 O   0  0  0  0  0  0  0  0  0  0  0  0
    0.7564   -8.0233    4.3588 C   0  0  0  0  0  0  0  0  0  0  0  0
    0.5546   -8.2007    2.8529 C   0  0  1  0  0  0  0  0  0  0  0  0
    1.6351   -7.5050    2.0395 C   0  0  0  0  0  0  0  0  0  0  0  0
    2.9717   -7.9545    2.1162 C   0  0  0  0  0  0  0  0  0  0  0  0
    3.9662   -7.2535    1.4091 C   0  0  0  0  0  0  0  0  0  0  0  0
    3.5787   -6.1208    0.6635 C   0  0  0  0  0  0  0  0  0  0  0  0
    2.2164   -5.7574    0.6460 C   0  0  0  0  0  0  0  0  0  0  0  0
    1.2532   -6.4392    1.3020 N   0  0  0  0  0  0  0  0  0  0  0  0
    0.4796   -9.6260    2.5061 N   0  0  0  0  0  0  0  0  0  0  0  0
    2.1745   -9.2483    6.8138 H   0  0  0  0  0  0  0  0  0  0  0  0
    0.5594   -9.8495    7.1567 H   0  0  0  0  0  0  0  0  0  0  0  0
   -0.3290   -7.6239    7.2896 H   0  0  0  0  0  0  0  0  0  0  0  0
    2.5434   -9.1903    9.1731 H   0  0  0  0  0  0  0  0  0  0  0  0
    2.6729   -7.8973   11.6021 H   0  0  0  0  0  0  0  0  0  0  0  0
    1.0416   -5.7026   11.2747 H   0  0  0  0  0  0  0  0  0  0  0  0
    0.8258   -5.5636    6.7635 H   0  0  0  0  0  0  0  0  0  0  0  0
    2.3203   -6.4223    6.4289 H   0  0  0  0  0  0  0  0  0  0  0  0
    0.9784  -11.1519    5.2707 H   0  0  0  0  0  0  0  0  0  0  0  0
   -0.4213   -7.7786    2.6046 H   0  0  0  0  0  0  0  0  0  0  0  0
    3.2262   -8.8092    2.7203 H   0  0  0  0  0  0  0  0  0  0  0  0
    4.9943   -7.5727    1.4449 H   0  0  0  0  0  0  0  0  0  0  0  0
    4.3033   -5.5559    0.0942 H   0  0  0  0  0  0  0  0  0  0  0  0
    1.8880   -4.8950    0.0849 H   0  0  0  0  0  0  0  0  0  0  0  0
    0.3302   -9.8454    1.5280 H   0  0  0  0  0  0  0  0  0  0  0  0
  1  2  2  0
  2 23  1  0
  2  3  1  0
  3  4  1  0
  3 32  1  0
  4 15  2  0
  4  5  1  0
  5  6  1  0
  5 24  1  0
  5 25  1  0
  6  7  1  0
  6 12  1  0
  6 26  1  1
  7 11  1  0
  7  8  2  0
  8  9  1  0
  8 27  1  0
  9 10  2  0
  9 28  1  0
 10 11  1  0
 10 29  1  0
 12 30  1  0
 12 31  1  0
 12 13  1  0
 13 14  2  0
 13 15  1  0
 15 16  1  0
 16 17  1  0
 16 23  1  0
 16 33  1  6
 17 22  1  0
 17 18  2  0
 18 19  1  0
 18 34  1  0
 19 20  2  0
 19 35  1  0
 20 21  1  0
 20 36  1  0
 21 22  2  0
 21 37  1  0
 23 38  1  0
M  END
>  <i_m_ct_stereo_status>  (319) 
1

>  <s_m_source_file>  (319) 
/var/tmp/pbs.5076255.sched01/tmppdndq9e4/92von5zo7h.sdf

>  <i_m_source_file_index>  (319) 
41

>  <i_lp_mmshare_version>  (319) 
48012

>  <i_f3d_flags>  (319) 
0

>  <s_epik_input>  (319) 
bjFbY0hdW2NIXVtjSF1bY0hdYzFbQ0BASF0oW05IXUMoPU8pTj0yKVtDQEhdKEMyMylDKD1PKVtDSDJdW0NAQEhdKFtDSDJdMyljNFtjSF1bY0hdW2NIXW80

>  <s_epik_cmdline>  (319) 
J2VwaWtfcHl0aG9uJywgJy1waHQnLCAnMi4wJywgJy1waCcsICc3LjAnLCAnLXRuJywgJzgnLCAnLW1hJywgJzIwMCcsICctaW1hZScsICc8aW5maWxlLm1hZT4nLCAnLW9tYWUnLCAnPG91dGZpbGUubWFlPic=

>  <r_lp_tautomer_probability>  (319) 
1

>  <r_epik_Ionization_Penalty>  (319) 
0.00625017

>  <r_epik_Ionization_Penalty_Charging>  (319) 
0

>  <r_epik_Ionization_Penalty_Neutral>  (319) 
0.00625017

>  <r_epik_State_Penalty>  (319) 
0.00459692

>  <r_epik_Charging_Adjusted_Penalty>  (319) 
0.00459692

>  <i_epik_Tot_Q>  (319) 
0

>  <i_epik_Tot_abs_Q>  (319) 
0

>  <s_lp_Force_Field>  (319) 
OPLS3e

>  <r_lp_Energy>  (319) 
46.1801

>  <b_lp_Chiralities_Consistent>  (319) 
1

>  <s_lp_Variant>  (319) 
82:0-1

>  <s_i_glide_gridfile>  (319) 
pfpi4k_grid

>  <i_i_glide_lignum>  (319) 
41

>  <i_i_glide_rotatable_bonds>  (319) 
2

>  <r_i_docking_score>  (319) 
-3.36725

>  <r_i_glide_ligand_efficiency>  (319) 
-0.146402

>  <r_i_glide_ligand_efficiency_sa>  (319) 
-0.416349

>  <r_i_glide_ligand_efficiency_ln>  (319) 
-0.814233

>  <r_i_glide_gscore>  (319) 
-3.36725

>  <r_i_glide_lipo>  (319) 
-0.109848

>  <r_i_glide_hbond>  (319) 
-0.371916

>  <r_i_glide_metal>  (319) 
-0

>  <r_i_glide_rewards>  (319) 
-1.38152

>  <r_i_glide_evdw>  (319) 
-22.3745

>  <r_i_glide_ecoul>  (319) 
-4.72258

>  <r_i_glide_erotb>  (319) 
0.387014

>  <r_i_glide_esite>  (319) 
-0.0638751

>  <r_i_glide_emodel>  (319) 
-33.4192

>  <r_i_glide_energy>  (319) 
-27.0971

>  <r_i_glide_einternal>  (319) 
0.224693

>  <r_i_glide_intrahb_reward>  (319) 
-0

>  <i_i_glide_confnum>  (319) 
3

>  <i_i_glide_posenum>  (319) 
15

>  <r_i_glide_eff_state_penalty>  (319) 
0

>  <ligand_id>  (319) 
82

>  <original_smiles>  (319) 
O=C1N=C2CC(c3ccco3)CC(=O)C2C(c2ccccn2)N1

>  <smiles>  (319) 
[H]c1nc(C2([H])C3=C(N([H])C(=O)N2[H])C([H])([H])C([H])(c2oc([H])c([H])c2[H])C([H])([H])C3=O)c([H])c([H])c1[H]

$$$$
82:0:2
     RDKit          3D

 38 41  0  0  1  0  0  0  0  0999 V2000
   -2.1847   -8.7789    2.3870 O   0  0  0  0  0  0  0  0  0  0  0  0
   -1.0491   -8.5467    2.7854 C   0  0  0  0  0  0  0  0  0  0  0  0
   -0.1982   -7.7690    2.0810 N   0  0  0  0  0  0  0  0  0  0  0  0
    1.1184   -7.4790    2.4503 C   0  0  0  0  0  0  0  0  0  0  0  0
    1.8759   -6.5965    1.4800 C   0  0  0  0  0  0  0  0  0  0  0  0
    3.4051   -6.6402    1.6916 C   0  0  1  0  0  0  0  0  0  0  0  0
    4.1035   -5.5629    0.9231 C   0  0  0  0  0  0  0  0  0  0  0  0
    3.6741   -4.5129    0.1571 C   0  0  0  0  0  0  0  0  0  0  0  0
    4.8401   -3.8390   -0.3036 C   0  0  0  0  0  0  0  0  0  0  0  0
    5.8983   -4.5281    0.2146 C   0  0  0  0  0  0  0  0  0  0  0  0
    5.4684   -5.5879    0.9569 O   0  0  0  0  0  0  0  0  0  0  0  0
    3.7669   -6.5825    3.1887 C   0  0  0  0  0  0  0  0  0  0  0  0
    3.0050   -7.6189    4.0157 C   0  0  0  0  0  0  0  0  0  0  0  0
    3.5576   -8.1060    5.0013 O   0  0  0  0  0  0  0  0  0  0  0  0
    1.6213   -7.9581    3.6021 C   0  0  0  0  0  0  0  0  0  0  0  0
    0.7493   -8.8078    4.5236 C   0  0  1  0  0  0  0  0  0  0  0  0
    0.5923   -8.1897    5.9023 C   0  0  0  0  0  0  0  0  0  0  0  0
    0.7586   -8.9665    7.0655 C   0  0  0  0  0  0  0  0  0  0  0  0
    0.6311   -8.3385    8.3174 C   0  0  0  0  0  0  0  0  0  0  0  0
    0.3489   -6.9583    8.3572 C   0  0  0  0  0  0  0  0  0  0  0  0
    0.2050   -6.2672    7.1373 C   0  0  0  0  0  0  0  0  0  0  0  0
    0.2948   -6.8687    5.9359 N   0  0  0  0  0  0  0  0  0  0  0  0
   -0.5683   -9.0575    3.9302 N   0  0  0  0  0  0  0  0  0  0  0  0
    1.5088   -5.5829    1.6458 H   0  0  0  0  0  0  0  0  0  0  0  0
    1.6179   -6.8736    0.4617 H   0  0  0  0  0  0  0  0  0  0  0  0
    3.7596   -7.6010    1.3137 H   0  0  0  0  0  0  0  0  0  0  0  0
    2.6453   -4.2615   -0.0468 H   0  0  0  0  0  0  0  0  0  0  0  0
    4.8970   -2.9623   -0.9339 H   0  0  0  0  0  0  0  0  0  0  0  0
    6.9736   -4.4135    0.1552 H   0  0  0  0  0  0  0  0  0  0  0  0
    4.8374   -6.7488    3.3240 H   0  0  0  0  0  0  0  0  0  0  0  0
    3.5459   -5.5951    3.5992 H   0  0  0  0  0  0  0  0  0  0  0  0
   -0.5162   -7.4334    1.1880 H   0  0  0  0  0  0  0  0  0  0  0  0
    1.2371   -9.7752    4.6236 H   0  0  0  0  0  0  0  0  0  0  0  0
    1.0002  -10.0174    6.9955 H   0  0  0  0  0  0  0  0  0  0  0  0
    0.7662   -8.9025    9.2279 H   0  0  0  0  0  0  0  0  0  0  0  0
    0.2530   -6.4287    9.2929 H   0  0  0  0  0  0  0  0  0  0  0  0
   -0.0096   -5.2102    7.1141 H   0  0  0  0  0  0  0  0  0  0  0  0
   -1.1889   -9.6778    4.4524 H   0  0  0  0  0  0  0  0  0  0  0  0
  1  2  2  0
  2 23  1  0
  2  3  1  0
  3  4  1  0
  3 32  1  0
  4 15  2  0
  4  5  1  0
  5  6  1  0
  5 24  1  0
  5 25  1  0
  6  7  1  0
  6 12  1  0
  6 26  1  6
  7 11  1  0
  7  8  2  0
  8  9  1  0
  8 27  1  0
  9 10  2  0
  9 28  1  0
 10 11  1  0
 10 29  1  0
 12 30  1  0
 12 31  1  0
 12 13  1  0
 13 14  2  0
 13 15  1  0
 15 16  1  0
 16 17  1  0
 16 23  1  0
 16 33  1  1
 17 22  1  0
 17 18  2  0
 18 19  1  0
 18 34  1  0
 19 20  2  0
 19 35  1  0
 20 21  1  0
 20 36  1  0
 21 22  2  0
 21 37  1  0
 23 38  1  0
M  END
>  <i_m_ct_stereo_status>  (320) 
1

>  <s_m_source_file>  (320) 
/var/tmp/pbs.5076255.sched01/tmppdndq9e4/92von5zo7h.sdf

>  <i_m_source_file_index>  (320) 
41

>  <i_lp_mmshare_version>  (320) 
48012

>  <i_f3d_flags>  (320) 
0

>  <s_epik_input>  (320) 
bjFbY0hdW2NIXVtjSF1bY0hdYzFbQ0BASF0oW05IXUMoPU8pTj0yKVtDQEhdKEMyMylDKD1PKVtDSDJdW0NAQEhdKFtDSDJdMyljNFtjSF1bY0hdW2NIXW80

>  <s_epik_cmdline>  (320) 
J2VwaWtfcHl0aG9uJywgJy1waHQnLCAnMi4wJywgJy1waCcsICc3LjAnLCAnLXRuJywgJzgnLCAnLW1hJywgJzIwMCcsICctaW1hZScsICc8aW5maWxlLm1hZT4nLCAnLW9tYWUnLCAnPG91dGZpbGUubWFlPic=

>  <r_lp_tautomer_probability>  (320) 
1

>  <r_epik_Ionization_Penalty>  (320) 
0.00625017

>  <r_epik_Ionization_Penalty_Charging>  (320) 
0

>  <r_epik_Ionization_Penalty_Neutral>  (320) 
0.00625017

>  <r_epik_State_Penalty>  (320) 
0.00459692

>  <r_epik_Charging_Adjusted_Penalty>  (320) 
0.00459692

>  <i_epik_Tot_Q>  (320) 
0

>  <i_epik_Tot_abs_Q>  (320) 
0

>  <s_lp_Force_Field>  (320) 
OPLS3e

>  <r_lp_Energy>  (320) 
46.1801

>  <b_lp_Chiralities_Consistent>  (320) 
1

>  <s_lp_Variant>  (320) 
82:0-1

>  <s_i_glide_gridfile>  (320) 
pfpi4k_grid

>  <i_i_glide_lignum>  (320) 
41

>  <i_i_glide_rotatable_bonds>  (320) 
2

>  <r_i_docking_score>  (320) 
-3.19651

>  <r_i_glide_ligand_efficiency>  (320) 
-0.138979

>  <r_i_glide_ligand_efficiency_sa>  (320) 
-0.395238

>  <r_i_glide_ligand_efficiency_ln>  (320) 
-0.772946

>  <r_i_glide_gscore>  (320) 
-3.19651

>  <r_i_glide_lipo>  (320) 
-0.212375

>  <r_i_glide_hbond>  (320) 
-0.16

>  <r_i_glide_metal>  (320) 
-0

>  <r_i_glide_rewards>  (320) 
-1.3001

>  <r_i_glide_evdw>  (320) 
-25.8072

>  <r_i_glide_ecoul>  (320) 
-2.88327

>  <r_i_glide_erotb>  (320) 
0.387014

>  <r_i_glide_esite>  (320) 
-0.18821

>  <r_i_glide_emodel>  (320) 
-34.2194

>  <r_i_glide_energy>  (320) 
-28.6904

>  <r_i_glide_einternal>  (320) 
1.11732

>  <r_i_glide_intrahb_reward>  (320) 
-0

>  <i_i_glide_confnum>  (320) 
5

>  <i_i_glide_posenum>  (320) 
33

>  <r_i_glide_eff_state_penalty>  (320) 
0

>  <ligand_id>  (320) 
82

>  <original_smiles>  (320) 
O=C1N=C2CC(c3ccco3)CC(=O)C2C(c2ccccn2)N1

>  <smiles>  (320) 
[H]c1nc(C2([H])C3=C(N([H])C(=O)N2[H])C([H])([H])C([H])(c2oc([H])c([H])c2[H])C([H])([H])C3=O)c([H])c([H])c1[H]

$$$$
83:0:0
     RDKit          3D

 51 56  0  0  1  0  0  0  0  0999 V2000
    3.1372   -0.7695   -2.7180 C   0  0  0  0  0  0  0  0  0  0  0  0
    3.2792   -2.1965   -2.3491 N   0  0  1  0  0  0  0  0  0  0  0  0
    4.3521   -2.8966   -3.1863 C   0  0  0  0  0  0  0  0  0  0  0  0
    5.2734   -3.9747   -2.4773 C   0  0  0  0  0  0  0  0  0  0  0  0
    5.1686   -3.8337   -0.9616 C   0  0  2  0  0  0  0  0  0  0  0  0
    5.5382   -2.4319   -0.6916 C   0  0  1  0  0  0  0  0  0  0  0  0
    4.3851   -1.8987   -0.0117 C   0  0  1  0  0  0  0  0  0  0  0  0
    4.9717   -0.6653    0.6135 C   0  0  0  0  0  0  0  0  0  0  0  0
    6.3076   -1.3639    1.1514 C   0  0  0  0  0  0  0  0  0  0  0  0
    6.6540   -2.5982    0.2333 C   0  0  1  0  0  0  0  0  0  0  0  0
    6.2059   -4.1152    0.1832 C   0  0  1  0  0  0  0  0  0  0  0  0
    5.7344   -4.9118    1.4299 C   0  0  2  0  0  0  0  0  0  0  0  0
    5.4692   -4.0198    2.4887 O   0  0  0  0  0  0  0  0  0  0  0  0
    6.8037   -5.8864    1.9449 C   0  0  0  0  0  0  0  0  0  0  0  0
    6.2381   -6.8084    3.0352 C   0  0  0  0  0  0  0  0  0  0  0  0
    4.9492   -7.4989    2.5412 C   0  0  1  0  0  0  0  0  0  0  0  0
    4.4305   -8.3078    3.5700 O   0  0  0  0  0  0  0  0  0  0  0  0
    4.0161   -6.5310    2.1607 O   0  0  0  0  0  0  0  0  0  0  0  0
    4.4307   -5.6813    1.0934 C   0  0  1  0  0  0  0  0  0  0  0  0
    3.2518   -4.8350    0.5358 C   0  0  1  0  0  0  0  0  0  0  0  0
    2.5381   -4.1057    1.5209 O   0  0  0  0  0  0  0  0  0  0  0  0
    3.6472   -3.9649   -0.7062 C   0  0  1  0  0  0  0  0  0  0  0  0
    3.2184   -2.4690   -0.8584 C   0  0  2  0  0  0  0  0  0  0  0  0
    4.0153   -0.1944   -2.4091 H   0  0  0  0  0  0  0  0  0  0  0  0
    2.2426   -0.3367   -2.2810 H   0  0  0  0  0  0  0  0  0  0  0  0
    3.0164   -0.6676   -3.7953 H   0  0  0  0  0  0  0  0  0  0  0  0
    3.8699   -3.3629   -4.0406 H   0  0  0  0  0  0  0  0  0  0  0  0
    5.0176   -2.1432   -3.6066 H   0  0  0  0  0  0  0  0  0  0  0  0
    5.0107   -4.9834   -2.7995 H   0  0  0  0  0  0  0  0  0  0  0  0
    6.3056   -3.8410   -2.8100 H   0  0  0  0  0  0  0  0  0  0  0  0
    5.8828   -1.8356   -1.5376 H   0  0  0  0  0  0  0  0  0  0  0  0
    4.1878   -2.4089    0.9287 H   0  0  0  0  0  0  0  0  0  0  0  0
    5.1787    0.0891   -0.1465 H   0  0  0  0  0  0  0  0  0  0  0  0
    4.3579   -0.2251    1.4064 H   0  0  0  0  0  0  0  0  0  0  0  0
    7.1298   -0.6511    1.1467 H   0  0  0  0  0  0  0  0  0  0  0  0
    6.1953   -1.6662    2.1922 H   0  0  0  0  0  0  0  0  0  0  0  0
    7.5822   -2.4831   -0.3250 H   0  0  0  0  0  0  0  0  0  0  0  0
    7.0201   -4.6413   -0.3103 H   0  0  0  0  0  0  0  0  0  0  0  0
    4.8058   -3.4223    2.2041 H   0  0  0  0  0  0  0  0  0  0  0  0
    7.1975   -6.4909    1.1267 H   0  0  0  0  0  0  0  0  0  0  0  0
    7.6485   -5.3264    2.3477 H   0  0  0  0  0  0  0  0  0  0  0  0
    6.9665   -7.5798    3.2781 H   0  0  0  0  0  0  0  0  0  0  0  0
    6.0275   -6.2527    3.9495 H   0  0  0  0  0  0  0  0  0  0  0  0
    5.1543   -8.1606    1.6988 H   0  0  0  0  0  0  0  0  0  0  0  0
    3.7231   -8.8253    3.2091 H   0  0  0  0  0  0  0  0  0  0  0  0
    4.6932   -6.3595    0.2760 H   0  0  0  0  0  0  0  0  0  0  0  0
    2.5234   -5.5647    0.1754 H   0  0  0  0  0  0  0  0  0  0  0  0
    3.0822   -3.4499    1.9153 H   0  0  0  0  0  0  0  0  0  0  0  0
    3.1464   -4.4787   -1.5072 H   0  0  0  0  0  0  0  0  0  0  0  0
    2.2359   -2.3100   -0.4237 H   0  0  0  0  0  0  0  0  0  0  0  0
    2.4238   -2.6289   -2.6781 H   0  0  0  0  0  0  0  0  0  0  0  0
  1  2  1  0
  1 24  1  0
  1 25  1  0
  1 26  1  0
  2 23  1  0
  2  3  1  0
  2 51  1  6
  3  4  1  0
  3 27  1  0
  3 28  1  0
  5  4  1  6
  4 29  1  0
  4 30  1  0
  5 11  1  0
  5 22  1  0
  5  6  1  0
  6 10  1  0
  6  7  1  0
  6 31  1  6
  7 23  1  0
  7  8  1  0
  7 32  1  1
  8  9  1  0
  8 33  1  0
  8 34  1  0
  9 10  1  0
  9 35  1  0
  9 36  1  0
 10 11  1  0
 10 37  1  6
 11 12  1  0
 11 38  1  6
 12 19  1  0
 12 13  1  1
 12 14  1  0
 13 39  1  0
 14 15  1  0
 14 40  1  0
 14 41  1  0
 15 16  1  0
 15 42  1  0
 15 43  1  0
 16 17  1  0
 16 18  1  0
 16 44  1  6
 17 45  1  0
 18 19  1  0
 19 20  1  0
 19 46  1  6
 20 21  1  0
 20 22  1  0
 20 47  1  6
 21 48  1  0
 22 23  1  0
 22 49  1  6
 23 50  1  1
M  CHG  1   2   1
M  END
>  <i_m_ct_stereo_status>  (321) 
1

>  <s_m_source_file>  (321) 
/var/tmp/pbs.5076255.sched01/tmppdndq9e4/92von5zo7h.sdf

>  <i_m_source_file_index>  (321) 
42

>  <i_lp_mmshare_version>  (321) 
48012

>  <i_f3d_flags>  (321) 
0

>  <s_epik_input>  (321) 
W0NIMl0xW0NIMl1OKFtDSDNdKVtDQEhdKFtDQEhdMltDQEBIXTNbQ0BAXTE0NSlbQ0BASF01W0NASF0oW09IXSlbQ0BIXTZbQ0BdKFtPSF0pKFtDQEBIXTRbQ0BASF0zW0NIMl1bQ0gyXTIpW0NIMl1bQ0gyXVtDQEhdKE82KVtPSF0=

>  <s_epik_cmdline>  (321) 
J2VwaWtfcHl0aG9uJywgJy1waHQnLCAnMi4wJywgJy1waCcsICc3LjAnLCAnLXRuJywgJzgnLCAnLW1hJywgJzIwMCcsICctaW1hZScsICc8aW5maWxlLm1hZT4nLCAnLW9tYWUnLCAnPG91dGZpbGUubWFlPic=

>  <r_epik_Ionization_Penalty>  (321) 
0.000418489

>  <r_epik_Ionization_Penalty_Charging>  (321) 
0.000418315

>  <r_epik_Ionization_Penalty_Neutral>  (321) 
1.73935e-07

>  <r_epik_State_Penalty>  (321) 
0.000257153

>  <r_epik_Charging_Adjusted_Penalty>  (321) 
0.000675468

>  <i_epik_Tot_Q>  (321) 
1

>  <i_epik_Tot_abs_Q>  (321) 
1

>  <s_epik_Chemistry_Notes>  (321) 
This compound contains an acetal/aminal-like group ( X-CH(R)-Y where X, Y are N, S, or O) that may be acid/base labile, releasing an aldehyde.

>  <s_lp_Force_Field>  (321) 
OPLS3e

>  <r_lp_Energy>  (321) 
150.487

>  <b_lp_Chiralities_Consistent>  (321) 
1

>  <s_lp_Variant>  (321) 
83:0-1

>  <s_i_glide_gridfile>  (321) 
pfpi4k_grid

>  <i_i_glide_lignum>  (321) 
42

>  <i_i_glide_rotatable_bonds>  (321) 
3

>  <r_i_docking_score>  (321) 
-3.4416

>  <r_i_glide_ligand_efficiency>  (321) 
-0.149635

>  <r_i_glide_ligand_efficiency_sa>  (321) 
-0.425541

>  <r_i_glide_ligand_efficiency_ln>  (321) 
-0.83221

>  <r_i_glide_gscore>  (321) 
-3.4416

>  <r_i_glide_lipo>  (321) 
-0.787643

>  <r_i_glide_hbond>  (321) 
0

>  <r_i_glide_metal>  (321) 
-0

>  <r_i_glide_rewards>  (321) 
-1.21078

>  <r_i_glide_evdw>  (321) 
-14.5353

>  <r_i_glide_ecoul>  (321) 
-4.48402

>  <r_i_glide_erotb>  (321) 
0

>  <r_i_glide_esite>  (321) 
-0.0438116

>  <r_i_glide_emodel>  (321) 
-23.5009

>  <r_i_glide_energy>  (321) 
-19.0193

>  <r_i_glide_einternal>  (321) 
0.371652

>  <r_i_glide_intrahb_reward>  (321) 
-0

>  <i_i_glide_confnum>  (321) 
1

>  <i_i_glide_posenum>  (321) 
25

>  <r_i_glide_eff_state_penalty>  (321) 
0

>  <ligand_id>  (321) 
83

>  <original_smiles>  (321) 
CN1CCC23C4C5CCC4C2C2(O)CCC(O)OC2C(O)C3C51

>  <smiles>  (321) 
[H]OC1([H])OC2([H])C([H])(O[H])C3([H])C45C([H])([H])C([H])([H])[N+]([H])(C([H])([H])[H])C3([H])C3([H])C([H])([H])C([H])([H])C([H])(C34[H])C5([H])C2(O[H])C([H])([H])C1([H])[H]

$$$$
83:0:1
     RDKit          3D

 51 56  0  0  1  0  0  0  0  0999 V2000
    4.0608   -1.0246   -3.1017 C   0  0  0  0  0  0  0  0  0  0  0  0
    3.3345   -1.3894   -1.8626 N   0  0  1  0  0  0  0  0  0  0  0  0
    2.5369   -2.6837   -2.0124 C   0  0  0  0  0  0  0  0  0  0  0  0
    2.4508   -3.6326   -0.7555 C   0  0  0  0  0  0  0  0  0  0  0  0
    3.5442   -3.2938    0.2410 C   0  0  2  0  0  0  0  0  0  0  0  0
    4.7954   -3.3694   -0.5381 C   0  0  1  0  0  0  0  0  0  0  0  0
    5.3610   -2.0582   -0.4065 C   0  0  1  0  0  0  0  0  0  0  0  0
    6.7808   -2.3256   -0.8357 C   0  0  0  0  0  0  0  0  0  0  0  0
    6.9661   -3.6672    0.0108 C   0  0  0  0  0  0  0  0  0  0  0  0
    5.5607   -4.3607    0.2070 C   0  0  1  0  0  0  0  0  0  0  0  0
    4.3584   -4.1946    1.2302 C   0  0  1  0  0  0  0  0  0  0  0  0
    4.5403   -3.6867    2.6770 C   0  0  2  0  0  0  0  0  0  0  0  0
    5.8018   -3.0893    2.7734 O   0  0  0  0  0  0  0  0  0  0  0  0
    4.4667   -4.8280    3.7133 C   0  0  0  0  0  0  0  0  0  0  0  0
    4.4373   -4.2840    5.1489 C   0  0  0  0  0  0  0  0  0  0  0  0
    3.3259   -3.2220    5.3024 C   0  0  1  0  0  0  0  0  0  0  0  0
    3.3368   -2.7198    6.6134 O   0  0  0  0  0  0  0  0  0  0  0  0
    3.5323   -2.1984    4.3779 O   0  0  0  0  0  0  0  0  0  0  0  0
    3.4900   -2.6022    3.0106 C   0  0  1  0  0  0  0  0  0  0  0  0
    3.4393   -1.3804    2.0512 C   0  0  1  0  0  0  0  0  0  0  0  0
    4.4977   -0.4538    2.2208 O   0  0  0  0  0  0  0  0  0  0  0  0
    3.2684   -1.8073    0.5600 C   0  0  1  0  0  0  0  0  0  0  0  0
    4.1154   -1.1517   -0.5961 C   0  0  2  0  0  0  0  0  0  0  0  0
    4.8516   -1.7428   -3.3241 H   0  0  0  0  0  0  0  0  0  0  0  0
    4.4995   -0.0292   -3.0117 H   0  0  0  0  0  0  0  0  0  0  0  0
    3.3700   -1.0120   -3.9450 H   0  0  0  0  0  0  0  0  0  0  0  0
    1.5280   -2.4296   -2.3300 H   0  0  0  0  0  0  0  0  0  0  0  0
    2.9170   -3.2613   -2.8526 H   0  0  0  0  0  0  0  0  0  0  0  0
    1.4641   -3.5682   -0.3178 H   0  0  0  0  0  0  0  0  0  0  0  0
    2.5493   -4.6597   -1.0983 H   0  0  0  0  0  0  0  0  0  0  0  0
    4.7173   -3.7253   -1.5679 H   0  0  0  0  0  0  0  0  0  0  0  0
    5.6057   -1.8227    0.6223 H   0  0  0  0  0  0  0  0  0  0  0  0
    6.8380   -2.5149   -1.9096 H   0  0  0  0  0  0  0  0  0  0  0  0
    7.4968   -1.5630   -0.5314 H   0  0  0  0  0  0  0  0  0  0  0  0
    7.6795   -4.3153   -0.4961 H   0  0  0  0  0  0  0  0  0  0  0  0
    7.4324   -3.4497    0.9689 H   0  0  0  0  0  0  0  0  0  0  0  0
    5.4607   -5.3177   -0.3059 H   0  0  0  0  0  0  0  0  0  0  0  0
    3.8261   -5.1420    1.2207 H   0  0  0  0  0  0  0  0  0  0  0  0
    6.4521   -3.7530    2.5968 H   0  0  0  0  0  0  0  0  0  0  0  0
    3.5789   -5.4384    3.5455 H   0  0  0  0  0  0  0  0  0  0  0  0
    5.3213   -5.4969    3.6000 H   0  0  0  0  0  0  0  0  0  0  0  0
    4.2258   -5.0950    5.8472 H   0  0  0  0  0  0  0  0  0  0  0  0
    5.3969   -3.8508    5.4282 H   0  0  0  0  0  0  0  0  0  0  0  0
    2.3374   -3.6621    5.1490 H   0  0  0  0  0  0  0  0  0  0  0  0
    2.6339   -2.0838    6.6898 H   0  0  0  0  0  0  0  0  0  0  0  0
    2.5192   -3.0898    2.8857 H   0  0  0  0  0  0  0  0  0  0  0  0
    2.5338   -0.8365    2.3296 H   0  0  0  0  0  0  0  0  0  0  0  0
    4.1956    0.3987    1.9416 H   0  0  0  0  0  0  0  0  0  0  0  0
    2.2218   -1.5966    0.4588 H   0  0  0  0  0  0  0  0  0  0  0  0
    4.3093   -0.0889   -0.4176 H   0  0  0  0  0  0  0  0  0  0  0  0
    2.5643   -0.7378   -1.7710 H   0  0  0  0  0  0  0  0  0  0  0  0
  1  2  1  0
  1 24  1  0
  1 25  1  0
  1 26  1  0
  2 23  1  0
  2  3  1  0
  2 51  1  1
  3  4  1  0
  3 27  1  0
  3 28  1  0
  5  4  1  6
  4 29  1  0
  4 30  1  0
  5 11  1  0
  5 22  1  0
  5  6  1  0
  6 10  1  0
  6  7  1  0
  6 31  1  6
  7 23  1  0
  7  8  1  0
  7 32  1  1
  8  9  1  0
  8 33  1  0
  8 34  1  0
  9 10  1  0
  9 35  1  0
  9 36  1  0
 10 11  1  0
 10 37  1  6
 11 12  1  0
 11 38  1  1
 12 19  1  0
 12 13  1  6
 12 14  1  0
 13 39  1  0
 14 15  1  0
 14 40  1  0
 14 41  1  0
 15 16  1  0
 15 42  1  0
 15 43  1  0
 16 17  1  0
 16 18  1  0
 16 44  1  6
 17 45  1  0
 18 19  1  0
 19 20  1  0
 19 46  1  1
 20 21  1  0
 20 22  1  0
 20 47  1  1
 21 48  1  0
 22 23  1  0
 22 49  1  6
 23 50  1  1
M  CHG  1   2   1
M  END
>  <i_m_ct_stereo_status>  (322) 
1

>  <s_m_source_file>  (322) 
/var/tmp/pbs.5076255.sched01/tmppdndq9e4/92von5zo7h.sdf

>  <i_m_source_file_index>  (322) 
42

>  <i_lp_mmshare_version>  (322) 
48012

>  <i_f3d_flags>  (322) 
0

>  <s_epik_input>  (322) 
W0NIMl0xW0NIMl1OKFtDSDNdKVtDQEhdKFtDQEhdMltDQEBIXTNbQ0BAXTE0NSlbQ0BASF01W0NASF0oW09IXSlbQ0BIXTZbQ0BdKFtPSF0pKFtDQEBIXTRbQ0BASF0zW0NIMl1bQ0gyXTIpW0NIMl1bQ0gyXVtDQEhdKE82KVtPSF0=

>  <s_epik_cmdline>  (322) 
J2VwaWtfcHl0aG9uJywgJy1waHQnLCAnMi4wJywgJy1waCcsICc3LjAnLCAnLXRuJywgJzgnLCAnLW1hJywgJzIwMCcsICctaW1hZScsICc8aW5maWxlLm1hZT4nLCAnLW9tYWUnLCAnPG91dGZpbGUubWFlPic=

>  <r_epik_Ionization_Penalty>  (322) 
0.000418489

>  <r_epik_Ionization_Penalty_Charging>  (322) 
0.000418315

>  <r_epik_Ionization_Penalty_Neutral>  (322) 
1.73935e-07

>  <r_epik_State_Penalty>  (322) 
0.000257153

>  <r_epik_Charging_Adjusted_Penalty>  (322) 
0.000675468

>  <i_epik_Tot_Q>  (322) 
1

>  <i_epik_Tot_abs_Q>  (322) 
1

>  <s_epik_Chemistry_Notes>  (322) 
This compound contains an acetal/aminal-like group ( X-CH(R)-Y where X, Y are N, S, or O) that may be acid/base labile, releasing an aldehyde.

>  <s_lp_Force_Field>  (322) 
OPLS3e

>  <r_lp_Energy>  (322) 
150.487

>  <b_lp_Chiralities_Consistent>  (322) 
1

>  <s_lp_Variant>  (322) 
83:0-1

>  <s_i_glide_gridfile>  (322) 
pfpi4k_grid

>  <i_i_glide_lignum>  (322) 
42

>  <i_i_glide_rotatable_bonds>  (322) 
3

>  <r_i_docking_score>  (322) 
-3.12031

>  <r_i_glide_ligand_efficiency>  (322) 
-0.135666

>  <r_i_glide_ligand_efficiency_sa>  (322) 
-0.385816

>  <r_i_glide_ligand_efficiency_ln>  (322) 
-0.75452

>  <r_i_glide_gscore>  (322) 
-3.12031

>  <r_i_glide_lipo>  (322) 
-0.384889

>  <r_i_glide_hbond>  (322) 
-0.108892

>  <r_i_glide_metal>  (322) 
-0

>  <r_i_glide_rewards>  (322) 
-1.21078

>  <r_i_glide_evdw>  (322) 
-11.9938

>  <r_i_glide_ecoul>  (322) 
-4.77471

>  <r_i_glide_erotb>  (322) 
0

>  <r_i_glide_esite>  (322) 
-0.0998594

>  <r_i_glide_emodel>  (322) 
-20.4367

>  <r_i_glide_energy>  (322) 
-16.7685

>  <r_i_glide_einternal>  (322) 
0.751929

>  <r_i_glide_intrahb_reward>  (322) 
-0

>  <i_i_glide_confnum>  (322) 
1

>  <i_i_glide_posenum>  (322) 
14

>  <r_i_glide_eff_state_penalty>  (322) 
0

>  <ligand_id>  (322) 
83

>  <original_smiles>  (322) 
CN1CCC23C4C5CCC4C2C2(O)CCC(O)OC2C(O)C3C51

>  <smiles>  (322) 
[H]OC1([H])OC2([H])C([H])(O[H])C3([H])C45C([H])([H])C([H])([H])[N+]([H])(C([H])([H])[H])C3([H])C3([H])C([H])([H])C([H])([H])C([H])(C34[H])C5([H])C2(O[H])C([H])([H])C1([H])[H]

$$$$
83:0:2
     RDKit          3D

 51 56  0  0  1  0  0  0  0  0999 V2000
    3.9805   -0.0754   -3.3013 C   0  0  0  0  0  0  0  0  0  0  0  0
    3.4914   -1.4085   -2.9576 N   0  0  1  0  0  0  0  0  0  0  0  0
    4.1246   -2.4657   -3.8424 C   0  0  0  0  0  0  0  0  0  0  0  0
    4.5371   -3.8416   -3.1927 C   0  0  0  0  0  0  0  0  0  0  0  0
    4.5305   -3.7210   -1.6630 C   0  0  2  0  0  0  0  0  0  0  0  0
    5.4989   -2.6337   -1.3919 C   0  0  1  0  0  0  0  0  0  0  0  0
    4.7317   -1.6683   -0.6614 C   0  0  1  0  0  0  0  0  0  0  0  0
    5.8135   -0.8277   -0.0429 C   0  0  0  0  0  0  0  0  0  0  0  0
    6.7524   -2.0423    0.4052 C   0  0  0  0  0  0  0  0  0  0  0  0
    6.4727   -3.2923   -0.5261 C   0  0  1  0  0  0  0  0  0  0  0  0
    5.3811   -4.4479   -0.5495 C   0  0  1  0  0  0  0  0  0  0  0  0
    4.6791   -4.9641    0.7329 C   0  0  2  0  0  0  0  0  0  0  0  0
    4.8908   -4.0464    1.7797 O   0  0  0  0  0  0  0  0  0  0  0  0
    5.2225   -6.3260    1.1969 C   0  0  0  0  0  0  0  0  0  0  0  0
    4.3508   -6.9319    2.3087 C   0  0  0  0  0  0  0  0  0  0  0  0
    2.8646   -6.9602    1.8725 C   0  0  1  0  0  0  0  0  0  0  0  0
    2.0645   -7.4890    2.9030 O   0  0  0  0  0  0  0  0  0  0  0  0
    2.4474   -5.6655    1.5492 O   0  0  0  0  0  0  0  0  0  0  0  0
    3.1623   -5.0694    0.4714 C   0  0  1  0  0  0  0  0  0  0  0  0
    2.4657   -3.7828   -0.0579 C   0  0  1  0  0  0  0  0  0  0  0  0
    2.3102   -2.8083    0.9705 O   0  0  0  0  0  0  0  0  0  0  0  0
    3.1100   -3.1897   -1.3569 C   0  0  1  0  0  0  0  0  0  0  0  0
    3.4037   -1.6519   -1.4657 C   0  0  2  0  0  0  0  0  0  0  0  0
    5.0036    0.0471   -2.9661 H   0  0  0  0  0  0  0  0  0  0  0  0
    3.3986    0.6389   -2.7616 H   0  0  0  0  0  0  0  0  0  0  0  0
    3.9031    0.1283   -4.3630 H   0  0  0  0  0  0  0  0  0  0  0  0
    3.4267   -2.6646   -4.6576 H   0  0  0  0  0  0  0  0  0  0  0  0
    5.0073   -2.0465   -4.2919 H   0  0  0  0  0  0  0  0  0  0  0  0
    3.8546   -4.6007   -3.5617 H   0  0  0  0  0  0  0  0  0  0  0  0
    5.5221   -4.1479   -3.5446 H   0  0  0  0  0  0  0  0  0  0  0  0
    6.0324   -2.2209   -2.2474 H   0  0  0  0  0  0  0  0  0  0  0  0
    4.3995   -2.0590    0.2923 H   0  0  0  0  0  0  0  0  0  0  0  0
    6.2054   -0.2206   -0.8405 H   0  0  0  0  0  0  0  0  0  0  0  0
    5.4966   -0.1936    0.7875 H   0  0  0  0  0  0  0  0  0  0  0  0
    7.8006   -1.7497    0.3676 H   0  0  0  0  0  0  0  0  0  0  0  0
    6.5847   -2.2956    1.4498 H   0  0  0  0  0  0  0  0  0  0  0  0
    7.3262   -3.5931   -1.1315 H   0  0  0  0  0  0  0  0  0  0  0  0
    5.7918   -5.2893   -1.0912 H   0  0  0  0  0  0  0  0  0  0  0  0
    4.4142   -3.2591    1.5550 H   0  0  0  0  0  0  0  0  0  0  0  0
    5.2662   -7.0242    0.3619 H   0  0  0  0  0  0  0  0  0  0  0  0
    6.2469   -6.2112    1.5517 H   0  0  0  0  0  0  0  0  0  0  0  0
    4.6760   -7.9532    2.5076 H   0  0  0  0  0  0  0  0  0  0  0  0
    4.4543   -6.3657    3.2345 H   0  0  0  0  0  0  0  0  0  0  0  0
    2.7287   -7.6226    1.0126 H   0  0  0  0  0  0  0  0  0  0  0  0
    2.3373   -8.3809    3.0532 H   0  0  0  0  0  0  0  0  0  0  0  0
    3.0569   -5.8046   -0.3175 H   0  0  0  0  0  0  0  0  0  0  0  0
    1.4646   -4.0968   -0.3544 H   0  0  0  0  0  0  0  0  0  0  0  0
    1.7566   -2.1067    0.6521 H   0  0  0  0  0  0  0  0  0  0  0  0
    2.4020   -3.4801   -2.1434 H   0  0  0  0  0  0  0  0  0  0  0  0
    2.6676   -1.0080   -0.9938 H   0  0  0  0  0  0  0  0  0  0  0  0
    2.5209   -1.4078   -3.2211 H   0  0  0  0  0  0  0  0  0  0  0  0
  1  2  1  0
  1 24  1  0
  1 25  1  0
  1 26  1  0
  2 23  1  0
  2  3  1  0
  2 51  1  6
  3  4  1  0
  3 27  1  0
  3 28  1  0
  5  4  1  6
  4 29  1  0
  4 30  1  0
  5 11  1  0
  5 22  1  0
  5  6  1  0
  6 10  1  0
  6  7  1  0
  6 31  1  6
  7 23  1  0
  7  8  1  0
  7 32  1  1
  8  9  1  0
  8 33  1  0
  8 34  1  0
  9 10  1  0
  9 35  1  0
  9 36  1  0
 10 11  1  0
 10 37  1  6
 11 12  1  0
 11 38  1  6
 12 19  1  0
 12 13  1  1
 12 14  1  0
 13 39  1  0
 14 15  1  0
 14 40  1  0
 14 41  1  0
 15 16  1  0
 15 42  1  0
 15 43  1  0
 16 17  1  0
 16 18  1  0
 16 44  1  6
 17 45  1  0
 18 19  1  0
 19 20  1  0
 19 46  1  6
 20 21  1  0
 20 22  1  0
 20 47  1  6
 21 48  1  0
 22 23  1  0
 22 49  1  6
 23 50  1  1
M  CHG  1   2   1
M  END
>  <i_m_ct_stereo_status>  (323) 
1

>  <s_m_source_file>  (323) 
/var/tmp/pbs.5076255.sched01/tmppdndq9e4/92von5zo7h.sdf

>  <i_m_source_file_index>  (323) 
42

>  <i_lp_mmshare_version>  (323) 
48012

>  <i_f3d_flags>  (323) 
0

>  <s_epik_input>  (323) 
W0NIMl0xW0NIMl1OKFtDSDNdKVtDQEhdKFtDQEhdMltDQEBIXTNbQ0BAXTE0NSlbQ0BASF01W0NASF0oW09IXSlbQ0BIXTZbQ0BdKFtPSF0pKFtDQEBIXTRbQ0BASF0zW0NIMl1bQ0gyXTIpW0NIMl1bQ0gyXVtDQEhdKE82KVtPSF0=

>  <s_epik_cmdline>  (323) 
J2VwaWtfcHl0aG9uJywgJy1waHQnLCAnMi4wJywgJy1waCcsICc3LjAnLCAnLXRuJywgJzgnLCAnLW1hJywgJzIwMCcsICctaW1hZScsICc8aW5maWxlLm1hZT4nLCAnLW9tYWUnLCAnPG91dGZpbGUubWFlPic=

>  <r_epik_Ionization_Penalty>  (323) 
0.000418489

>  <r_epik_Ionization_Penalty_Charging>  (323) 
0.000418315

>  <r_epik_Ionization_Penalty_Neutral>  (323) 
1.73935e-07

>  <r_epik_State_Penalty>  (323) 
0.000257153

>  <r_epik_Charging_Adjusted_Penalty>  (323) 
0.000675468

>  <i_epik_Tot_Q>  (323) 
1

>  <i_epik_Tot_abs_Q>  (323) 
1

>  <s_epik_Chemistry_Notes>  (323) 
This compound contains an acetal/aminal-like group ( X-CH(R)-Y where X, Y are N, S, or O) that may be acid/base labile, releasing an aldehyde.

>  <s_lp_Force_Field>  (323) 
OPLS3e

>  <r_lp_Energy>  (323) 
150.487

>  <b_lp_Chiralities_Consistent>  (323) 
1

>  <s_lp_Variant>  (323) 
83:0-1

>  <s_i_glide_gridfile>  (323) 
pfpi4k_grid

>  <i_i_glide_lignum>  (323) 
42

>  <i_i_glide_rotatable_bonds>  (323) 
3

>  <r_i_docking_score>  (323) 
-3.04717

>  <r_i_glide_ligand_efficiency>  (323) 
-0.132485

>  <r_i_glide_ligand_efficiency_sa>  (323) 
-0.376771

>  <r_i_glide_ligand_efficiency_ln>  (323) 
-0.736832

>  <r_i_glide_gscore>  (323) 
-3.04717

>  <r_i_glide_lipo>  (323) 
-0.610696

>  <r_i_glide_hbond>  (323) 
0

>  <r_i_glide_metal>  (323) 
-0

>  <r_i_glide_rewards>  (323) 
-1.22655

>  <r_i_glide_evdw>  (323) 
-11.3991

>  <r_i_glide_ecoul>  (323) 
-4.17149

>  <r_i_glide_erotb>  (323) 
0

>  <r_i_glide_esite>  (323) 
-0.0142437

>  <r_i_glide_emodel>  (323) 
-18.3657

>  <r_i_glide_energy>  (323) 
-15.5706

>  <r_i_glide_einternal>  (323) 
2.26256

>  <r_i_glide_intrahb_reward>  (323) 
-0

>  <i_i_glide_confnum>  (323) 
1

>  <i_i_glide_posenum>  (323) 
5

>  <r_i_glide_eff_state_penalty>  (323) 
0

>  <ligand_id>  (323) 
83

>  <original_smiles>  (323) 
CN1CCC23C4C5CCC4C2C2(O)CCC(O)OC2C(O)C3C51

>  <smiles>  (323) 
[H]OC1([H])OC2([H])C([H])(O[H])C3([H])C45C([H])([H])C([H])([H])[N+]([H])(C([H])([H])[H])C3([H])C3([H])C([H])([H])C([H])([H])C([H])(C34[H])C5([H])C2(O[H])C([H])([H])C1([H])[H]

$$$$
84:0:0
     RDKit          3D

 50 55  0  0  1  0  0  0  0  0999 V2000
    5.1401   -3.8537   -1.6257 C   0  0  0  0  0  0  0  0  0  0  0  0
    4.8946   -4.1230   -0.1533 C   0  0  0  0  0  0  0  0  0  0  0  0
    5.9897   -5.0105    0.4213 C   0  0  0  0  0  0  0  0  0  0  0  0
    4.2597   -2.9948    0.7030 C   0  0  2  0  0  0  0  0  0  0  0  0
    2.9715   -2.5078    1.3784 C   0  0  0  0  0  0  0  0  0  0  0  0
    2.4687   -3.6331    2.1673 N   0  0  0  0  0  0  0  0  0  0  0  0
    1.6497   -3.4955    3.3096 C   0  0  0  0  0  0  0  0  0  0  0  0
    1.4200   -4.5543    4.2256 C   0  0  0  0  0  0  0  0  0  0  0  0
    0.5864   -4.4184    5.2853 N   0  0  0  0  0  0  0  0  0  0  0  0
   -0.0054   -3.2154    5.4429 C   0  0  0  0  0  0  0  0  0  0  0  0
   -0.8602   -2.8473    6.4000 N   0  0  0  0  0  0  0  0  0  0  0  0
   -1.1631   -1.5169    6.0639 O   0  0  0  0  0  0  0  0  0  0  0  0
   -0.4976   -1.0859    4.9035 N   0  0  0  0  0  0  0  0  0  0  0  0
    0.2185   -2.1591    4.5523 C   0  0  0  0  0  0  0  0  0  0  0  0
    1.0481   -2.2931    3.4937 N   0  0  0  0  0  0  0  0  0  0  0  0
    3.0115   -4.8693    1.6304 C   0  0  1  0  0  0  0  0  0  0  0  0
    2.0302   -6.0168    1.3633 C   0  0  0  0  0  0  0  0  0  0  0  0
    1.0473   -5.8686    0.6358 O   0  0  0  0  0  0  0  0  0  0  0  0
    2.3131   -7.1547    2.0038 N   0  0  0  0  0  0  0  0  0  0  0  0
    1.5214   -8.3645    1.9233 C   0  0  2  0  0  0  0  0  0  0  0  0
    0.0822   -8.2006    2.4951 C   0  0  0  0  0  0  0  0  0  0  0  0
   -0.1862   -9.4007    3.4349 C   0  0  0  0  0  0  0  0  0  0  0  0
    1.1620  -10.0418    3.5915 C   0  0  0  0  0  0  0  0  0  0  0  0
    1.4055  -11.0385    4.4599 N   0  0  0  0  0  0  0  0  0  0  0  0
    2.6795  -11.4954    4.4935 C   0  0  0  0  0  0  0  0  0  0  0  0
    3.7223  -10.9831    3.6836 C   0  0  0  0  0  0  0  0  0  0  0  0
    3.4347   -9.9388    2.7797 C   0  0  0  0  0  0  0  0  0  0  0  0
    2.1099   -9.4686    2.7564 C   0  0  0  0  0  0  0  0  0  0  0  0
    3.5519   -4.3224    0.3164 C   0  0  2  0  0  0  0  0  0  0  0  0
    6.1143   -3.3893   -1.7735 H   0  0  0  0  0  0  0  0  0  0  0  0
    4.3782   -3.1884   -2.0193 H   0  0  0  0  0  0  0  0  0  0  0  0
    5.0970   -4.7807   -2.1932 H   0  0  0  0  0  0  0  0  0  0  0  0
    5.8744   -5.1141    1.4979 H   0  0  0  0  0  0  0  0  0  0  0  0
    6.9769   -4.5876    0.2259 H   0  0  0  0  0  0  0  0  0  0  0  0
    5.9293   -6.0073   -0.0180 H   0  0  0  0  0  0  0  0  0  0  0  0
    5.0128   -2.8834    1.4750 H   0  0  0  0  0  0  0  0  0  0  0  0
    3.1969   -1.6403    2.0057 H   0  0  0  0  0  0  0  0  0  0  0  0
    2.2183   -2.2011    0.6511 H   0  0  0  0  0  0  0  0  0  0  0  0
    1.8874   -5.5266    4.1284 H   0  0  0  0  0  0  0  0  0  0  0  0
    3.8152   -5.2158    2.2805 H   0  0  0  0  0  0  0  0  0  0  0  0
    3.1209   -7.1772    2.6057 H   0  0  0  0  0  0  0  0  0  0  0  0
    1.4907   -8.6958    0.8857 H   0  0  0  0  0  0  0  0  0  0  0  0
    0.0170   -7.2933    3.0972 H   0  0  0  0  0  0  0  0  0  0  0  0
   -0.6647   -8.1109    1.7043 H   0  0  0  0  0  0  0  0  0  0  0  0
   -0.5937   -9.0873    4.3960 H   0  0  0  0  0  0  0  0  0  0  0  0
   -0.8725  -10.1145    2.9815 H   0  0  0  0  0  0  0  0  0  0  0  0
    2.8745  -12.2984    5.1869 H   0  0  0  0  0  0  0  0  0  0  0  0
    4.7182  -11.3939    3.7452 H   0  0  0  0  0  0  0  0  0  0  0  0
    4.1964   -9.5190    2.1386 H   0  0  0  0  0  0  0  0  0  0  0  0
    2.7982   -4.2535   -0.4682 H   0  0  0  0  0  0  0  0  0  0  0  0
  1  2  1  0
  1 30  1  0
  1 31  1  0
  1 32  1  0
  2 29  1  0
  2  3  1  0
  2  4  1  0
  3 33  1  0
  3 34  1  0
  3 35  1  0
  4 29  1  0
  4  5  1  0
  4 36  1  1
  5  6  1  0
  5 37  1  0
  5 38  1  0
  6  7  1  0
  6 16  1  0
  7 15  2  0
  7  8  1  0
  8  9  2  0
  8 39  1  0
  9 10  1  0
 10 14  1  0
 10 11  2  0
 11 12  1  0
 12 13  1  0
 13 14  2  0
 14 15  1  0
 16 17  1  0
 16 29  1  0
 16 40  1  1
 17 18  2  0
 17 19  1  0
 19 20  1  0
 19 41  1  0
 20 28  1  0
 20 21  1  0
 20 42  1  6
 21 22  1  0
 21 43  1  0
 21 44  1  0
 22 23  1  0
 22 45  1  0
 22 46  1  0
 23 28  2  0
 23 24  1  0
 24 25  2  0
 25 26  1  0
 25 47  1  0
 26 27  2  0
 26 48  1  0
 27 28  1  0
 27 49  1  0
 29 50  1  6
M  END
>  <i_m_ct_stereo_status>  (324) 
1

>  <s_m_source_file>  (324) 
/var/tmp/pbs.5076255.sched01/tmppdndq9e4/92von5zo7h.sdf

>  <i_m_source_file_index>  (324) 
43

>  <i_lp_mmshare_version>  (324) 
48012

>  <i_f3d_flags>  (324) 
0

>  <s_epik_input>  (324) 
bjFvbmMoYzEyKW5jKFtjSF1uMilOKFtDSDJdMylbQ0BIXShbQ0BASF0oW0NASF0zNClDNChbQ0gzXSlbQ0gzXSlDKD1PKVtOSF1bQ0BIXShbQ0gyXVtDSDJdNSljKGM1NilbY0hdW2NIXVtjSF1uNg==

>  <s_epik_cmdline>  (324) 
J2VwaWtfcHl0aG9uJywgJy1waHQnLCAnMi4wJywgJy1waCcsICc3LjAnLCAnLXRuJywgJzgnLCAnLW1hJywgJzIwMCcsICctaW1hZScsICc8aW5maWxlLm1hZT4nLCAnLW9tYWUnLCAnPG91dGZpbGUubWFlPic=

>  <r_epik_Ionization_Penalty>  (324) 
0.0652781

>  <r_epik_Ionization_Penalty_Charging>  (324) 
0

>  <r_epik_Ionization_Penalty_Neutral>  (324) 
0.0652781

>  <r_epik_State_Penalty>  (324) 
0.0569173

>  <r_epik_Charging_Adjusted_Penalty>  (324) 
0.0569173

>  <i_epik_Tot_Q>  (324) 
0

>  <i_epik_Tot_abs_Q>  (324) 
0

>  <s_lp_Force_Field>  (324) 
OPLS3e

>  <r_lp_Energy>  (324) 
66.6756

>  <b_lp_Chiralities_Consistent>  (324) 
1

>  <s_lp_Variant>  (324) 
84:0-1

>  <s_i_glide_gridfile>  (324) 
pfpi4k_grid

>  <i_i_glide_lignum>  (324) 
43

>  <i_i_glide_rotatable_bonds>  (324) 
4

>  <r_i_docking_score>  (324) 
-3.369

>  <r_i_glide_ligand_efficiency>  (324) 
-0.116173

>  <r_i_glide_ligand_efficiency_sa>  (324) 
-0.356919

>  <r_i_glide_ligand_efficiency_ln>  (324) 
-0.771416

>  <r_i_glide_gscore>  (324) 
-3.369

>  <r_i_glide_lipo>  (324) 
-0.265328

>  <r_i_glide_hbond>  (324) 
-0.16

>  <r_i_glide_metal>  (324) 
-0

>  <r_i_glide_rewards>  (324) 
-0.798206

>  <r_i_glide_evdw>  (324) 
-31.2907

>  <r_i_glide_ecoul>  (324) 
-5.97963

>  <r_i_glide_erotb>  (324) 
0.509469

>  <r_i_glide_esite>  (324) 
-0.193459

>  <r_i_glide_emodel>  (324) 
-45.0082

>  <r_i_glide_energy>  (324) 
-37.2703

>  <r_i_glide_einternal>  (324) 
1.23789

>  <r_i_glide_intrahb_reward>  (324) 
-0

>  <i_i_glide_confnum>  (324) 
2

>  <i_i_glide_posenum>  (324) 
34

>  <r_i_glide_eff_state_penalty>  (324) 
0

>  <ligand_id>  (324) 
84

>  <original_smiles>  (324) 
CC1(C)C2CN(c3cnc4nonc4n3)C(C(=O)NC3CCc4ncccc43)C21

>  <smiles>  (324) 
[H]c1nc2nonc2nc1N1C([H])([H])C2([H])C([H])(C1([H])C(=O)N([H])C1([H])c3c(nc([H])c([H])c3[H])C([H])([H])C1([H])[H])C2(C([H])([H])[H])C([H])([H])[H]

$$$$
84:0:1
     RDKit          3D

 50 55  0  0  1  0  0  0  0  0999 V2000
    6.3637   -2.3725   -0.6385 C   0  0  0  0  0  0  0  0  0  0  0  0
    4.9754   -2.9846   -0.5814 C   0  0  0  0  0  0  0  0  0  0  0  0
    3.9770   -2.0895   -1.3053 C   0  0  0  0  0  0  0  0  0  0  0  0
    4.8559   -4.5332   -0.6460 C   0  0  2  0  0  0  0  0  0  0  0  0
    4.5854   -5.8094    0.1705 C   0  0  0  0  0  0  0  0  0  0  0  0
    3.3444   -5.5689    0.9080 N   0  0  0  0  0  0  0  0  0  0  0  0
    2.4906   -6.5719    1.4193 C   0  0  0  0  0  0  0  0  0  0  0  0
    2.9736   -7.8781    1.6755 C   0  0  0  0  0  0  0  0  0  0  0  0
    2.1761   -8.8530    2.1650 N   0  0  0  0  0  0  0  0  0  0  0  0
    0.8847   -8.5263    2.4032 C   0  0  0  0  0  0  0  0  0  0  0  0
   -0.0831   -9.3097    2.8799 N   0  0  0  0  0  0  0  0  0  0  0  0
   -1.2013   -8.4549    2.9189 O   0  0  0  0  0  0  0  0  0  0  0  0
   -0.8992   -7.1535    2.4768 N   0  0  0  0  0  0  0  0  0  0  0  0
    0.3963   -7.2382    2.1554 C   0  0  0  0  0  0  0  0  0  0  0  0
    1.1902   -6.2566    1.6562 N   0  0  0  0  0  0  0  0  0  0  0  0
    3.1504   -4.1362    1.0463 C   0  0  1  0  0  0  0  0  0  0  0  0
    2.8714   -3.5892    2.4493 C   0  0  0  0  0  0  0  0  0  0  0  0
    3.2787   -4.1765    3.4523 O   0  0  0  0  0  0  0  0  0  0  0  0
    2.1854   -2.4410    2.4898 N   0  0  0  0  0  0  0  0  0  0  0  0
    1.8481   -1.7118    3.7025 C   0  0  2  0  0  0  0  0  0  0  0  0
    1.0732   -2.5705    4.7458 C   0  0  0  0  0  0  0  0  0  0  0  0
   -0.1429   -1.7514    5.2302 C   0  0  0  0  0  0  0  0  0  0  0  0
   -0.1917   -0.5938    4.2763 C   0  0  0  0  0  0  0  0  0  0  0  0
   -1.2038    0.2927    4.2534 N   0  0  0  0  0  0  0  0  0  0  0  0
   -1.1065    1.2694    3.3175 C   0  0  0  0  0  0  0  0  0  0  0  0
   -0.0305    1.3813    2.4066 C   0  0  0  0  0  0  0  0  0  0  0  0
    1.0154    0.4377    2.4547 C   0  0  0  0  0  0  0  0  0  0  0  0
    0.9072   -0.5713    3.4279 C   0  0  0  0  0  0  0  0  0  0  0  0
    4.5331   -3.6721    0.6022 C   0  0  2  0  0  0  0  0  0  0  0  0
    6.6726   -2.2353   -1.6744 H   0  0  0  0  0  0  0  0  0  0  0  0
    7.0834   -3.0281   -0.1573 H   0  0  0  0  0  0  0  0  0  0  0  0
    6.3774   -1.4100   -0.1282 H   0  0  0  0  0  0  0  0  0  0  0  0
    3.0043   -2.5734   -1.3634 H   0  0  0  0  0  0  0  0  0  0  0  0
    4.3044   -1.8802   -2.3254 H   0  0  0  0  0  0  0  0  0  0  0  0
    3.8483   -1.1489   -0.7660 H   0  0  0  0  0  0  0  0  0  0  0  0
    4.2111   -4.6458   -1.5094 H   0  0  0  0  0  0  0  0  0  0  0  0
    4.4764   -6.6597   -0.5094 H   0  0  0  0  0  0  0  0  0  0  0  0
    5.4043   -6.0352    0.8583 H   0  0  0  0  0  0  0  0  0  0  0  0
    4.0057   -8.1479    1.4891 H   0  0  0  0  0  0  0  0  0  0  0  0
    2.3673   -3.8093    0.3598 H   0  0  0  0  0  0  0  0  0  0  0  0
    1.8928   -2.0361    1.6121 H   0  0  0  0  0  0  0  0  0  0  0  0
    2.7560   -1.2972    4.1442 H   0  0  0  0  0  0  0  0  0  0  0  0
    0.6822   -3.4734    4.2751 H   0  0  0  0  0  0  0  0  0  0  0  0
    1.7158   -2.8982    5.5636 H   0  0  0  0  0  0  0  0  0  0  0  0
   -1.0618   -2.3370    5.1994 H   0  0  0  0  0  0  0  0  0  0  0  0
    0.0117   -1.3769    6.2412 H   0  0  0  0  0  0  0  0  0  0  0  0
   -1.9184    1.9802    3.2875 H   0  0  0  0  0  0  0  0  0  0  0  0
   -0.0104    2.1760    1.6768 H   0  0  0  0  0  0  0  0  0  0  0  0
    1.8516    0.4889    1.7729 H   0  0  0  0  0  0  0  0  0  0  0  0
    5.2725   -3.6894    1.4050 H   0  0  0  0  0  0  0  0  0  0  0  0
  1  2  1  0
  1 30  1  0
  1 31  1  0
  1 32  1  0
  2 29  1  0
  2  3  1  0
  2  4  1  0
  3 33  1  0
  3 34  1  0
  3 35  1  0
  4 29  1  0
  4  5  1  0
  4 36  1  6
  5  6  1  0
  5 37  1  0
  5 38  1  0
  6  7  1  0
  6 16  1  0
  7 15  2  0
  7  8  1  0
  8  9  2  0
  8 39  1  0
  9 10  1  0
 10 14  1  0
 10 11  2  0
 11 12  1  0
 12 13  1  0
 13 14  2  0
 14 15  1  0
 16 17  1  0
 16 29  1  0
 16 40  1  6
 17 18  2  0
 17 19  1  0
 19 20  1  0
 19 41  1  0
 20 28  1  0
 20 21  1  0
 20 42  1  1
 21 22  1  0
 21 43  1  0
 21 44  1  0
 22 23  1  0
 22 45  1  0
 22 46  1  0
 23 28  2  0
 23 24  1  0
 24 25  2  0
 25 26  1  0
 25 47  1  0
 26 27  2  0
 26 48  1  0
 27 28  1  0
 27 49  1  0
 29 50  1  1
M  END
>  <i_m_ct_stereo_status>  (325) 
1

>  <s_m_source_file>  (325) 
/var/tmp/pbs.5076255.sched01/tmppdndq9e4/92von5zo7h.sdf

>  <i_m_source_file_index>  (325) 
43

>  <i_lp_mmshare_version>  (325) 
48012

>  <i_f3d_flags>  (325) 
0

>  <s_epik_input>  (325) 
bjFvbmMoYzEyKW5jKFtjSF1uMilOKFtDSDJdMylbQ0BIXShbQ0BASF0oW0NASF0zNClDNChbQ0gzXSlbQ0gzXSlDKD1PKVtOSF1bQ0BIXShbQ0gyXVtDSDJdNSljKGM1NilbY0hdW2NIXVtjSF1uNg==

>  <s_epik_cmdline>  (325) 
J2VwaWtfcHl0aG9uJywgJy1waHQnLCAnMi4wJywgJy1waCcsICc3LjAnLCAnLXRuJywgJzgnLCAnLW1hJywgJzIwMCcsICctaW1hZScsICc8aW5maWxlLm1hZT4nLCAnLW9tYWUnLCAnPG91dGZpbGUubWFlPic=

>  <r_epik_Ionization_Penalty>  (325) 
0.0652781

>  <r_epik_Ionization_Penalty_Charging>  (325) 
0

>  <r_epik_Ionization_Penalty_Neutral>  (325) 
0.0652781

>  <r_epik_State_Penalty>  (325) 
0.0569173

>  <r_epik_Charging_Adjusted_Penalty>  (325) 
0.0569173

>  <i_epik_Tot_Q>  (325) 
0

>  <i_epik_Tot_abs_Q>  (325) 
0

>  <s_lp_Force_Field>  (325) 
OPLS3e

>  <r_lp_Energy>  (325) 
66.6756

>  <b_lp_Chiralities_Consistent>  (325) 
1

>  <s_lp_Variant>  (325) 
84:0-1

>  <s_i_glide_gridfile>  (325) 
pfpi4k_grid

>  <i_i_glide_lignum>  (325) 
43

>  <i_i_glide_rotatable_bonds>  (325) 
4

>  <r_i_docking_score>  (325) 
-2.98598

>  <r_i_glide_ligand_efficiency>  (325) 
-0.102965

>  <r_i_glide_ligand_efficiency_sa>  (325) 
-0.316341

>  <r_i_glide_ligand_efficiency_ln>  (325) 
-0.683715

>  <r_i_glide_gscore>  (325) 
-2.98598

>  <r_i_glide_lipo>  (325) 
-0.110565

>  <r_i_glide_hbond>  (325) 
-0.072236

>  <r_i_glide_metal>  (325) 
-0

>  <r_i_glide_rewards>  (325) 
-0.740274

>  <r_i_glide_evdw>  (325) 
-36.815

>  <r_i_glide_ecoul>  (325) 
-3.09091

>  <r_i_glide_erotb>  (325) 
0.509469

>  <r_i_glide_esite>  (325) 
-0.267989

>  <r_i_glide_emodel>  (325) 
-46.4261

>  <r_i_glide_energy>  (325) 
-39.906

>  <r_i_glide_einternal>  (325) 
1.59442

>  <r_i_glide_intrahb_reward>  (325) 
-0

>  <i_i_glide_confnum>  (325) 
4

>  <i_i_glide_posenum>  (325) 
9

>  <r_i_glide_eff_state_penalty>  (325) 
0

>  <ligand_id>  (325) 
84

>  <original_smiles>  (325) 
CC1(C)C2CN(c3cnc4nonc4n3)C(C(=O)NC3CCc4ncccc43)C21

>  <smiles>  (325) 
[H]c1nc2nonc2nc1N1C([H])([H])C2([H])C([H])(C1([H])C(=O)N([H])C1([H])c3c(nc([H])c([H])c3[H])C([H])([H])C1([H])[H])C2(C([H])([H])[H])C([H])([H])[H]

$$$$
84:0:2
     RDKit          3D

 50 55  0  0  1  0  0  0  0  0999 V2000
    5.2325   -1.4138    6.3219 C   0  0  0  0  0  0  0  0  0  0  0  0
    4.3608   -1.3040    5.0819 C   0  0  0  0  0  0  0  0  0  0  0  0
    2.8986   -1.1507    5.4791 C   0  0  0  0  0  0  0  0  0  0  0  0
    4.9306   -0.5605    3.8428 C   0  0  2  0  0  0  0  0  0  0  0  0
    5.5260   -0.7413    2.4379 C   0  0  0  0  0  0  0  0  0  0  0  0
    4.6194   -1.6257    1.7086 N   0  0  0  0  0  0  0  0  0  0  0  0
    4.4894   -1.6841    0.3019 C   0  0  0  0  0  0  0  0  0  0  0  0
    5.4386   -1.0561   -0.5341 C   0  0  0  0  0  0  0  0  0  0  0  0
    5.3675   -1.1150   -1.8830 N   0  0  0  0  0  0  0  0  0  0  0  0
    4.3273   -1.8055   -2.4057 C   0  0  0  0  0  0  0  0  0  0  0  0
    4.0505   -1.9933   -3.6974 N   0  0  0  0  0  0  0  0  0  0  0  0
    2.8837   -2.7799   -3.6573 O   0  0  0  0  0  0  0  0  0  0  0  0
    2.4648   -3.0561   -2.3434 N   0  0  0  0  0  0  0  0  0  0  0  0
    3.3786   -2.4373   -1.5915 C   0  0  0  0  0  0  0  0  0  0  0  0
    3.4557   -2.3789   -0.2379 N   0  0  0  0  0  0  0  0  0  0  0  0
    3.8558   -2.4045    2.6637 C   0  0  1  0  0  0  0  0  0  0  0  0
    3.7954   -3.9219    2.4521 C   0  0  0  0  0  0  0  0  0  0  0  0
    4.7259   -4.5350    1.9253 O   0  0  0  0  0  0  0  0  0  0  0  0
    2.6738   -4.5076    2.8772 N   0  0  0  0  0  0  0  0  0  0  0  0
    2.3856   -5.9237    2.7487 C   0  0  2  0  0  0  0  0  0  0  0  0
    2.1447   -6.3500    1.2740 C   0  0  0  0  0  0  0  0  0  0  0  0
    0.8516   -7.1981    1.2342 C   0  0  0  0  0  0  0  0  0  0  0  0
    0.2491   -6.9879    2.5881 C   0  0  0  0  0  0  0  0  0  0  0  0
   -0.9874   -7.4018    2.9134 N   0  0  0  0  0  0  0  0  0  0  0  0
   -1.3676   -7.1621    4.1889 C   0  0  0  0  0  0  0  0  0  0  0  0
   -0.5838   -6.4480    5.1265 C   0  0  0  0  0  0  0  0  0  0  0  0
    0.6926   -5.9894    4.7424 C   0  0  0  0  0  0  0  0  0  0  0  0
    1.0971   -6.2852    3.4307 C   0  0  0  0  0  0  0  0  0  0  0  0
    4.6640   -2.0889    3.9160 C   0  0  2  0  0  0  0  0  0  0  0  0
    5.1096   -0.5344    6.9535 H   0  0  0  0  0  0  0  0  0  0  0  0
    6.2805   -1.4849    6.0481 H   0  0  0  0  0  0  0  0  0  0  0  0
    4.9699   -2.3001    6.8985 H   0  0  0  0  0  0  0  0  0  0  0  0
    2.2837   -0.9619    4.6018 H   0  0  0  0  0  0  0  0  0  0  0  0
    2.7676   -0.3115    6.1645 H   0  0  0  0  0  0  0  0  0  0  0  0
    2.5392   -2.0650    5.9550 H   0  0  0  0  0  0  0  0  0  0  0  0
    4.1765    0.2073    3.7030 H   0  0  0  0  0  0  0  0  0  0  0  0
    5.6020    0.2294    1.9470 H   0  0  0  0  0  0  0  0  0  0  0  0
    6.5296   -1.1706    2.4742 H   0  0  0  0  0  0  0  0  0  0  0  0
    6.2775   -0.5068   -0.1306 H   0  0  0  0  0  0  0  0  0  0  0  0
    2.8442   -1.9978    2.7200 H   0  0  0  0  0  0  0  0  0  0  0  0
    1.9727   -3.9213    3.3027 H   0  0  0  0  0  0  0  0  0  0  0  0
    3.1840   -6.5174    3.1979 H   0  0  0  0  0  0  0  0  0  0  0  0
    1.9885   -5.4711    0.6463 H   0  0  0  0  0  0  0  0  0  0  0  0
    3.0041   -6.8753    0.8583 H   0  0  0  0  0  0  0  0  0  0  0  0
    0.1690   -6.8845    0.4448 H   0  0  0  0  0  0  0  0  0  0  0  0
    1.0773   -8.2551    1.1028 H   0  0  0  0  0  0  0  0  0  0  0  0
   -2.3435   -7.5198    4.4648 H   0  0  0  0  0  0  0  0  0  0  0  0
   -0.9532   -6.2556    6.1220 H   0  0  0  0  0  0  0  0  0  0  0  0
    1.3247   -5.4323    5.4189 H   0  0  0  0  0  0  0  0  0  0  0  0
    5.5412   -2.7262    4.0286 H   0  0  0  0  0  0  0  0  0  0  0  0
  1  2  1  0
  1 30  1  0
  1 31  1  0
  1 32  1  0
  2 29  1  0
  2  3  1  0
  2  4  1  0
  3 33  1  0
  3 34  1  0
  3 35  1  0
  4 29  1  0
  4  5  1  0
  4 36  1  6
  5  6  1  0
  5 37  1  0
  5 38  1  0
  6  7  1  0
  6 16  1  0
  7 15  2  0
  7  8  1  0
  8  9  2  0
  8 39  1  0
  9 10  1  0
 10 14  1  0
 10 11  2  0
 11 12  1  0
 12 13  1  0
 13 14  2  0
 14 15  1  0
 16 17  1  0
 16 29  1  0
 16 40  1  1
 17 18  2  0
 17 19  1  0
 19 20  1  0
 19 41  1  0
 20 28  1  0
 20 21  1  0
 20 42  1  1
 21 22  1  0
 21 43  1  0
 21 44  1  0
 22 23  1  0
 22 45  1  0
 22 46  1  0
 23 28  2  0
 23 24  1  0
 24 25  2  0
 25 26  1  0
 25 47  1  0
 26 27  2  0
 26 48  1  0
 27 28  1  0
 27 49  1  0
 29 50  1  1
M  END
>  <i_m_ct_stereo_status>  (326) 
1

>  <s_m_source_file>  (326) 
/var/tmp/pbs.5076255.sched01/tmppdndq9e4/92von5zo7h.sdf

>  <i_m_source_file_index>  (326) 
43

>  <i_lp_mmshare_version>  (326) 
48012

>  <i_f3d_flags>  (326) 
0

>  <s_epik_input>  (326) 
bjFvbmMoYzEyKW5jKFtjSF1uMilOKFtDSDJdMylbQ0BIXShbQ0BASF0oW0NASF0zNClDNChbQ0gzXSlbQ0gzXSlDKD1PKVtOSF1bQ0BIXShbQ0gyXVtDSDJdNSljKGM1NilbY0hdW2NIXVtjSF1uNg==

>  <s_epik_cmdline>  (326) 
J2VwaWtfcHl0aG9uJywgJy1waHQnLCAnMi4wJywgJy1waCcsICc3LjAnLCAnLXRuJywgJzgnLCAnLW1hJywgJzIwMCcsICctaW1hZScsICc8aW5maWxlLm1hZT4nLCAnLW9tYWUnLCAnPG91dGZpbGUubWFlPic=

>  <r_epik_Ionization_Penalty>  (326) 
0.0652781

>  <r_epik_Ionization_Penalty_Charging>  (326) 
0

>  <r_epik_Ionization_Penalty_Neutral>  (326) 
0.0652781

>  <r_epik_State_Penalty>  (326) 
0.0569173

>  <r_epik_Charging_Adjusted_Penalty>  (326) 
0.0569173

>  <i_epik_Tot_Q>  (326) 
0

>  <i_epik_Tot_abs_Q>  (326) 
0

>  <s_lp_Force_Field>  (326) 
OPLS3e

>  <r_lp_Energy>  (326) 
66.6756

>  <b_lp_Chiralities_Consistent>  (326) 
1

>  <s_lp_Variant>  (326) 
84:0-1

>  <s_i_glide_gridfile>  (326) 
pfpi4k_grid

>  <i_i_glide_lignum>  (326) 
43

>  <i_i_glide_rotatable_bonds>  (326) 
4

>  <r_i_docking_score>  (326) 
-2.56504

>  <r_i_glide_ligand_efficiency>  (326) 
-0.0884496

>  <r_i_glide_ligand_efficiency_sa>  (326) 
-0.271745

>  <r_i_glide_ligand_efficiency_ln>  (326) 
-0.587329

>  <r_i_glide_gscore>  (326) 
-2.56504

>  <r_i_glide_lipo>  (326) 
-0.233208

>  <r_i_glide_hbond>  (326) 
-0.0455833

>  <r_i_glide_metal>  (326) 
-0

>  <r_i_glide_rewards>  (326) 
-0.789901

>  <r_i_glide_evdw>  (326) 
-35.1619

>  <r_i_glide_ecoul>  (326) 
-1.21891

>  <r_i_glide_erotb>  (326) 
0.509469

>  <r_i_glide_esite>  (326) 
-0.0648837

>  <r_i_glide_emodel>  (326) 
-42.5212

>  <r_i_glide_energy>  (326) 
-36.3808

>  <r_i_glide_einternal>  (326) 
0.332353

>  <r_i_glide_intrahb_reward>  (326) 
-0

>  <i_i_glide_confnum>  (326) 
4

>  <i_i_glide_posenum>  (326) 
2

>  <r_i_glide_eff_state_penalty>  (326) 
0

>  <ligand_id>  (326) 
84

>  <original_smiles>  (326) 
CC1(C)C2CN(c3cnc4nonc4n3)C(C(=O)NC3CCc4ncccc43)C21

>  <smiles>  (326) 
[H]c1nc2nonc2nc1N1C([H])([H])C2([H])C([H])(C1([H])C(=O)N([H])C1([H])c3c(nc([H])c([H])c3[H])C([H])([H])C1([H])[H])C2(C([H])([H])[H])C([H])([H])[H]

$$$$
84:1:0
     RDKit          3D

 51 56  0  0  1  0  0  0  0  0999 V2000
    6.2073   -5.5271    0.5224 C   0  0  0  0  0  0  0  0  0  0  0  0
    5.1235   -4.7238    1.2056 C   0  0  0  0  0  0  0  0  0  0  0  0
    5.7339   -3.7569    2.1991 C   0  0  0  0  0  0  0  0  0  0  0  0
    3.8814   -4.3450    0.4270 C   0  0  2  0  0  0  0  0  0  0  0  0
    2.9841   -3.1918    0.8154 C   0  0  0  0  0  0  0  0  0  0  0  0
    2.4301   -3.5429    2.1213 N   0  0  0  0  0  0  0  0  0  0  0  0
    1.6474   -2.6452    2.8871 C   0  0  0  0  0  0  0  0  0  0  0  0
    1.4368   -1.3026    2.4676 C   0  0  0  0  0  0  0  0  0  0  0  0
    0.6483   -0.4542    3.1651 N   0  0  0  0  0  0  0  0  0  0  0  0
    0.0510   -0.9421    4.2741 C   0  0  0  0  0  0  0  0  0  0  0  0
   -0.7878   -0.3083    5.0935 N   0  0  0  0  0  0  0  0  0  0  0  0
   -1.0983   -1.2866    6.0559 O   0  0  0  0  0  0  0  0  0  0  0  0
   -0.4597   -2.5127    5.8007 N   0  0  0  0  0  0  0  0  0  0  0  0
    0.2510   -2.2612    4.6990 C   0  0  0  0  0  0  0  0  0  0  0  0
    1.0609   -3.1066    4.0211 N   0  0  0  0  0  0  0  0  0  0  0  0
    2.8169   -4.8832    2.5772 C   0  0  1  0  0  0  0  0  0  0  0  0
    1.6536   -5.8720    2.7221 C   0  0  0  0  0  0  0  0  0  0  0  0
    0.7387   -5.8961    1.8990 O   0  0  0  0  0  0  0  0  0  0  0  0
    1.7063   -6.6833    3.7809 N   0  0  0  0  0  0  0  0  0  0  0  0
    0.7355   -7.7262    4.0976 C   0  0  2  0  0  0  0  0  0  0  0  0
    0.2616   -7.6474    5.5760 C   0  0  0  0  0  0  0  0  0  0  0  0
    0.3469   -9.0791    6.1717 C   0  0  0  0  0  0  0  0  0  0  0  0
    1.1256   -9.8289    5.1355 C   0  0  0  0  0  0  0  0  0  0  0  0
    1.6172  -11.0734    5.2761 N   0  0  0  0  0  0  0  0  0  0  0  0
    2.3192  -11.6535    4.2664 C   0  0  0  0  0  0  0  0  0  0  0  0
    2.5706  -10.9477    3.0602 C   0  0  0  0  0  0  0  0  0  0  0  0
    2.0772   -9.6358    2.9090 C   0  0  0  0  0  0  0  0  0  0  0  0
    1.3423   -9.0970    3.9796 C   0  0  0  0  0  0  0  0  0  0  0  0
    3.7985   -5.3944    1.5064 C   0  0  2  0  0  0  0  0  0  0  0  0
    6.8925   -4.8621   -0.0036 H   0  0  0  0  0  0  0  0  0  0  0  0
    5.7564   -6.2035   -0.2031 H   0  0  0  0  0  0  0  0  0  0  0  0
    6.7727   -6.1203    1.2350 H   0  0  0  0  0  0  0  0  0  0  0  0
    4.9730   -3.1833    2.7177 H   0  0  0  0  0  0  0  0  0  0  0  0
    6.3955   -3.0496    1.6965 H   0  0  0  0  0  0  0  0  0  0  0  0
    6.2679   -4.3178    2.9603 H   0  0  0  0  0  0  0  0  0  0  0  0
    3.8367   -4.6560   -0.6141 H   0  0  0  0  0  0  0  0  0  0  0  0
    3.5704   -2.2730    0.8423 H   0  0  0  0  0  0  0  0  0  0  0  0
    2.1856   -3.0748    0.0831 H   0  0  0  0  0  0  0  0  0  0  0  0
    1.8823   -0.8987    1.5665 H   0  0  0  0  0  0  0  0  0  0  0  0
    3.3437   -4.7992    3.5277 H   0  0  0  0  0  0  0  0  0  0  0  0
    2.4898   -6.5736    4.4079 H   0  0  0  0  0  0  0  0  0  0  0  0
   -0.1380   -7.7067    3.4407 H   0  0  0  0  0  0  0  0  0  0  0  0
    0.9295   -7.0034    6.1532 H   0  0  0  0  0  0  0  0  0  0  0  0
   -0.7334   -7.2071    5.6524 H   0  0  0  0  0  0  0  0  0  0  0  0
    0.8469   -9.0996    7.1378 H   0  0  0  0  0  0  0  0  0  0  0  0
   -0.6392   -9.5276    6.2709 H   0  0  0  0  0  0  0  0  0  0  0  0
    2.6456  -12.6597    4.4546 H   0  0  0  0  0  0  0  0  0  0  0  0
    3.1295  -11.4059    2.2487 H   0  0  0  0  0  0  0  0  0  0  0  0
    2.2615   -9.0620    2.0120 H   0  0  0  0  0  0  0  0  0  0  0  0
    3.6862   -6.4373    1.1982 H   0  0  0  0  0  0  0  0  0  0  0  0
    1.4498  -11.5862    6.1628 H   0  0  0  0  0  0  0  0  0  0  0  0
  1  2  1  0
  1 30  1  0
  1 31  1  0
  1 32  1  0
  2 29  1  0
  2  3  1  0
  2  4  1  0
  3 33  1  0
  3 34  1  0
  3 35  1  0
  4 29  1  0
  4  5  1  0
  4 36  1  6
  5  6  1  0
  5 37  1  0
  5 38  1  0
  6  7  1  0
  6 16  1  0
  7 15  2  0
  7  8  1  0
  8  9  2  0
  8 39  1  0
  9 10  1  0
 10 14  1  0
 10 11  2  0
 11 12  1  0
 12 13  1  0
 13 14  2  0
 14 15  1  0
 16 17  1  0
 16 29  1  0
 16 40  1  1
 17 18  2  0
 17 19  1  0
 19 20  1  0
 19 41  1  0
 20 28  1  0
 20 21  1  0
 20 42  1  6
 21 22  1  0
 21 43  1  0
 21 44  1  0
 22 23  1  0
 22 45  1  0
 22 46  1  0
 23 28  2  0
 23 24  1  0
 24 25  2  0
 24 51  1  0
 25 26  1  0
 25 47  1  0
 26 27  2  0
 26 48  1  0
 27 28  1  0
 27 49  1  0
 29 50  1  6
M  CHG  1  24   1
M  END
>  <i_m_ct_stereo_status>  (327) 
1

>  <s_m_source_file>  (327) 
/var/tmp/pbs.5076255.sched01/tmppdndq9e4/92von5zo7h.sdf

>  <i_m_source_file_index>  (327) 
44

>  <i_lp_mmshare_version>  (327) 
48012

>  <i_f3d_flags>  (327) 
0

>  <s_epik_input>  (327) 
bjFvbmMoYzEyKW5jKFtjSF1uMilOKFtDSDJdMylbQ0BIXShbQ0BASF0oW0NASF0zNClDNChbQ0gzXSlbQ0gzXSlDKD1PKVtOSF1bQ0BIXShbQ0gyXVtDSDJdNSljKGM1NilbY0hdW2NIXVtjSF1uNg==

>  <s_epik_cmdline>  (327) 
J2VwaWtfcHl0aG9uJywgJy1waHQnLCAnMi4wJywgJy1waCcsICc3LjAnLCAnLXRuJywgJzgnLCAnLW1hJywgJzIwMCcsICctaW1hZScsICc8aW5maWxlLm1hZT4nLCAnLW9tYWUnLCAnPG91dGZpbGUubWFlPic=

>  <r_epik_Ionization_Penalty>  (327) 
1.33917

>  <r_epik_Ionization_Penalty_Charging>  (327) 
1.33917

>  <r_epik_Ionization_Penalty_Neutral>  (327) 
2.11163e-07

>  <r_epik_State_Penalty>  (327) 
1.41626

>  <r_epik_Charging_Adjusted_Penalty>  (327) 
2.75543

>  <i_epik_Tot_Q>  (327) 
1

>  <i_epik_Tot_abs_Q>  (327) 
1

>  <s_lp_Force_Field>  (327) 
OPLS3e

>  <r_lp_Energy>  (327) 
32.073

>  <b_lp_Chiralities_Consistent>  (327) 
1

>  <s_lp_Variant>  (327) 
84:0-2

>  <s_i_glide_gridfile>  (327) 
pfpi4k_grid

>  <i_i_glide_lignum>  (327) 
44

>  <i_i_glide_rotatable_bonds>  (327) 
4

>  <r_i_docking_score>  (327) 
-4.19362

>  <r_i_glide_ligand_efficiency>  (327) 
-0.144607

>  <r_i_glide_ligand_efficiency_sa>  (327) 
-0.44428

>  <r_i_glide_ligand_efficiency_ln>  (327) 
-0.960232

>  <r_i_glide_gscore>  (327) 
-4.19362

>  <r_i_glide_lipo>  (327) 
-0.246091

>  <r_i_glide_hbond>  (327) 
-0.343713

>  <r_i_glide_metal>  (327) 
-0

>  <r_i_glide_rewards>  (327) 
-0.782695

>  <r_i_glide_evdw>  (327) 
-24.8086

>  <r_i_glide_ecoul>  (327) 
-12.1285

>  <r_i_glide_erotb>  (327) 
0.50712

>  <r_i_glide_esite>  (327) 
-0.26853

>  <r_i_glide_emodel>  (327) 
-50.7616

>  <r_i_glide_energy>  (327) 
-36.9371

>  <r_i_glide_einternal>  (327) 
0.856463

>  <r_i_glide_intrahb_reward>  (327) 
-0

>  <i_i_glide_confnum>  (327) 
1

>  <i_i_glide_posenum>  (327) 
24

>  <r_i_glide_eff_state_penalty>  (327) 
0

>  <ligand_id>  (327) 
84

>  <original_smiles>  (327) 
CC1(C)C2CN(c3cnc4nonc4n3)C(C(=O)NC3CCc4ncccc43)C21

>  <smiles>  (327) 
[H]c1nc2nonc2nc1N1C([H])([H])C2([H])C([H])(C1([H])C(=O)N([H])C1([H])c3c([H])c([H])c([H])[n+]([H])c3C([H])([H])C1([H])[H])C2(C([H])([H])[H])C([H])([H])[H]

$$$$
84:1:1
     RDKit          3D

 51 56  0  0  1  0  0  0  0  0999 V2000
    6.0568   -4.6464    0.1402 C   0  0  0  0  0  0  0  0  0  0  0  0
    4.9632   -4.1616    1.0727 C   0  0  0  0  0  0  0  0  0  0  0  0
    5.5493   -3.3764    2.2313 C   0  0  0  0  0  0  0  0  0  0  0  0
    3.6283   -3.7623    0.4853 C   0  0  2  0  0  0  0  0  0  0  0  0
    2.6553   -2.8508    1.1965 C   0  0  0  0  0  0  0  0  0  0  0  0
    2.2461   -3.5675    2.4048 N   0  0  0  0  0  0  0  0  0  0  0  0
    1.4498   -2.9605    3.4088 C   0  0  0  0  0  0  0  0  0  0  0  0
    1.0605   -3.6504    4.5897 C   0  0  0  0  0  0  0  0  0  0  0  0
    0.2514   -3.0860    5.5135 N   0  0  0  0  0  0  0  0  0  0  0  0
   -0.1531   -1.8181    5.2797 C   0  0  0  0  0  0  0  0  0  0  0  0
   -0.9414   -1.0683    6.0460 N   0  0  0  0  0  0  0  0  0  0  0  0
   -1.0319    0.1396    5.3296 O   0  0  0  0  0  0  0  0  0  0  0  0
   -0.2977    0.1040    4.1297 N   0  0  0  0  0  0  0  0  0  0  0  0
    0.2378   -1.1175    4.1310 C   0  0  0  0  0  0  0  0  0  0  0  0
    1.0381   -1.6867    3.1994 N   0  0  0  0  0  0  0  0  0  0  0  0
    2.8039   -4.9216    2.4882 C   0  0  1  0  0  0  0  0  0  0  0  0
    1.7608   -6.0471    2.4786 C   0  0  0  0  0  0  0  0  0  0  0  0
    0.6496   -5.8735    1.9799 O   0  0  0  0  0  0  0  0  0  0  0  0
    2.1179   -7.1761    3.0973 N   0  0  0  0  0  0  0  0  0  0  0  0
    1.1964   -8.2602    3.4204 C   0  0  2  0  0  0  0  0  0  0  0  0
    0.4542   -8.0151    4.7731 C   0  0  0  0  0  0  0  0  0  0  0  0
    0.5580   -9.3195    5.6123 C   0  0  0  0  0  0  0  0  0  0  0  0
    1.5675  -10.1350    4.8592 C   0  0  0  0  0  0  0  0  0  0  0  0
    2.1233  -11.2941    5.2751 N   0  0  0  0  0  0  0  0  0  0  0  0
    3.0419  -11.9343    4.5071 C   0  0  0  0  0  0  0  0  0  0  0  0
    3.4457  -11.3800    3.2651 C   0  0  0  0  0  0  0  0  0  0  0  0
    2.8807  -10.1674    2.8177 C   0  0  0  0  0  0  0  0  0  0  0  0
    1.9245   -9.5591    3.6483 C   0  0  0  0  0  0  0  0  0  0  0  0
    3.7425   -5.0391    1.2742 C   0  0  2  0  0  0  0  0  0  0  0  0
    6.6187   -3.8061   -0.2643 H   0  0  0  0  0  0  0  0  0  0  0  0
    5.6155   -5.1927   -0.6908 H   0  0  0  0  0  0  0  0  0  0  0  0
    6.7432   -5.3142    0.6606 H   0  0  0  0  0  0  0  0  0  0  0  0
    4.7825   -3.0444    2.9208 H   0  0  0  0  0  0  0  0  0  0  0  0
    6.0752   -2.4911    1.8745 H   0  0  0  0  0  0  0  0  0  0  0  0
    6.2192   -4.0112    2.8052 H   0  0  0  0  0  0  0  0  0  0  0  0
    3.5165   -3.8287   -0.5953 H   0  0  0  0  0  0  0  0  0  0  0  0
    3.1273   -1.8930    1.4125 H   0  0  0  0  0  0  0  0  0  0  0  0
    1.8117   -2.6551    0.5471 H   0  0  0  0  0  0  0  0  0  0  0  0
    1.3640   -4.6660    4.8056 H   0  0  0  0  0  0  0  0  0  0  0  0
    3.3998   -5.0004    3.3965 H   0  0  0  0  0  0  0  0  0  0  0  0
    3.0611   -7.2395    3.4542 H   0  0  0  0  0  0  0  0  0  0  0  0
    0.4751   -8.4190    2.6122 H   0  0  0  0  0  0  0  0  0  0  0  0
    0.9488   -7.2227    5.3394 H   0  0  0  0  0  0  0  0  0  0  0  0
   -0.5799   -7.6928    4.6300 H   0  0  0  0  0  0  0  0  0  0  0  0
    0.8755   -9.1373    6.6383 H   0  0  0  0  0  0  0  0  0  0  0  0
   -0.3981   -9.8351    5.6304 H   0  0  0  0  0  0  0  0  0  0  0  0
    3.3953  -12.8768    4.8980 H   0  0  0  0  0  0  0  0  0  0  0  0
    4.1581  -11.8833    2.6193 H   0  0  0  0  0  0  0  0  0  0  0  0
    3.1666   -9.7233    1.8744 H   0  0  0  0  0  0  0  0  0  0  0  0
    3.7174   -5.9859    0.7286 H   0  0  0  0  0  0  0  0  0  0  0  0
    1.8261  -11.7109    6.1798 H   0  0  0  0  0  0  0  0  0  0  0  0
  1  2  1  0
  1 30  1  0
  1 31  1  0
  1 32  1  0
  2 29  1  0
  2  3  1  0
  2  4  1  0
  3 33  1  0
  3 34  1  0
  3 35  1  0
  4 29  1  0
  4  5  1  0
  4 36  1  6
  5  6  1  0
  5 37  1  0
  5 38  1  0
  6  7  1  0
  6 16  1  0
  7 15  2  0
  7  8  1  0
  8  9  2  0
  8 39  1  0
  9 10  1  0
 10 14  1  0
 10 11  2  0
 11 12  1  0
 12 13  1  0
 13 14  2  0
 14 15  1  0
 16 17  1  0
 16 29  1  0
 16 40  1  1
 17 18  2  0
 17 19  1  0
 19 20  1  0
 19 41  1  0
 20 28  1  0
 20 21  1  0
 20 42  1  6
 21 22  1  0
 21 43  1  0
 21 44  1  0
 22 23  1  0
 22 45  1  0
 22 46  1  0
 23 28  2  0
 23 24  1  0
 24 25  2  0
 24 51  1  0
 25 26  1  0
 25 47  1  0
 26 27  2  0
 26 48  1  0
 27 28  1  0
 27 49  1  0
 29 50  1  6
M  CHG  1  24   1
M  END
>  <i_m_ct_stereo_status>  (328) 
1

>  <s_m_source_file>  (328) 
/var/tmp/pbs.5076255.sched01/tmppdndq9e4/92von5zo7h.sdf

>  <i_m_source_file_index>  (328) 
44

>  <i_lp_mmshare_version>  (328) 
48012

>  <i_f3d_flags>  (328) 
0

>  <s_epik_input>  (328) 
bjFvbmMoYzEyKW5jKFtjSF1uMilOKFtDSDJdMylbQ0BIXShbQ0BASF0oW0NASF0zNClDNChbQ0gzXSlbQ0gzXSlDKD1PKVtOSF1bQ0BIXShbQ0gyXVtDSDJdNSljKGM1NilbY0hdW2NIXVtjSF1uNg==

>  <s_epik_cmdline>  (328) 
J2VwaWtfcHl0aG9uJywgJy1waHQnLCAnMi4wJywgJy1waCcsICc3LjAnLCAnLXRuJywgJzgnLCAnLW1hJywgJzIwMCcsICctaW1hZScsICc8aW5maWxlLm1hZT4nLCAnLW9tYWUnLCAnPG91dGZpbGUubWFlPic=

>  <r_epik_Ionization_Penalty>  (328) 
1.33917

>  <r_epik_Ionization_Penalty_Charging>  (328) 
1.33917

>  <r_epik_Ionization_Penalty_Neutral>  (328) 
2.11163e-07

>  <r_epik_State_Penalty>  (328) 
1.41626

>  <r_epik_Charging_Adjusted_Penalty>  (328) 
2.75543

>  <i_epik_Tot_Q>  (328) 
1

>  <i_epik_Tot_abs_Q>  (328) 
1

>  <s_lp_Force_Field>  (328) 
OPLS3e

>  <r_lp_Energy>  (328) 
32.073

>  <b_lp_Chiralities_Consistent>  (328) 
1

>  <s_lp_Variant>  (328) 
84:0-2

>  <s_i_glide_gridfile>  (328) 
pfpi4k_grid

>  <i_i_glide_lignum>  (328) 
44

>  <i_i_glide_rotatable_bonds>  (328) 
4

>  <r_i_docking_score>  (328) 
-4.0577

>  <r_i_glide_ligand_efficiency>  (328) 
-0.139921

>  <r_i_glide_ligand_efficiency_sa>  (328) 
-0.429881

>  <r_i_glide_ligand_efficiency_ln>  (328) 
-0.929111

>  <r_i_glide_gscore>  (328) 
-4.0577

>  <r_i_glide_lipo>  (328) 
-0.221938

>  <r_i_glide_hbond>  (328) 
-0.362426

>  <r_i_glide_metal>  (328) 
-0

>  <r_i_glide_rewards>  (328) 
-0.733402

>  <r_i_glide_evdw>  (328) 
-24.7791

>  <r_i_glide_ecoul>  (328) 
-11.5644

>  <r_i_glide_erotb>  (328) 
0.50712

>  <r_i_glide_esite>  (328) 
-0.273446

>  <r_i_glide_emodel>  (328) 
-49.5437

>  <r_i_glide_energy>  (328) 
-36.3435

>  <r_i_glide_einternal>  (328) 
1.13061

>  <r_i_glide_intrahb_reward>  (328) 
-0

>  <i_i_glide_confnum>  (328) 
2

>  <i_i_glide_posenum>  (328) 
6

>  <r_i_glide_eff_state_penalty>  (328) 
0

>  <ligand_id>  (328) 
84

>  <original_smiles>  (328) 
CC1(C)C2CN(c3cnc4nonc4n3)C(C(=O)NC3CCc4ncccc43)C21

>  <smiles>  (328) 
[H]c1nc2nonc2nc1N1C([H])([H])C2([H])C([H])(C1([H])C(=O)N([H])C1([H])c3c([H])c([H])c([H])[n+]([H])c3C([H])([H])C1([H])[H])C2(C([H])([H])[H])C([H])([H])[H]

$$$$
84:1:2
     RDKit          3D

 51 56  0  0  1  0  0  0  0  0999 V2000
    8.3336   -8.7118    5.1891 C   0  0  0  0  0  0  0  0  0  0  0  0
    7.8472   -7.5879    4.2919 C   0  0  0  0  0  0  0  0  0  0  0  0
    7.9842   -6.2469    4.9897 C   0  0  0  0  0  0  0  0  0  0  0  0
    8.0839   -7.6996    2.8004 C   0  0  2  0  0  0  0  0  0  0  0  0
    8.0975   -6.5205    1.8464 C   0  0  0  0  0  0  0  0  0  0  0  0
    6.7575   -5.9514    1.9067 N   0  0  0  0  0  0  0  0  0  0  0  0
    6.4035   -4.7454    1.2524 C   0  0  0  0  0  0  0  0  0  0  0  0
    7.3078   -4.1007    0.3667 C   0  0  0  0  0  0  0  0  0  0  0  0
    6.9769   -2.9660   -0.2914 N   0  0  0  0  0  0  0  0  0  0  0  0
    5.7379   -2.4710   -0.0680 C   0  0  0  0  0  0  0  0  0  0  0  0
    5.1988   -1.3773   -0.6029 N   0  0  0  0  0  0  0  0  0  0  0  0
    3.9154   -1.3364   -0.0212 O   0  0  0  0  0  0  0  0  0  0  0  0
    3.6925   -2.4124    0.8594 N   0  0  0  0  0  0  0  0  0  0  0  0
    4.8389   -3.0913    0.8078 C   0  0  0  0  0  0  0  0  0  0  0  0
    5.1710   -4.2209    1.4775 N   0  0  0  0  0  0  0  0  0  0  0  0
    5.8211   -6.7394    2.7143 C   0  0  1  0  0  0  0  0  0  0  0  0
    4.6535   -7.3629    1.9315 C   0  0  0  0  0  0  0  0  0  0  0  0
    4.6519   -7.3996    0.7021 O   0  0  0  0  0  0  0  0  0  0  0  0
    3.6588   -7.8623    2.6700 N   0  0  0  0  0  0  0  0  0  0  0  0
    2.4977   -8.5576    2.1256 C   0  0  2  0  0  0  0  0  0  0  0  0
    1.2163   -7.6735    2.1529 C   0  0  0  0  0  0  0  0  0  0  0  0
    0.0717   -8.5279    2.7634 C   0  0  0  0  0  0  0  0  0  0  0  0
    0.7882   -9.7318    3.3016 C   0  0  0  0  0  0  0  0  0  0  0  0
    0.2508  -10.7024    4.0706 N   0  0  0  0  0  0  0  0  0  0  0  0
    1.0105  -11.7393    4.5019 C   0  0  0  0  0  0  0  0  0  0  0  0
    2.3882  -11.8082    4.1888 C   0  0  0  0  0  0  0  0  0  0  0  0
    2.9719  -10.8006    3.3892 C   0  0  0  0  0  0  0  0  0  0  0  0
    2.1295   -9.7572    2.9547 C   0  0  0  0  0  0  0  0  0  0  0  0
    6.6900   -7.8500    3.3452 C   0  0  2  0  0  0  0  0  0  0  0  0
    9.3776   -8.5605    5.4601 H   0  0  0  0  0  0  0  0  0  0  0  0
    8.2536   -9.6695    4.6762 H   0  0  0  0  0  0  0  0  0  0  0  0
    7.7358   -8.7611    6.0974 H   0  0  0  0  0  0  0  0  0  0  0  0
    7.6175   -5.4554    4.3464 H   0  0  0  0  0  0  0  0  0  0  0  0
    9.0305   -6.0288    5.2069 H   0  0  0  0  0  0  0  0  0  0  0  0
    7.3920   -6.2236    5.9046 H   0  0  0  0  0  0  0  0  0  0  0  0
    8.6222   -8.5858    2.4800 H   0  0  0  0  0  0  0  0  0  0  0  0
    8.8630   -5.8117    2.1644 H   0  0  0  0  0  0  0  0  0  0  0  0
    8.3296   -6.8564    0.8332 H   0  0  0  0  0  0  0  0  0  0  0  0
    8.2943   -4.4950    0.1613 H   0  0  0  0  0  0  0  0  0  0  0  0
    5.4171   -6.1193    3.5153 H   0  0  0  0  0  0  0  0  0  0  0  0
    3.7359   -7.7787    3.6732 H   0  0  0  0  0  0  0  0  0  0  0  0
    2.6768   -8.9328    1.1144 H   0  0  0  0  0  0  0  0  0  0  0  0
    1.3831   -6.8125    2.8056 H   0  0  0  0  0  0  0  0  0  0  0  0
    0.9768   -7.2777    1.1634 H   0  0  0  0  0  0  0  0  0  0  0  0
   -0.4687   -7.9946    3.5443 H   0  0  0  0  0  0  0  0  0  0  0  0
   -0.6318   -8.8469    1.9954 H   0  0  0  0  0  0  0  0  0  0  0  0
    0.4860  -12.4598    5.1103 H   0  0  0  0  0  0  0  0  0  0  0  0
    2.9855  -12.6306    4.5612 H   0  0  0  0  0  0  0  0  0  0  0  0
    4.0162  -10.8242    3.1248 H   0  0  0  0  0  0  0  0  0  0  0  0
    6.2612   -8.8537    3.3579 H   0  0  0  0  0  0  0  0  0  0  0  0
   -0.7380  -10.6620    4.3653 H   0  0  0  0  0  0  0  0  0  0  0  0
  1  2  1  0
  1 30  1  0
  1 31  1  0
  1 32  1  0
  2 29  1  0
  2  3  1  0
  2  4  1  0
  3 33  1  0
  3 34  1  0
  3 35  1  0
  4 29  1  0
  4  5  1  0
  4 36  1  1
  5  6  1  0
  5 37  1  0
  5 38  1  0
  6  7  1  0
  6 16  1  0
  7 15  2  0
  7  8  1  0
  8  9  2  0
  8 39  1  0
  9 10  1  0
 10 14  1  0
 10 11  2  0
 11 12  1  0
 12 13  1  0
 13 14  2  0
 14 15  1  0
 16 17  1  0
 16 29  1  0
 16 40  1  1
 17 18  2  0
 17 19  1  0
 19 20  1  0
 19 41  1  0
 20 28  1  0
 20 21  1  0
 20 42  1  6
 21 22  1  0
 21 43  1  0
 21 44  1  0
 22 23  1  0
 22 45  1  0
 22 46  1  0
 23 28  2  0
 23 24  1  0
 24 25  2  0
 24 51  1  0
 25 26  1  0
 25 47  1  0
 26 27  2  0
 26 48  1  0
 27 28  1  0
 27 49  1  0
 29 50  1  1
M  CHG  1  24   1
M  END
>  <i_m_ct_stereo_status>  (329) 
1

>  <s_m_source_file>  (329) 
/var/tmp/pbs.5076255.sched01/tmppdndq9e4/92von5zo7h.sdf

>  <i_m_source_file_index>  (329) 
44

>  <i_lp_mmshare_version>  (329) 
48012

>  <i_f3d_flags>  (329) 
0

>  <s_epik_input>  (329) 
bjFvbmMoYzEyKW5jKFtjSF1uMilOKFtDSDJdMylbQ0BIXShbQ0BASF0oW0NASF0zNClDNChbQ0gzXSlbQ0gzXSlDKD1PKVtOSF1bQ0BIXShbQ0gyXVtDSDJdNSljKGM1NilbY0hdW2NIXVtjSF1uNg==

>  <s_epik_cmdline>  (329) 
J2VwaWtfcHl0aG9uJywgJy1waHQnLCAnMi4wJywgJy1waCcsICc3LjAnLCAnLXRuJywgJzgnLCAnLW1hJywgJzIwMCcsICctaW1hZScsICc8aW5maWxlLm1hZT4nLCAnLW9tYWUnLCAnPG91dGZpbGUubWFlPic=

>  <r_epik_Ionization_Penalty>  (329) 
1.33917

>  <r_epik_Ionization_Penalty_Charging>  (329) 
1.33917

>  <r_epik_Ionization_Penalty_Neutral>  (329) 
2.11163e-07

>  <r_epik_State_Penalty>  (329) 
1.41626

>  <r_epik_Charging_Adjusted_Penalty>  (329) 
2.75543

>  <i_epik_Tot_Q>  (329) 
1

>  <i_epik_Tot_abs_Q>  (329) 
1

>  <s_lp_Force_Field>  (329) 
OPLS3e

>  <r_lp_Energy>  (329) 
32.073

>  <b_lp_Chiralities_Consistent>  (329) 
1

>  <s_lp_Variant>  (329) 
84:0-2

>  <s_i_glide_gridfile>  (329) 
pfpi4k_grid

>  <i_i_glide_lignum>  (329) 
44

>  <i_i_glide_rotatable_bonds>  (329) 
4

>  <r_i_docking_score>  (329) 
-3.51854

>  <r_i_glide_ligand_efficiency>  (329) 
-0.121329

>  <r_i_glide_ligand_efficiency_sa>  (329) 
-0.372761

>  <r_i_glide_ligand_efficiency_ln>  (329) 
-0.805657

>  <r_i_glide_gscore>  (329) 
-3.51854

>  <r_i_glide_lipo>  (329) 
-0.313541

>  <r_i_glide_hbond>  (329) 
-0.2

>  <r_i_glide_metal>  (329) 
-0

>  <r_i_glide_rewards>  (329) 
-0.909328

>  <r_i_glide_evdw>  (329) 
-31.3326

>  <r_i_glide_ecoul>  (329) 
-5.80399

>  <r_i_glide_erotb>  (329) 
0.50712

>  <r_i_glide_esite>  (329) 
-0.165564

>  <r_i_glide_emodel>  (329) 
-48.7743

>  <r_i_glide_energy>  (329) 
-37.1366

>  <r_i_glide_einternal>  (329) 
0.695372

>  <r_i_glide_intrahb_reward>  (329) 
-0

>  <i_i_glide_confnum>  (329) 
1

>  <i_i_glide_posenum>  (329) 
2

>  <r_i_glide_eff_state_penalty>  (329) 
0

>  <ligand_id>  (329) 
84

>  <original_smiles>  (329) 
CC1(C)C2CN(c3cnc4nonc4n3)C(C(=O)NC3CCc4ncccc43)C21

>  <smiles>  (329) 
[H]c1nc2nonc2nc1N1C([H])([H])C2([H])C([H])(C1([H])C(=O)N([H])C1([H])c3c([H])c([H])c([H])[n+]([H])c3C([H])([H])C1([H])[H])C2(C([H])([H])[H])C([H])([H])[H]

$$$$
85:0:0
     RDKit          3D

 66 72  0  0  1  0  0  0  0  0999 V2000
    0.9612  -11.4122    3.6151 C   0  0  0  0  0  0  0  0  0  0  0  0
    2.2283  -10.5774    3.6788 C   0  0  1  0  0  0  0  0  0  0  0  0
    3.3621  -11.2022    4.4388 C   0  0  0  0  0  0  0  0  0  0  0  0
    4.6139  -11.3009    3.5561 C   0  0  0  0  0  0  0  0  0  0  0  0
    5.1528  -12.3993    3.4462 O   0  0  0  0  0  0  0  0  0  0  0  0
    5.1578  -10.0392    2.8009 C   0  0  1  0  0  0  0  0  0  0  0  0
    5.8523  -10.5909    1.6829 O   0  0  0  0  0  0  0  0  0  0  0  0
    3.9594   -9.1532    2.2021 C   0  0  2  0  0  0  0  0  0  0  0  0
    4.0272   -7.5989    2.3158 C   0  0  0  0  0  0  0  0  0  0  0  0
    5.3065   -6.7098    2.2042 C   0  0  2  0  0  0  0  0  0  0  0  0
    4.9414   -5.4362    1.3882 C   0  0  0  0  0  0  0  0  0  0  0  0
    5.1361   -5.2253    0.0889 C   0  0  0  0  0  0  0  0  0  0  0  0
    4.7186   -3.8549   -0.2290 C   0  0  0  0  0  0  0  0  0  0  0  0
    4.7667   -3.3233   -1.3420 O   0  0  0  0  0  0  0  0  0  0  0  0
    4.3045   -3.2876    0.9100 O   0  0  0  0  0  0  0  0  0  0  0  0
    4.3309   -4.1909    2.0098 C   0  0  1  0  0  0  0  0  0  0  0  0
    2.9357   -4.3170    2.6214 C   0  0  0  0  0  0  0  0  0  0  0  0
    2.2720   -3.2654    3.3565 C   0  0  0  0  0  0  0  0  0  0  0  0
    1.0584   -3.7788    3.7692 C   0  0  0  0  0  0  0  0  0  0  0  0
    0.9266   -5.0682    3.3053 O   0  0  0  0  0  0  0  0  0  0  0  0
    2.0412   -5.3556    2.5801 C   0  0  0  0  0  0  0  0  0  0  0  0
    6.3207   -7.6090    1.4932 C   0  0  0  0  0  0  0  0  0  0  0  0
    7.1141   -8.1881    2.6736 C   0  0  1  0  0  0  0  0  0  0  0  0
    7.5169   -6.8621    3.3738 C   0  0  0  0  0  0  0  0  0  0  0  0
    8.4005   -7.0440    4.6376 C   0  0  0  0  0  0  0  0  0  0  0  0
    8.3602   -5.8877    2.4919 C   0  0  0  0  0  0  0  0  0  0  0  0
    6.0747   -6.3192    3.5515 C   0  0  2  0  0  0  0  0  0  0  0  0
    5.5145   -6.9366    4.8485 C   0  0  1  0  0  0  0  0  0  0  0  0
    4.2689   -6.3792    5.2385 O   0  0  0  0  0  0  0  0  0  0  0  0
    5.5382   -8.4870    4.8264 C   0  0  0  0  0  0  0  0  0  0  0  0
    6.2525   -9.1972    3.6063 C   0  0  1  0  0  0  0  0  0  0  0  0
    7.2853  -10.2012    4.2141 C   0  0  0  0  0  0  0  0  0  0  0  0
    2.5317   -9.5727    2.5958 C   0  0  2  0  0  0  0  0  0  0  0  0
    2.0777   -9.1713    3.9106 O   0  0  0  0  0  0  0  0  0  0  0  0
    1.1574  -12.3174    3.0424 H   0  0  0  0  0  0  0  0  0  0  0  0
    0.1619  -10.8736    3.1044 H   0  0  0  0  0  0  0  0  0  0  0  0
    0.6130  -11.6898    4.6128 H   0  0  0  0  0  0  0  0  0  0  0  0
    3.5565  -10.6166    5.3375 H   0  0  0  0  0  0  0  0  0  0  0  0
    3.0633  -12.1983    4.7731 H   0  0  0  0  0  0  0  0  0  0  0  0
    5.2365  -11.1456    1.2022 H   0  0  0  0  0  0  0  0  0  0  0  0
    3.9653   -9.3769    1.1273 H   0  0  0  0  0  0  0  0  0  0  0  0
    3.4271   -7.3036    1.4548 H   0  0  0  0  0  0  0  0  0  0  0  0
    3.4185   -7.2748    3.1613 H   0  0  0  0  0  0  0  0  0  0  0  0
    5.5463   -5.8900   -0.6455 H   0  0  0  0  0  0  0  0  0  0  0  0
    5.0276   -3.7628    2.7252 H   0  0  0  0  0  0  0  0  0  0  0  0
    2.6088   -2.2437    3.5442 H   0  0  0  0  0  0  0  0  0  0  0  0
    0.1955   -3.4030    4.3083 H   0  0  0  0  0  0  0  0  0  0  0  0
    1.9951   -6.3317    2.1245 H   0  0  0  0  0  0  0  0  0  0  0  0
    5.8745   -8.3254    0.8132 H   0  0  0  0  0  0  0  0  0  0  0  0
    6.9835   -7.0613    0.8214 H   0  0  0  0  0  0  0  0  0  0  0  0
    7.9911   -8.6878    2.2845 H   0  0  0  0  0  0  0  0  0  0  0  0
    8.5751   -6.0875    5.1328 H   0  0  0  0  0  0  0  0  0  0  0  0
    9.3770   -7.4512    4.3650 H   0  0  0  0  0  0  0  0  0  0  0  0
    7.9977   -7.7082    5.3989 H   0  0  0  0  0  0  0  0  0  0  0  0
    8.8104   -5.0984    3.0937 H   0  0  0  0  0  0  0  0  0  0  0  0
    7.7867   -5.3597    1.7316 H   0  0  0  0  0  0  0  0  0  0  0  0
    9.1800   -6.4105    1.9992 H   0  0  0  0  0  0  0  0  0  0  0  0
    6.1380   -5.2407    3.6977 H   0  0  0  0  0  0  0  0  0  0  0  0
    6.1451   -6.5984    5.6699 H   0  0  0  0  0  0  0  0  0  0  0  0
    3.6061   -6.6286    4.6238 H   0  0  0  0  0  0  0  0  0  0  0  0
    5.9722   -8.8102    5.7777 H   0  0  0  0  0  0  0  0  0  0  0  0
    4.5031   -8.8023    4.9174 H   0  0  0  0  0  0  0  0  0  0  0  0
    8.1468   -9.7021    4.6485 H   0  0  0  0  0  0  0  0  0  0  0  0
    7.6732  -10.8833    3.4597 H   0  0  0  0  0  0  0  0  0  0  0  0
    6.8501  -10.8092    5.0134 H   0  0  0  0  0  0  0  0  0  0  0  0
    1.7761   -9.3974    1.8302 H   0  0  0  0  0  0  0  0  0  0  0  0
  2  1  1  6
  1 35  1  0
  1 36  1  0
  1 37  1  0
  2 33  1  0
  2 34  1  0
  2  3  1  0
  3  4  1  0
  3 38  1  0
  3 39  1  0
  4  5  2  0
  4  6  1  0
  6 31  1  0
  6  7  1  6
  6  8  1  0
  7 40  1  0
  8  9  1  0
  8 33  1  0
  8 41  1  6
  9 10  1  0
  9 42  1  0
  9 43  1  0
 10 27  1  0
 10 11  1  6
 10 22  1  0
 11 16  1  0
 11 12  2  0
 12 13  1  0
 12 44  1  0
 13 14  2  0
 13 15  1  0
 15 16  1  0
 16 17  1  0
 16 45  1  1
 17 21  2  0
 17 18  1  0
 18 19  2  0
 18 46  1  0
 19 20  1  0
 19 47  1  0
 20 21  1  0
 21 48  1  0
 22 23  1  0
 22 49  1  0
 22 50  1  0
 23 31  1  0
 23 24  1  0
 23 51  1  6
 24 25  1  0
 24 26  1  0
 24 27  1  0
 25 52  1  0
 25 53  1  0
 25 54  1  0
 26 55  1  0
 26 56  1  0
 26 57  1  0
 27 28  1  0
 27 58  1  1
 28 29  1  0
 28 30  1  0
 28 59  1  1
 29 60  1  0
 30 31  1  0
 30 61  1  0
 30 62  1  0
 31 32  1  1
 32 63  1  0
 32 64  1  0
 32 65  1  0
 33 34  1  0
 33 66  1  6
M  END
>  <i_m_ct_stereo_status>  (330) 
1

>  <s_m_source_file>  (330) 
/var/tmp/pbs.5076255.sched01/tmppdndq9e4/92von5zo7h.sdf

>  <i_m_source_file_index>  (330) 
45

>  <i_lp_mmshare_version>  (330) 
48012

>  <i_f3d_flags>  (330) 
0

>  <s_epik_input>  (330) 
W0NIM11bQ0BdMTJbQ0BASF0oTzIpW0NAQEhdM1tDQF0oW09IXSkoQyg9TylbQ0gyXTEpW0NAQF00KFtDSDNdKVtDQEhdNVtDSDJdW0NAQF0oW0NIMl0zKShbQ0BIXShDNShbQ0gzXSlbQ0gzXSlbQ0BASF0oW09IXSlbQ0gyXTQpQzY9W0NIXUMoPU8pT1tDQEhdNmM3W2NIXVtjSF1vW2NIXTc=

>  <s_epik_cmdline>  (330) 
J2VwaWtfcHl0aG9uJywgJy1waHQnLCAnMi4wJywgJy1waCcsICc3LjAnLCAnLXRuJywgJzgnLCAnLW1hJywgJzIwMCcsICctaW1hZScsICc8aW5maWxlLm1hZT4nLCAnLW9tYWUnLCAnPG91dGZpbGUubWFlPic=

>  <r_lp_tautomer_probability>  (330) 
1

>  <r_epik_Ionization_Penalty>  (330) 
1.61824e-07

>  <r_epik_Ionization_Penalty_Charging>  (330) 
0

>  <r_epik_Ionization_Penalty_Neutral>  (330) 
1.61824e-07

>  <r_epik_State_Penalty>  (330) 
-0

>  <r_epik_Charging_Adjusted_Penalty>  (330) 
0

>  <i_epik_Tot_Q>  (330) 
0

>  <i_epik_Tot_abs_Q>  (330) 
0

>  <s_epik_Chemistry_Notes>  (330) 
This compound has an ester and may undergo hydrolysis at high or low pH.

>  <s_lp_Force_Field>  (330) 
OPLS3e

>  <r_lp_Energy>  (330) 
95.344

>  <b_lp_Chiralities_Consistent>  (330) 
1

>  <s_lp_Variant>  (330) 
85:0-1

>  <s_i_glide_gridfile>  (330) 
pfpi4k_grid

>  <i_i_glide_lignum>  (330) 
45

>  <i_i_glide_rotatable_bonds>  (330) 
4

>  <r_i_docking_score>  (330) 
-2.83493

>  <r_i_glide_ligand_efficiency>  (330) 
-0.0833804

>  <r_i_glide_ligand_efficiency_sa>  (330) 
-0.27012

>  <r_i_glide_ligand_efficiency_ln>  (330) 
-0.626316

>  <r_i_glide_gscore>  (330) 
-2.83493

>  <r_i_glide_lipo>  (330) 
-0.509985

>  <r_i_glide_hbond>  (330) 
0

>  <r_i_glide_metal>  (330) 
-0

>  <r_i_glide_rewards>  (330) 
-0.256063

>  <r_i_glide_evdw>  (330) 
-29.0149

>  <r_i_glide_ecoul>  (330) 
-5.12741

>  <r_i_glide_erotb>  (330) 
0.183946

>  <r_i_glide_esite>  (330) 
-0.0329775

>  <r_i_glide_emodel>  (330) 
-37.9241

>  <r_i_glide_energy>  (330) 
-34.1423

>  <r_i_glide_einternal>  (330) 
2.3266

>  <r_i_glide_intrahb_reward>  (330) 
-0

>  <i_i_glide_confnum>  (330) 
6

>  <i_i_glide_posenum>  (330) 
35

>  <r_i_glide_eff_state_penalty>  (330) 
0

>  <ligand_id>  (330) 
85

>  <original_smiles>  (330) 
CC12CC(=O)C3(O)C(CC4(C5=CC(=O)OC5c5ccoc5)CC5C(C)(C)C4C(O)CC53C)C1O2

>  <smiles>  (330) 
[H]OC1([H])C([H])([H])C2(C([H])([H])[H])C3(O[H])C(=O)C([H])([H])C4(C([H])([H])[H])OC4([H])C3([H])C([H])([H])C3(C4=C([H])C(=O)OC4([H])c4c([H])oc([H])c4[H])C([H])([H])C2([H])C(C([H])([H])[H])(C([H])([H])[H])C13[H]

$$$$
85:0:1
     RDKit          3D

 66 72  0  0  1  0  0  0  0  0999 V2000
   -1.7414   -8.0522    3.1002 C   0  0  0  0  0  0  0  0  0  0  0  0
   -0.2450   -7.8285    3.1304 C   0  0  1  0  0  0  0  0  0  0  0  0
    0.5491   -8.8564    3.8933 C   0  0  0  0  0  0  0  0  0  0  0  0
    1.6052   -9.4868    2.9922 C   0  0  0  0  0  0  0  0  0  0  0  0
    1.6290  -10.7173    2.8887 O   0  0  0  0  0  0  0  0  0  0  0  0
    2.6175   -8.5792    2.2014 C   0  0  1  0  0  0  0  0  0  0  0  0
    2.9906   -9.3907    1.0732 O   0  0  0  0  0  0  0  0  0  0  0  0
    1.8922   -7.3072    1.5881 C   0  0  2  0  0  0  0  0  0  0  0  0
    2.5972   -5.8853    1.6621 C   0  0  0  0  0  0  0  0  0  0  0  0
    4.1515   -5.6808    1.5022 C   0  0  2  0  0  0  0  0  0  0  0  0
    4.3777   -4.3945    0.6442 C   0  0  0  0  0  0  0  0  0  0  0  0
    4.6049   -4.3129   -0.6613 C   0  0  0  0  0  0  0  0  0  0  0  0
    4.8335   -2.9148   -1.0403 C   0  0  0  0  0  0  0  0  0  0  0  0
    5.0357   -2.4683   -2.1661 O   0  0  0  0  0  0  0  0  0  0  0  0
    4.7882   -2.1955    0.1044 O   0  0  0  0  0  0  0  0  0  0  0  0
    4.4395   -2.9832    1.2284 C   0  0  1  0  0  0  0  0  0  0  0  0
    3.1626   -2.4592    1.9163 C   0  0  0  0  0  0  0  0  0  0  0  0
    2.5061   -1.1934    1.6524 C   0  0  0  0  0  0  0  0  0  0  0  0
    1.4174   -1.1509    2.4690 C   0  0  0  0  0  0  0  0  0  0  0  0
    1.3409   -2.2618    3.2482 O   0  0  0  0  0  0  0  0  0  0  0  0
    2.4202   -3.0545    2.9097 C   0  0  0  0  0  0  0  0  0  0  0  0
    4.6701   -6.9403    0.7985 C   0  0  0  0  0  0  0  0  0  0  0  0
    5.1744   -7.7981    1.9859 C   0  0  1  0  0  0  0  0  0  0  0  0
    6.1286   -6.7596    2.6346 C   0  0  0  0  0  0  0  0  0  0  0  0
    6.8967   -7.2898    3.8908 C   0  0  0  0  0  0  0  0  0  0  0  0
    7.2954   -6.2670    1.7233 C   0  0  0  0  0  0  0  0  0  0  0  0
    5.0570   -5.6461    2.8330 C   0  0  2  0  0  0  0  0  0  0  0  0
    4.3714   -5.9808    4.2021 C   0  0  1  0  0  0  0  0  0  0  0  0
    3.6252   -5.0248    4.8231 O   0  0  0  0  0  0  0  0  0  0  0  0
    3.7007   -7.3661    4.1857 C   0  0  0  0  0  0  0  0  0  0  0  0
    4.0018   -8.3255    2.9592 C   0  0  1  0  0  0  0  0  0  0  0  0
    4.5120   -9.6614    3.5856 C   0  0  0  0  0  0  0  0  0  0  0  0
    0.4287   -7.0664    2.0131 C   0  0  2  0  0  0  0  0  0  0  0  0
    0.2036   -6.4935    3.3030 O   0  0  0  0  0  0  0  0  0  0  0  0
   -1.9666   -8.9808    2.5727 H   0  0  0  0  0  0  0  0  0  0  0  0
   -2.2416   -7.2380    2.5810 H   0  0  0  0  0  0  0  0  0  0  0  0
   -2.1506   -8.1207    4.1153 H   0  0  0  0  0  0  0  0  0  0  0  0
    1.0076   -8.4007    4.7625 H   0  0  0  0  0  0  0  0  0  0  0  0
   -0.1347   -9.6329    4.2672 H   0  0  0  0  0  0  0  0  0  0  0  0
    3.3656  -10.2153    1.3836 H   0  0  0  0  0  0  0  0  0  0  0  0
    1.7546   -7.5044    0.5281 H   0  0  0  0  0  0  0  0  0  0  0  0
    2.1322   -5.3323    0.8341 H   0  0  0  0  0  0  0  0  0  0  0  0
    2.2847   -5.5026    2.5820 H   0  0  0  0  0  0  0  0  0  0  0  0
    4.6388   -5.1273   -1.3939 H   0  0  0  0  0  0  0  0  0  0  0  0
    5.2742   -2.9081    1.9266 H   0  0  0  0  0  0  0  0  0  0  0  0
    2.7704   -0.4267    0.9214 H   0  0  0  0  0  0  0  0  0  0  0  0
    0.5770   -0.4693    2.6701 H   0  0  0  0  0  0  0  0  0  0  0  0
    2.4075   -3.9105    3.4781 H   0  0  0  0  0  0  0  0  0  0  0  0
    3.9590   -7.4220    0.1302 H   0  0  0  0  0  0  0  0  0  0  0  0
    5.4760   -6.7385    0.0977 H   0  0  0  0  0  0  0  0  0  0  0  0
    5.7358   -8.6567    1.5892 H   0  0  0  0  0  0  0  0  0  0  0  0
    7.4703   -6.4898    4.3634 H   0  0  0  0  0  0  0  0  0  0  0  0
    7.5974   -8.0788    3.6255 H   0  0  0  0  0  0  0  0  0  0  0  0
    6.2777   -7.7101    4.6775 H   0  0  0  0  0  0  0  0  0  0  0  0
    8.0533   -5.7316    2.2982 H   0  0  0  0  0  0  0  0  0  0  0  0
    6.9926   -5.5618    0.9506 H   0  0  0  0  0  0  0  0  0  0  0  0
    7.8103   -7.1011    1.2360 H   0  0  0  0  0  0  0  0  0  0  0  0
    5.5827   -4.7021    2.9512 H   0  0  0  0  0  0  0  0  0  0  0  0
    5.1809   -6.0042    4.9282 H   0  0  0  0  0  0  0  0  0  0  0  0
    4.0058   -4.1627    4.6664 H   0  0  0  0  0  0  0  0  0  0  0  0
    3.9619   -7.8433    5.1339 H   0  0  0  0  0  0  0  0  0  0  0  0
    2.6381   -7.1770    4.2718 H   0  0  0  0  0  0  0  0  0  0  0  0
    5.5108   -9.5770    3.9978 H   0  0  0  0  0  0  0  0  0  0  0  0
    4.5615  -10.4727    2.8529 H   0  0  0  0  0  0  0  0  0  0  0  0
    3.8824  -10.0093    4.4048 H   0  0  0  0  0  0  0  0  0  0  0  0
   -0.1880   -6.6213    1.2480 H   0  0  0  0  0  0  0  0  0  0  0  0
  2  1  1  6
  1 35  1  0
  1 36  1  0
  1 37  1  0
  2 33  1  0
  2 34  1  0
  2  3  1  0
  3  4  1  0
  3 38  1  0
  3 39  1  0
  4  5  2  0
  4  6  1  0
  6 31  1  0
  6  7  1  6
  6  8  1  0
  7 40  1  0
  8  9  1  0
  8 33  1  0
  8 41  1  6
  9 10  1  0
  9 42  1  0
  9 43  1  0
 10 27  1  0
 10 11  1  6
 10 22  1  0
 11 16  1  0
 11 12  2  0
 12 13  1  0
 12 44  1  0
 13 14  2  0
 13 15  1  0
 15 16  1  0
 16 17  1  0
 16 45  1  1
 17 21  2  0
 17 18  1  0
 18 19  2  0
 18 46  1  0
 19 20  1  0
 19 47  1  0
 20 21  1  0
 21 48  1  0
 22 23  1  0
 22 49  1  0
 22 50  1  0
 23 31  1  0
 23 24  1  0
 23 51  1  6
 24 25  1  0
 24 26  1  0
 24 27  1  0
 25 52  1  0
 25 53  1  0
 25 54  1  0
 26 55  1  0
 26 56  1  0
 26 57  1  0
 27 28  1  0
 27 58  1  1
 28 29  1  0
 28 30  1  0
 28 59  1  1
 29 60  1  0
 30 31  1  0
 30 61  1  0
 30 62  1  0
 31 32  1  1
 32 63  1  0
 32 64  1  0
 32 65  1  0
 33 34  1  0
 33 66  1  6
M  END
>  <i_m_ct_stereo_status>  (331) 
1

>  <s_m_source_file>  (331) 
/var/tmp/pbs.5076255.sched01/tmppdndq9e4/92von5zo7h.sdf

>  <i_m_source_file_index>  (331) 
45

>  <i_lp_mmshare_version>  (331) 
48012

>  <i_f3d_flags>  (331) 
0

>  <s_epik_input>  (331) 
W0NIM11bQ0BdMTJbQ0BASF0oTzIpW0NAQEhdM1tDQF0oW09IXSkoQyg9TylbQ0gyXTEpW0NAQF00KFtDSDNdKVtDQEhdNVtDSDJdW0NAQF0oW0NIMl0zKShbQ0BIXShDNShbQ0gzXSlbQ0gzXSlbQ0BASF0oW09IXSlbQ0gyXTQpQzY9W0NIXUMoPU8pT1tDQEhdNmM3W2NIXVtjSF1vW2NIXTc=

>  <s_epik_cmdline>  (331) 
J2VwaWtfcHl0aG9uJywgJy1waHQnLCAnMi4wJywgJy1waCcsICc3LjAnLCAnLXRuJywgJzgnLCAnLW1hJywgJzIwMCcsICctaW1hZScsICc8aW5maWxlLm1hZT4nLCAnLW9tYWUnLCAnPG91dGZpbGUubWFlPic=

>  <r_lp_tautomer_probability>  (331) 
1

>  <r_epik_Ionization_Penalty>  (331) 
1.61824e-07

>  <r_epik_Ionization_Penalty_Charging>  (331) 
0

>  <r_epik_Ionization_Penalty_Neutral>  (331) 
1.61824e-07

>  <r_epik_State_Penalty>  (331) 
-0

>  <r_epik_Charging_Adjusted_Penalty>  (331) 
0

>  <i_epik_Tot_Q>  (331) 
0

>  <i_epik_Tot_abs_Q>  (331) 
0

>  <s_epik_Chemistry_Notes>  (331) 
This compound has an ester and may undergo hydrolysis at high or low pH.

>  <s_lp_Force_Field>  (331) 
OPLS3e

>  <r_lp_Energy>  (331) 
95.344

>  <b_lp_Chiralities_Consistent>  (331) 
1

>  <s_lp_Variant>  (331) 
85:0-1

>  <s_i_glide_gridfile>  (331) 
pfpi4k_grid

>  <i_i_glide_lignum>  (331) 
45

>  <i_i_glide_rotatable_bonds>  (331) 
4

>  <r_i_docking_score>  (331) 
-2.32775

>  <r_i_glide_ligand_efficiency>  (331) 
-0.0684634

>  <r_i_glide_ligand_efficiency_sa>  (331) 
-0.221795

>  <r_i_glide_ligand_efficiency_ln>  (331) 
-0.514266

>  <r_i_glide_gscore>  (331) 
-2.32775

>  <r_i_glide_lipo>  (331) 
-0.275419

>  <r_i_glide_hbond>  (331) 
-0.0432767

>  <r_i_glide_metal>  (331) 
-0

>  <r_i_glide_rewards>  (331) 
-0.245925

>  <r_i_glide_evdw>  (331) 
-34.8478

>  <r_i_glide_ecoul>  (331) 
-1.3646

>  <r_i_glide_erotb>  (331) 
0.183946

>  <r_i_glide_esite>  (331) 
0

>  <r_i_glide_emodel>  (331) 
-36.8948

>  <r_i_glide_energy>  (331) 
-36.2124

>  <r_i_glide_einternal>  (331) 
2.83835

>  <r_i_glide_intrahb_reward>  (331) 
-0

>  <i_i_glide_confnum>  (331) 
2

>  <i_i_glide_posenum>  (331) 
17

>  <r_i_glide_eff_state_penalty>  (331) 
0

>  <ligand_id>  (331) 
85

>  <original_smiles>  (331) 
CC12CC(=O)C3(O)C(CC4(C5=CC(=O)OC5c5ccoc5)CC5C(C)(C)C4C(O)CC53C)C1O2

>  <smiles>  (331) 
[H]OC1([H])C([H])([H])C2(C([H])([H])[H])C3(O[H])C(=O)C([H])([H])C4(C([H])([H])[H])OC4([H])C3([H])C([H])([H])C3(C4=C([H])C(=O)OC4([H])c4c([H])oc([H])c4[H])C([H])([H])C2([H])C(C([H])([H])[H])(C([H])([H])[H])C13[H]

$$$$
85:0:2
     RDKit          3D

 66 72  0  0  1  0  0  0  0  0999 V2000
   -1.7613   -8.1930    3.2820 C   0  0  0  0  0  0  0  0  0  0  0  0
   -0.2517   -7.9587    3.2876 C   0  0  1  0  0  0  0  0  0  0  0  0
    0.5585   -9.0287    3.9922 C   0  0  0  0  0  0  0  0  0  0  0  0
    1.5853   -9.6266    3.0417 C   0  0  0  0  0  0  0  0  0  0  0  0
    1.6080  -10.8462    2.8901 O   0  0  0  0  0  0  0  0  0  0  0  0
    2.5849   -8.6941    2.2656 C   0  0  1  0  0  0  0  0  0  0  0  0
    2.9250   -9.4534    1.1005 O   0  0  0  0  0  0  0  0  0  0  0  0
    1.8596   -7.3525    1.7620 C   0  0  2  0  0  0  0  0  0  0  0  0
    2.5756   -5.9504    1.8582 C   0  0  0  0  0  0  0  0  0  0  0  0
    4.1172   -5.7551    1.6578 C   0  0  2  0  0  0  0  0  0  0  0  0
    4.3230   -4.4370    0.8460 C   0  0  0  0  0  0  0  0  0  0  0  0
    4.5578   -4.3089   -0.4731 C   0  0  0  0  0  0  0  0  0  0  0  0
    4.7575   -2.8961   -0.7857 C   0  0  0  0  0  0  0  0  0  0  0  0
    4.9629   -2.4038   -1.8908 O   0  0  0  0  0  0  0  0  0  0  0  0
    4.6923   -2.2146    0.3660 O   0  0  0  0  0  0  0  0  0  0  0  0
    4.3300   -3.0402    1.4598 C   0  0  1  0  0  0  0  0  0  0  0  0
    3.0237   -2.5351    2.0902 C   0  0  0  0  0  0  0  0  0  0  0  0
    2.4040   -2.9629    3.2774 C   0  0  0  0  0  0  0  0  0  0  0  0
    1.2810   -2.2696    3.5023 C   0  0  0  0  0  0  0  0  0  0  0  0
    1.1219   -1.3744    2.5254 O   0  0  0  0  0  0  0  0  0  0  0  0
    2.1969   -1.5367    1.6653 C   0  0  0  0  0  0  0  0  0  0  0  0
    4.6107   -6.9997    0.8876 C   0  0  0  0  0  0  0  0  0  0  0  0
    5.1439   -7.9006    2.0206 C   0  0  1  0  0  0  0  0  0  0  0  0
    6.1106   -6.8871    2.6977 C   0  0  0  0  0  0  0  0  0  0  0  0
    6.9091   -7.4643    3.9162 C   0  0  0  0  0  0  0  0  0  0  0  0
    7.2630   -6.3511    1.7767 C   0  0  0  0  0  0  0  0  0  0  0  0
    5.0458   -5.7895    2.9727 C   0  0  2  0  0  0  0  0  0  0  0  0
    4.4189   -6.1915    4.3171 C   0  0  1  0  0  0  0  0  0  0  0  0
    3.6519   -5.2292    5.0014 O   0  0  0  0  0  0  0  0  0  0  0  0
    3.7176   -7.5444    4.2757 C   0  0  0  0  0  0  0  0  0  0  0  0
    3.9903   -8.4515    3.0153 C   0  0  1  0  0  0  0  0  0  0  0  0
    4.5173   -9.8268    3.5668 C   0  0  0  0  0  0  0  0  0  0  0  0
    0.3962   -7.1497    2.2053 C   0  0  2  0  0  0  0  0  0  0  0  0
    0.1888   -6.6107    3.5326 O   0  0  0  0  0  0  0  0  0  0  0  0
   -1.9857   -9.0930    2.7194 H   0  0  0  0  0  0  0  0  0  0  0  0
   -2.2751   -7.3576    2.8088 H   0  0  0  0  0  0  0  0  0  0  0  0
   -2.1438   -8.3064    4.2936 H   0  0  0  0  0  0  0  0  0  0  0  0
    1.0500   -8.6192    4.8722 H   0  0  0  0  0  0  0  0  0  0  0  0
   -0.1061   -9.8141    4.3458 H   0  0  0  0  0  0  0  0  0  0  0  0
    3.2895  -10.2889    1.3701 H   0  0  0  0  0  0  0  0  0  0  0  0
    1.7102   -7.5024    0.6971 H   0  0  0  0  0  0  0  0  0  0  0  0
    2.0863   -5.3745    1.0702 H   0  0  0  0  0  0  0  0  0  0  0  0
    2.2560   -5.4680    2.7663 H   0  0  0  0  0  0  0  0  0  0  0  0
    4.6206   -5.0902   -1.2239 H   0  0  0  0  0  0  0  0  0  0  0  0
    5.1397   -2.9762    2.1880 H   0  0  0  0  0  0  0  0  0  0  0  0
    2.7488   -3.7119    3.9061 H   0  0  0  0  0  0  0  0  0  0  0  0
    0.5645   -2.3439    4.2930 H   0  0  0  0  0  0  0  0  0  0  0  0
    2.2152   -0.8609    0.8158 H   0  0  0  0  0  0  0  0  0  0  0  0
    3.8750   -7.4396    0.2220 H   0  0  0  0  0  0  0  0  0  0  0  0
    5.4028   -6.7757    0.1808 H   0  0  0  0  0  0  0  0  0  0  0  0
    5.6981   -8.7313    1.5779 H   0  0  0  0  0  0  0  0  0  0  0  0
    7.4917   -6.6832    4.4076 H   0  0  0  0  0  0  0  0  0  0  0  0
    7.6020   -8.2446    3.6052 H   0  0  0  0  0  0  0  0  0  0  0  0
    6.3009   -7.9102    4.6956 H   0  0  0  0  0  0  0  0  0  0  0  0
    8.0349   -5.8335    2.3530 H   0  0  0  0  0  0  0  0  0  0  0  0
    6.9372   -5.6122    1.0394 H   0  0  0  0  0  0  0  0  0  0  0  0
    7.7640   -7.1614    1.2395 H   0  0  0  0  0  0  0  0  0  0  0  0
    5.5638   -4.8396    3.1174 H   0  0  0  0  0  0  0  0  0  0  0  0
    5.1710   -6.2151    5.0679 H   0  0  0  0  0  0  0  0  0  0  0  0
    3.2252   -5.5842    5.7403 H   0  0  0  0  0  0  0  0  0  0  0  0
    4.0008   -8.0731    5.1838 H   0  0  0  0  0  0  0  0  0  0  0  0
    2.6466   -7.3853    4.3925 H   0  0  0  0  0  0  0  0  0  0  0  0
    5.5294   -9.7555    3.9603 H   0  0  0  0  0  0  0  0  0  0  0  0
    4.5484  -10.6170    2.8052 H   0  0  0  0  0  0  0  0  0  0  0  0
    3.9059  -10.2031    4.3948 H   0  0  0  0  0  0  0  0  0  0  0  0
   -0.2444   -6.6666    1.4580 H   0  0  0  0  0  0  0  0  0  0  0  0
  2  1  1  6
  1 35  1  0
  1 36  1  0
  1 37  1  0
  2 33  1  0
  2 34  1  0
  2  3  1  0
  3  4  1  0
  3 38  1  0
  3 39  1  0
  4  5  2  0
  4  6  1  0
  6 31  1  0
  6  7  1  6
  6  8  1  0
  7 40  1  0
  8  9  1  0
  8 33  1  0
  8 41  1  6
  9 10  1  0
  9 42  1  0
  9 43  1  0
 10 27  1  0
 10 11  1  6
 10 22  1  0
 11 16  1  0
 11 12  2  0
 12 13  1  0
 12 44  1  0
 13 14  2  0
 13 15  1  0
 15 16  1  0
 16 17  1  0
 16 45  1  1
 17 21  2  0
 17 18  1  0
 18 19  2  0
 18 46  1  0
 19 20  1  0
 19 47  1  0
 20 21  1  0
 21 48  1  0
 22 23  1  0
 22 49  1  0
 22 50  1  0
 23 31  1  0
 23 24  1  0
 23 51  1  6
 24 25  1  0
 24 26  1  0
 24 27  1  0
 25 52  1  0
 25 53  1  0
 25 54  1  0
 26 55  1  0
 26 56  1  0
 26 57  1  0
 27 28  1  0
 27 58  1  1
 28 29  1  0
 28 30  1  0
 28 59  1  1
 29 60  1  0
 30 31  1  0
 30 61  1  0
 30 62  1  0
 31 32  1  1
 32 63  1  0
 32 64  1  0
 32 65  1  0
 33 34  1  0
 33 66  1  6
M  END
>  <i_m_ct_stereo_status>  (332) 
1

>  <s_m_source_file>  (332) 
/var/tmp/pbs.5076255.sched01/tmppdndq9e4/92von5zo7h.sdf

>  <i_m_source_file_index>  (332) 
45

>  <i_lp_mmshare_version>  (332) 
48012

>  <i_f3d_flags>  (332) 
0

>  <s_epik_input>  (332) 
W0NIM11bQ0BdMTJbQ0BASF0oTzIpW0NAQEhdM1tDQF0oW09IXSkoQyg9TylbQ0gyXTEpW0NAQF00KFtDSDNdKVtDQEhdNVtDSDJdW0NAQF0oW0NIMl0zKShbQ0BIXShDNShbQ0gzXSlbQ0gzXSlbQ0BASF0oW09IXSlbQ0gyXTQpQzY9W0NIXUMoPU8pT1tDQEhdNmM3W2NIXVtjSF1vW2NIXTc=

>  <s_epik_cmdline>  (332) 
J2VwaWtfcHl0aG9uJywgJy1waHQnLCAnMi4wJywgJy1waCcsICc3LjAnLCAnLXRuJywgJzgnLCAnLW1hJywgJzIwMCcsICctaW1hZScsICc8aW5maWxlLm1hZT4nLCAnLW9tYWUnLCAnPG91dGZpbGUubWFlPic=

>  <r_lp_tautomer_probability>  (332) 
1

>  <r_epik_Ionization_Penalty>  (332) 
1.61824e-07

>  <r_epik_Ionization_Penalty_Charging>  (332) 
0

>  <r_epik_Ionization_Penalty_Neutral>  (332) 
1.61824e-07

>  <r_epik_State_Penalty>  (332) 
-0

>  <r_epik_Charging_Adjusted_Penalty>  (332) 
0

>  <i_epik_Tot_Q>  (332) 
0

>  <i_epik_Tot_abs_Q>  (332) 
0

>  <s_epik_Chemistry_Notes>  (332) 
This compound has an ester and may undergo hydrolysis at high or low pH.

>  <s_lp_Force_Field>  (332) 
OPLS3e

>  <r_lp_Energy>  (332) 
95.344

>  <b_lp_Chiralities_Consistent>  (332) 
1

>  <s_lp_Variant>  (332) 
85:0-1

>  <s_i_glide_gridfile>  (332) 
pfpi4k_grid

>  <i_i_glide_lignum>  (332) 
45

>  <i_i_glide_rotatable_bonds>  (332) 
4

>  <r_i_docking_score>  (332) 
-2.32563

>  <r_i_glide_ligand_efficiency>  (332) 
-0.0684009

>  <r_i_glide_ligand_efficiency_sa>  (332) 
-0.221592

>  <r_i_glide_ligand_efficiency_ln>  (332) 
-0.513797

>  <r_i_glide_gscore>  (332) 
-2.32563

>  <r_i_glide_lipo>  (332) 
-0.307063

>  <r_i_glide_hbond>  (332) 
0

>  <r_i_glide_metal>  (332) 
-0

>  <r_i_glide_rewards>  (332) 
-0.25945

>  <r_i_glide_evdw>  (332) 
-34.5912

>  <r_i_glide_ecoul>  (332) 
-1.42337

>  <r_i_glide_erotb>  (332) 
0.183946

>  <r_i_glide_esite>  (332) 
0

>  <r_i_glide_emodel>  (332) 
-37.0106

>  <r_i_glide_energy>  (332) 
-36.0146

>  <r_i_glide_einternal>  (332) 
2.748

>  <r_i_glide_intrahb_reward>  (332) 
-0

>  <i_i_glide_confnum>  (332) 
3

>  <i_i_glide_posenum>  (332) 
29

>  <r_i_glide_eff_state_penalty>  (332) 
0

>  <ligand_id>  (332) 
85

>  <original_smiles>  (332) 
CC12CC(=O)C3(O)C(CC4(C5=CC(=O)OC5c5ccoc5)CC5C(C)(C)C4C(O)CC53C)C1O2

>  <smiles>  (332) 
[H]OC1([H])C([H])([H])C2(C([H])([H])[H])C3(O[H])C(=O)C([H])([H])C4(C([H])([H])[H])OC4([H])C3([H])C([H])([H])C3(C4=C([H])C(=O)OC4([H])c4c([H])oc([H])c4[H])C([H])([H])C2([H])C(C([H])([H])[H])(C([H])([H])[H])C13[H]

$$$$
86:0:0
     RDKit          3D

 63 69  0  0  1  0  0  0  0  0999 V2000
    0.3253   -9.4519    6.8064 C   0  0  0  0  0  0  0  0  0  0  0  0
    0.6018   -8.1403    6.8961 C   0  0  0  0  0  0  0  0  0  0  0  0
    1.2207   -7.5273    8.0630 C   0  0  0  0  0  0  0  0  0  0  0  0
    1.6446   -8.0984    9.0636 O   0  0  0  0  0  0  0  0  0  0  0  0
    1.2323   -6.1994    7.8710 O   0  0  0  0  0  0  0  0  0  0  0  0
    0.5811   -5.7663    6.6847 C   0  0  2  0  0  0  0  0  0  0  0  0
    0.2553   -7.0557    5.9075 C   0  0  1  0  0  0  0  0  0  0  0  0
    1.0173   -7.1916    4.5878 C   0  0  0  0  0  0  0  0  0  0  0  0
    0.7671   -5.9792    3.6711 C   0  0  0  0  0  0  0  0  0  0  0  0
    0.9154   -4.5902    4.3679 C   0  0  2  0  0  0  0  0  0  0  0  0
    1.4965   -3.4890    3.3943 C   0  0  0  0  0  0  0  0  0  0  0  0
    0.9134   -2.2681    3.4695 C   0  0  0  0  0  0  0  0  0  0  0  0
    0.7918   -1.6928    4.8125 C   0  0  0  0  0  0  0  0  0  0  0  0
    1.8262   -1.7350    5.6962 C   0  0  0  0  0  0  0  0  0  0  0  0
    3.2328   -2.2609    5.3641 C   0  0  2  0  0  0  0  0  0  0  0  0
    3.3365   -2.2413    3.9983 O   0  0  0  0  0  0  0  0  0  0  0  0
    3.0372   -3.4763    3.2788 C   0  0  1  0  0  0  0  0  0  0  0  0
    3.7483   -4.8488    3.7016 C   0  0  1  0  0  0  0  0  0  0  0  0
    4.3407   -5.8142    2.6525 C   0  0  0  0  0  0  0  0  0  0  0  0
    3.9753   -5.3475    1.2750 C   0  0  0  0  0  0  0  0  0  0  0  0
    3.5510   -6.1278    0.4290 O   0  0  0  0  0  0  0  0  0  0  0  0
    4.2140   -3.8706    1.0185 C   0  0  1  0  0  0  0  0  0  0  0  0
    3.2822   -3.4268    0.0101 O   0  0  0  0  0  0  0  0  0  0  0  0
    3.6012   -3.2550   -1.3088 C   0  0  0  0  0  0  0  0  0  0  0  0
    2.7391   -2.9999   -2.1619 O   0  0  0  0  0  0  0  0  0  0  0  0
    4.9571   -3.3769   -1.5488 N   0  0  0  0  0  0  0  0  0  0  0  0
    5.5746   -3.2709   -2.8634 C   0  0  0  0  0  0  0  0  0  0  0  0
    4.1482   -3.0031    2.3068 C   0  0  1  0  0  0  0  0  0  0  0  0
    4.2442   -1.5140    1.8095 C   0  0  0  0  0  0  0  0  0  0  0  0
    5.3390   -3.3160    3.3937 C   0  0  0  0  0  0  0  0  0  0  0  0
    4.7433   -4.2115    4.6165 C   0  0  1  0  0  0  0  0  0  0  0  0
    3.7337   -3.6663    5.7302 C   0  0  0  0  0  0  0  0  0  0  0  0
    2.8718   -4.5892    6.2475 C   0  0  0  0  0  0  0  0  0  0  0  0
    1.3537   -4.6484    5.9246 C   0  0  2  0  0  0  0  0  0  0  0  0
   -0.1753   -9.8765    5.9464 H   0  0  0  0  0  0  0  0  0  0  0  0
    0.6001  -10.1374    7.6040 H   0  0  0  0  0  0  0  0  0  0  0  0
   -0.3710   -5.3505    7.0100 H   0  0  0  0  0  0  0  0  0  0  0  0
   -0.8104   -7.0931    5.6843 H   0  0  0  0  0  0  0  0  0  0  0  0
    2.0769   -7.3108    4.7949 H   0  0  0  0  0  0  0  0  0  0  0  0
    0.7176   -8.1080    4.0770 H   0  0  0  0  0  0  0  0  0  0  0  0
    1.4210   -6.0529    2.8006 H   0  0  0  0  0  0  0  0  0  0  0  0
   -0.2409   -6.0734    3.2659 H   0  0  0  0  0  0  0  0  0  0  0  0
   -0.1248   -4.2918    4.4390 H   0  0  0  0  0  0  0  0  0  0  0  0
    1.3093   -1.5077    2.7938 H   0  0  0  0  0  0  0  0  0  0  0  0
   -0.1507   -1.2684    5.1223 H   0  0  0  0  0  0  0  0  0  0  0  0
    1.7118   -1.3187    6.6793 H   0  0  0  0  0  0  0  0  0  0  0  0
    3.9486   -1.5412    5.7497 H   0  0  0  0  0  0  0  0  0  0  0  0
    3.1365   -5.5779    4.1898 H   0  0  0  0  0  0  0  0  0  0  0  0
    5.4263   -5.8929    2.7156 H   0  0  0  0  0  0  0  0  0  0  0  0
    3.9519   -6.8235    2.7839 H   0  0  0  0  0  0  0  0  0  0  0  0
    5.2589   -3.8153    0.7317 H   0  0  0  0  0  0  0  0  0  0  0  0
    5.5341   -3.5978   -0.7733 H   0  0  0  0  0  0  0  0  0  0  0  0
    6.6428   -3.4448   -2.7511 H   0  0  0  0  0  0  0  0  0  0  0  0
    5.4167   -2.2760   -3.2697 H   0  0  0  0  0  0  0  0  0  0  0  0
    5.1685   -4.0196   -3.5370 H   0  0  0  0  0  0  0  0  0  0  0  0
    5.0190   -1.4139    1.0451 H   0  0  0  0  0  0  0  0  0  0  0  0
    4.5236   -0.8056    2.5920 H   0  0  0  0  0  0  0  0  0  0  0  0
    3.3094   -1.1731    1.3677 H   0  0  0  0  0  0  0  0  0  0  0  0
    6.1570   -3.8204    2.8853 H   0  0  0  0  0  0  0  0  0  0  0  0
    5.7752   -2.3948    3.7852 H   0  0  0  0  0  0  0  0  0  0  0  0
    5.4603   -4.9251    5.0221 H   0  0  0  0  0  0  0  0  0  0  0  0
    3.2755   -5.5892    6.3172 H   0  0  0  0  0  0  0  0  0  0  0  0
    0.9258   -3.7986    6.4319 H   0  0  0  0  0  0  0  0  0  0  0  0
  1  2  2  0
  1 35  1  0
  1 36  1  0
  2  7  1  0
  2  3  1  0
  3  4  2  0
  3  5  1  0
  5  6  1  0
  6 34  1  0
  6  7  1  0
  6 37  1  1
  7  8  1  0
  7 38  1  6
  8  9  1  0
  8 39  1  0
  8 40  1  0
  9 10  1  0
  9 41  1  0
  9 42  1  0
 10 34  1  0
 10 11  1  0
 10 43  1  1
 17 11  1  6
 11 12  2  0
 12 13  1  0
 12 44  1  0
 13 14  2  0
 13 45  1  0
 14 15  1  0
 14 46  1  0
 15 32  1  0
 15 16  1  0
 15 47  1  1
 16 17  1  0
 17 28  1  0
 17 18  1  0
 18 31  1  0
 18 19  1  0
 18 48  1  1
 19 20  1  0
 19 49  1  0
 19 50  1  0
 20 21  2  0
 20 22  1  0
 22 23  1  0
 22 28  1  0
 22 51  1  6
 23 24  1  0
 24 25  2  0
 24 26  1  0
 26 27  1  0
 26 52  1  0
 27 53  1  0
 27 54  1  0
 27 55  1  0
 28 29  1  6
 28 30  1  0
 29 56  1  0
 29 57  1  0
 29 58  1  0
 30 31  1  0
 30 59  1  0
 30 60  1  0
 31 32  1  0
 31 61  1  1
 32 33  2  3
 33 34  1  0
 33 62  1  0
 34 63  1  1
M  END
>  <i_m_ct_stereo_status>  (333) 
1

>  <s_m_source_file>  (333) 
/var/tmp/pbs.5076255.sched01/tmppdndq9e4/92von5zo7h.sdf

>  <i_m_source_file_index>  (333) 
46

>  <i_lp_mmshare_version>  (333) 
48012

>  <i_f3d_flags>  (333) 
0

>  <s_epik_input>  (333) 
Tz1DKE8xKUMoPVtDSDJdKVtDQEhdKFtDSDJdW0NIMl0yKVtDQEBIXTFbQ0BIXShbQ0BIXTJDPTNbQ0BAXTQ1NikvW0NIXT1DKFxbQ0BASF0oTzQpW0NIXT1bQ0hdW0NIXTMpW0NASF03W0NAQEhdNVtDSDJdQyg9TylbQ0BIXShbQ0BdNihbQ0gzXSlbQ0gyXTcpT0MoPU8pW05IXVtDSDNd

>  <s_epik_cmdline>  (333) 
J2VwaWtfcHl0aG9uJywgJy1waHQnLCAnMi4wJywgJy1waCcsICc3LjAnLCAnLXRuJywgJzgnLCAnLW1hJywgJzIwMCcsICctaW1hZScsICc8aW5maWxlLm1hZT4nLCAnLW9tYWUnLCAnPG91dGZpbGUubWFlPic=

>  <r_lp_tautomer_probability>  (333) 
1

>  <r_epik_Ionization_Penalty>  (333) 
8.57606e-05

>  <r_epik_Ionization_Penalty_Charging>  (333) 
0

>  <r_epik_Ionization_Penalty_Neutral>  (333) 
8.57606e-05

>  <r_epik_State_Penalty>  (333) 
-0

>  <r_epik_Charging_Adjusted_Penalty>  (333) 
0

>  <i_epik_Tot_Q>  (333) 
0

>  <i_epik_Tot_abs_Q>  (333) 
0

>  <s_epik_Chemistry_Notes>  (333) 
This compound has an ester and may undergo hydrolysis at high or low pH.

>  <s_lp_Force_Field>  (333) 
OPLS3e

>  <r_lp_Energy>  (333) 
248.775

>  <b_lp_Chiralities_Consistent>  (333) 
1

>  <s_lp_Variant>  (333) 
86:0-1

>  <s_i_glide_gridfile>  (333) 
pfpi4k_grid

>  <i_i_glide_lignum>  (333) 
46

>  <i_i_glide_rotatable_bonds>  (333) 
3

>  <r_i_docking_score>  (333) 
-1.39789

>  <r_i_glide_ligand_efficiency>  (333) 
-0.0411144

>  <r_i_glide_ligand_efficiency_sa>  (333) 
-0.133195

>  <r_i_glide_ligand_efficiency_ln>  (333) 
-0.308833

>  <r_i_glide_gscore>  (333) 
-1.39789

>  <r_i_glide_lipo>  (333) 
-0.366058

>  <r_i_glide_hbond>  (333) 
0

>  <r_i_glide_metal>  (333) 
-0

>  <r_i_glide_rewards>  (333) 
-0.310659

>  <r_i_glide_evdw>  (333) 
-24.4509

>  <r_i_glide_ecoul>  (333) 
2.16321

>  <r_i_glide_erotb>  (333) 
0.187592

>  <r_i_glide_esite>  (333) 
-0.0107022

>  <r_i_glide_emodel>  (333) 
-23.1444

>  <r_i_glide_energy>  (333) 
-22.2877

>  <r_i_glide_einternal>  (333) 
2.30559

>  <r_i_glide_intrahb_reward>  (333) 
-0

>  <i_i_glide_confnum>  (333) 
3

>  <i_i_glide_posenum>  (333) 
12

>  <r_i_glide_eff_state_penalty>  (333) 
0

>  <ligand_id>  (333) 
86

>  <original_smiles>  (333) 
C=C1C(=O)OC2C1CCC1C3=CC=CC4OC35C3CC(=O)C(OC(=O)NC)C5(C)CC3C4=CC12

>  <smiles>  (333) 
[H]C([H])=C1C(=O)OC2([H])C1([H])C([H])([H])C([H])([H])C1([H])C3=C([H])C([H])=C([H])C4([H])OC35C3([H])C([H])([H])C(=O)C([H])(OC(=O)N([H])C([H])([H])[H])C5(C([H])([H])[H])C([H])([H])C3([H])C4=C([H])C21[H]

$$$$
86:0:1
     RDKit          3D

 63 69  0  0  1  0  0  0  0  0999 V2000
    1.3055  -10.7364    2.9288 C   0  0  0  0  0  0  0  0  0  0  0  0
    1.4503   -9.9204    3.9862 C   0  0  0  0  0  0  0  0  0  0  0  0
    2.2936  -10.2365    5.1356 C   0  0  0  0  0  0  0  0  0  0  0  0
    3.0507  -11.1966    5.2484 O   0  0  0  0  0  0  0  0  0  0  0  0
    2.1330   -9.2640    6.0400 O   0  0  0  0  0  0  0  0  0  0  0  0
    1.1605   -8.2857    5.6901 C   0  0  2  0  0  0  0  0  0  0  0  0
    0.7735   -8.6037    4.2333 C   0  0  1  0  0  0  0  0  0  0  0  0
    1.1951   -7.5163    3.2365 C   0  0  0  0  0  0  0  0  0  0  0  0
    0.6043   -6.1445    3.6217 C   0  0  0  0  0  0  0  0  0  0  0  0
    0.7861   -5.7483    5.1161 C   0  0  2  0  0  0  0  0  0  0  0  0
    0.9834   -4.1870    5.3011 C   0  0  0  0  0  0  0  0  0  0  0  0
    0.3120   -3.6423    6.3455 C   0  0  0  0  0  0  0  0  0  0  0  0
    0.4847   -4.2999    7.6477 C   0  0  0  0  0  0  0  0  0  0  0  0
    1.7067   -4.7146    8.0889 C   0  0  0  0  0  0  0  0  0  0  0  0
    3.0330   -4.4430    7.3573 C   0  0  2  0  0  0  0  0  0  0  0  0
    2.7862   -3.3898    6.5130 O   0  0  0  0  0  0  0  0  0  0  0  0
    2.4540   -3.6942    5.1233 C   0  0  1  0  0  0  0  0  0  0  0  0
    3.3732   -4.6823    4.2717 C   0  0  1  0  0  0  0  0  0  0  0  0
    3.7811   -4.3480    2.8120 C   0  0  0  0  0  0  0  0  0  0  0  0
    3.0582   -3.1212    2.3254 C   0  0  0  0  0  0  0  0  0  0  0  0
    2.5182   -3.0928    1.2219 O   0  0  0  0  0  0  0  0  0  0  0  0
    3.0581   -1.9466    3.2922 C   0  0  1  0  0  0  0  0  0  0  0  0
    1.8436   -1.2060    3.1306 O   0  0  0  0  0  0  0  0  0  0  0  0
    1.8033   -0.0871    2.3711 C   0  0  0  0  0  0  0  0  0  0  0  0
    2.7431    0.3681    1.7198 O   0  0  0  0  0  0  0  0  0  0  0  0
    0.5376    0.4590    2.4909 N   0  0  0  0  0  0  0  0  0  0  0  0
    0.1385    1.7007    1.8426 C   0  0  0  0  0  0  0  0  0  0  0  0
    3.2461   -2.3929    4.7828 C   0  0  1  0  0  0  0  0  0  0  0  0
    3.0626   -1.0858    5.6324 C   0  0  0  0  0  0  0  0  0  0  0  0
    4.6839   -3.1019    5.1382 C   0  0  0  0  0  0  0  0  0  0  0  0
    4.4977   -4.7154    5.2530 C   0  0  1  0  0  0  0  0  0  0  0  0
    3.7432   -5.4584    6.4569 C   0  0  0  0  0  0  0  0  0  0  0  0
    3.1398   -6.6416    6.1405 C   0  0  0  0  0  0  0  0  0  0  0  0
    1.5981   -6.8253    6.0126 C   0  0  2  0  0  0  0  0  0  0  0  0
    0.6615  -10.4851    2.0978 H   0  0  0  0  0  0  0  0  0  0  0  0
    1.8336  -11.6804    2.8826 H   0  0  0  0  0  0  0  0  0  0  0  0
    0.2841   -8.5157    6.2959 H   0  0  0  0  0  0  0  0  0  0  0  0
   -0.3067   -8.7568    4.1653 H   0  0  0  0  0  0  0  0  0  0  0  0
    2.2817   -7.4697    3.1902 H   0  0  0  0  0  0  0  0  0  0  0  0
    0.8736   -7.7843    2.2278 H   0  0  0  0  0  0  0  0  0  0  0  0
    1.0207   -5.3800    2.9655 H   0  0  0  0  0  0  0  0  0  0  0  0
   -0.4601   -6.1689    3.3950 H   0  0  0  0  0  0  0  0  0  0  0  0
   -0.2310   -5.8895    5.4820 H   0  0  0  0  0  0  0  0  0  0  0  0
    0.4627   -2.5798    6.4879 H   0  0  0  0  0  0  0  0  0  0  0  0
   -0.3814   -4.5195    8.2537 H   0  0  0  0  0  0  0  0  0  0  0  0
    1.7971   -5.2180    9.0381 H   0  0  0  0  0  0  0  0  0  0  0  0
    3.7482   -4.1007    8.1049 H   0  0  0  0  0  0  0  0  0  0  0  0
    2.9830   -5.6551    4.0596 H   0  0  0  0  0  0  0  0  0  0  0  0
    4.8545   -4.1850    2.7118 H   0  0  0  0  0  0  0  0  0  0  0  0
    3.5356   -5.1812    2.1537 H   0  0  0  0  0  0  0  0  0  0  0  0
    3.9090   -1.3223    3.0212 H   0  0  0  0  0  0  0  0  0  0  0  0
   -0.1180   -0.0413    3.0682 H   0  0  0  0  0  0  0  0  0  0  0  0
   -0.8965    1.9477    2.0848 H   0  0  0  0  0  0  0  0  0  0  0  0
    0.2160    1.6113    0.7602 H   0  0  0  0  0  0  0  0  0  0  0  0
    0.7697    2.5320    2.1606 H   0  0  0  0  0  0  0  0  0  0  0  0
    3.6059   -0.2553    5.1745 H   0  0  0  0  0  0  0  0  0  0  0  0
    3.4549   -1.1629    6.6500 H   0  0  0  0  0  0  0  0  0  0  0  0
    2.0125   -0.7952    5.7017 H   0  0  0  0  0  0  0  0  0  0  0  0
    5.4200   -2.8431    4.3748 H   0  0  0  0  0  0  0  0  0  0  0  0
    5.1075   -2.7135    6.0679 H   0  0  0  0  0  0  0  0  0  0  0  0
    5.3606   -5.2836    4.9026 H   0  0  0  0  0  0  0  0  0  0  0  0
    3.6476   -7.2147    5.3765 H   0  0  0  0  0  0  0  0  0  0  0  0
    1.2310   -6.7831    7.0292 H   0  0  0  0  0  0  0  0  0  0  0  0
  1  2  2  0
  1 35  1  0
  1 36  1  0
  2  7  1  0
  2  3  1  0
  3  4  2  0
  3  5  1  0
  5  6  1  0
  6 34  1  0
  6  7  1  0
  6 37  1  1
  7  8  1  0
  7 38  1  1
  8  9  1  0
  8 39  1  0
  8 40  1  0
  9 10  1  0
  9 41  1  0
  9 42  1  0
 10 34  1  0
 10 11  1  0
 10 43  1  1
 17 11  1  1
 11 12  2  0
 12 13  1  0
 12 44  1  0
 13 14  2  0
 13 45  1  0
 14 15  1  0
 14 46  1  0
 15 32  1  0
 15 16  1  0
 15 47  1  1
 16 17  1  0
 17 28  1  0
 17 18  1  0
 18 31  1  0
 18 19  1  0
 18 48  1  6
 19 20  1  0
 19 49  1  0
 19 50  1  0
 20 21  2  0
 20 22  1  0
 22 23  1  0
 22 28  1  0
 22 51  1  6
 23 24  1  0
 24 25  2  0
 24 26  1  0
 26 27  1  0
 26 52  1  0
 27 53  1  0
 27 54  1  0
 27 55  1  0
 28 29  1  1
 28 30  1  0
 29 56  1  0
 29 57  1  0
 29 58  1  0
 30 31  1  0
 30 59  1  0
 30 60  1  0
 31 32  1  0
 31 61  1  6
 32 33  2  3
 33 34  1  0
 33 62  1  0
 34 63  1  1
M  END
>  <i_m_ct_stereo_status>  (334) 
1

>  <s_m_source_file>  (334) 
/var/tmp/pbs.5076255.sched01/tmppdndq9e4/92von5zo7h.sdf

>  <i_m_source_file_index>  (334) 
46

>  <i_lp_mmshare_version>  (334) 
48012

>  <i_f3d_flags>  (334) 
0

>  <s_epik_input>  (334) 
Tz1DKE8xKUMoPVtDSDJdKVtDQEhdKFtDSDJdW0NIMl0yKVtDQEBIXTFbQ0BIXShbQ0BIXTJDPTNbQ0BAXTQ1NikvW0NIXT1DKFxbQ0BASF0oTzQpW0NIXT1bQ0hdW0NIXTMpW0NASF03W0NAQEhdNVtDSDJdQyg9TylbQ0BIXShbQ0BdNihbQ0gzXSlbQ0gyXTcpT0MoPU8pW05IXVtDSDNd

>  <s_epik_cmdline>  (334) 
J2VwaWtfcHl0aG9uJywgJy1waHQnLCAnMi4wJywgJy1waCcsICc3LjAnLCAnLXRuJywgJzgnLCAnLW1hJywgJzIwMCcsICctaW1hZScsICc8aW5maWxlLm1hZT4nLCAnLW9tYWUnLCAnPG91dGZpbGUubWFlPic=

>  <r_lp_tautomer_probability>  (334) 
1

>  <r_epik_Ionization_Penalty>  (334) 
8.57606e-05

>  <r_epik_Ionization_Penalty_Charging>  (334) 
0

>  <r_epik_Ionization_Penalty_Neutral>  (334) 
8.57606e-05

>  <r_epik_State_Penalty>  (334) 
-0

>  <r_epik_Charging_Adjusted_Penalty>  (334) 
0

>  <i_epik_Tot_Q>  (334) 
0

>  <i_epik_Tot_abs_Q>  (334) 
0

>  <s_epik_Chemistry_Notes>  (334) 
This compound has an ester and may undergo hydrolysis at high or low pH.

>  <s_lp_Force_Field>  (334) 
OPLS3e

>  <r_lp_Energy>  (334) 
248.775

>  <b_lp_Chiralities_Consistent>  (334) 
1

>  <s_lp_Variant>  (334) 
86:0-1

>  <s_i_glide_gridfile>  (334) 
pfpi4k_grid

>  <i_i_glide_lignum>  (334) 
46

>  <i_i_glide_rotatable_bonds>  (334) 
3

>  <r_i_docking_score>  (334) 
-1.28141

>  <r_i_glide_ligand_efficiency>  (334) 
-0.0376884

>  <r_i_glide_ligand_efficiency_sa>  (334) 
-0.122096

>  <r_i_glide_ligand_efficiency_ln>  (334) 
-0.283099

>  <r_i_glide_gscore>  (334) 
-1.28141

>  <r_i_glide_lipo>  (334) 
-0.158944

>  <r_i_glide_hbond>  (334) 
0

>  <r_i_glide_metal>  (334) 
-0

>  <r_i_glide_rewards>  (334) 
-0.248712

>  <r_i_glide_evdw>  (334) 
-23.2453

>  <r_i_glide_ecoul>  (334) 
1.45469

>  <r_i_glide_erotb>  (334) 
0.187592

>  <r_i_glide_esite>  (334) 
-0.117281

>  <r_i_glide_emodel>  (334) 
-23.7535

>  <r_i_glide_energy>  (334) 
-21.7906

>  <r_i_glide_einternal>  (334) 
0.157577

>  <r_i_glide_intrahb_reward>  (334) 
-0

>  <i_i_glide_confnum>  (334) 
1

>  <i_i_glide_posenum>  (334) 
17

>  <r_i_glide_eff_state_penalty>  (334) 
0

>  <ligand_id>  (334) 
86

>  <original_smiles>  (334) 
C=C1C(=O)OC2C1CCC1C3=CC=CC4OC35C3CC(=O)C(OC(=O)NC)C5(C)CC3C4=CC12

>  <smiles>  (334) 
[H]C([H])=C1C(=O)OC2([H])C1([H])C([H])([H])C([H])([H])C1([H])C3=C([H])C([H])=C([H])C4([H])OC35C3([H])C([H])([H])C(=O)C([H])(OC(=O)N([H])C([H])([H])[H])C5(C([H])([H])[H])C([H])([H])C3([H])C4=C([H])C21[H]

$$$$
86:0:2
     RDKit          3D

 63 69  0  0  1  0  0  0  0  0999 V2000
    0.7759   -8.3307    7.6750 C   0  0  0  0  0  0  0  0  0  0  0  0
    1.0845   -7.0280    7.5428 C   0  0  0  0  0  0  0  0  0  0  0  0
    1.8764   -6.2872    8.5140 C   0  0  0  0  0  0  0  0  0  0  0  0
    2.4321   -6.7351    9.5128 O   0  0  0  0  0  0  0  0  0  0  0  0
    1.8972   -5.0006    8.1308 O   0  0  0  0  0  0  0  0  0  0  0  0
    1.1020   -4.7083    6.9910 C   0  0  2  0  0  0  0  0  0  0  0  0
    0.6363   -6.0786    6.4624 C   0  0  1  0  0  0  0  0  0  0  0  0
    1.2120   -6.4304    5.0852 C   0  0  0  0  0  0  0  0  0  0  0  0
    0.8741   -5.3494    4.0405 C   0  0  0  0  0  0  0  0  0  0  0  0
    1.1496   -3.8858    4.5029 C   0  0  2  0  0  0  0  0  0  0  0  0
    1.6178   -2.9566    3.3130 C   0  0  0  0  0  0  0  0  0  0  0  0
    1.0708   -1.7164    3.2832 C   0  0  0  0  0  0  0  0  0  0  0  0
    1.1498   -0.9547    4.5348 C   0  0  0  0  0  0  0  0  0  0  0  0
    2.2935   -0.9155    5.2729 C   0  0  0  0  0  0  0  0  0  0  0  0
    3.6312   -1.5393    4.8421 C   0  0  2  0  0  0  0  0  0  0  0  0
    3.5494   -1.7145    3.4871 O   0  0  0  0  0  0  0  0  0  0  0  0
    3.1309   -3.0244    2.9989 C   0  0  1  0  0  0  0  0  0  0  0  0
    3.8597   -4.3527    3.5185 C   0  0  1  0  0  0  0  0  0  0  0  0
    4.2781   -5.4792    2.5475 C   0  0  0  0  0  0  0  0  0  0  0  0
    3.7335   -5.1948    1.1771 C   0  0  0  0  0  0  0  0  0  0  0  0
    3.1807   -6.0579    0.5012 O   0  0  0  0  0  0  0  0  0  0  0  0
    3.9843   -3.7875    0.6836 C   0  0  1  0  0  0  0  0  0  0  0  0
    2.9390   -3.4660   -0.2578 O   0  0  0  0  0  0  0  0  0  0  0  0
    3.1534   -3.1704   -1.5733 C   0  0  0  0  0  0  0  0  0  0  0  0
    2.2179   -3.0548   -2.3765 O   0  0  0  0  0  0  0  0  0  0  0  0
    4.4913   -3.0220   -1.8803 N   0  0  0  0  0  0  0  0  0  0  0  0
    5.0124   -2.7899   -3.2152 C   0  0  0  0  0  0  0  0  0  0  0  0
    4.1140   -2.7396    1.8317 C   0  0  1  0  0  0  0  0  0  0  0  0
    4.1786   -1.3341    1.1273 C   0  0  0  0  0  0  0  0  0  0  0  0
    5.4285   -2.9427    2.7954 C   0  0  0  0  0  0  0  0  0  0  0  0
    4.9821   -3.6356    4.1977 C   0  0  1  0  0  0  0  0  0  0  0  0
    4.1449   -2.8971    5.3408 C   0  0  0  0  0  0  0  0  0  0  0  0
    3.3393   -3.7026    6.0922 C   0  0  0  0  0  0  0  0  0  0  0  0
    1.7907   -3.7433    5.9816 C   0  0  2  0  0  0  0  0  0  0  0  0
    0.1657   -8.8514    6.9498 H   0  0  0  0  0  0  0  0  0  0  0  0
    1.1403   -8.9055    8.5214 H   0  0  0  0  0  0  0  0  0  0  0  0
    0.2140   -4.2096    7.3735 H   0  0  0  0  0  0  0  0  0  0  0  0
   -0.4528   -6.1026    6.4109 H   0  0  0  0  0  0  0  0  0  0  0  0
    2.2875   -6.5639    5.1677 H   0  0  0  0  0  0  0  0  0  0  0  0
    0.8308   -7.3970    4.7518 H   0  0  0  0  0  0  0  0  0  0  0  0
    1.4065   -5.5712    3.1139 H   0  0  0  0  0  0  0  0  0  0  0  0
   -0.1830   -5.4518    3.7875 H   0  0  0  0  0  0  0  0  0  0  0  0
    0.1343   -3.5372    4.6539 H   0  0  0  0  0  0  0  0  0  0  0  0
    1.3907   -1.0737    2.4597 H   0  0  0  0  0  0  0  0  0  0  0  0
    0.2718   -0.4463    4.9028 H   0  0  0  0  0  0  0  0  0  0  0  0
    2.3220   -0.3589    6.1913 H   0  0  0  0  0  0  0  0  0  0  0  0
    4.4079   -0.8033    5.0272 H   0  0  0  0  0  0  0  0  0  0  0  0
    3.3030   -4.9788    4.1831 H   0  0  0  0  0  0  0  0  0  0  0  0
    5.3607   -5.5920    2.4819 H   0  0  0  0  0  0  0  0  0  0  0  0
    3.8927   -6.4429    2.8770 H   0  0  0  0  0  0  0  0  0  0  0  0
    4.9818   -3.8854    0.2650 H   0  0  0  0  0  0  0  0  0  0  0  0
    5.1330   -3.1558   -1.1360 H   0  0  0  0  0  0  0  0  0  0  0  0
    6.0979   -2.7796   -3.1487 H   0  0  0  0  0  0  0  0  0  0  0  0
    4.6635   -1.8321   -3.5914 H   0  0  0  0  0  0  0  0  0  0  0  0
    4.7113   -3.5934   -3.8812 H   0  0  0  0  0  0  0  0  0  0  0  0
    4.8545   -1.3604    0.2709 H   0  0  0  0  0  0  0  0  0  0  0  0
    4.5713   -0.5365    1.7615 H   0  0  0  0  0  0  0  0  0  0  0  0
    3.2021   -1.0206    0.7617 H   0  0  0  0  0  0  0  0  0  0  0  0
    6.1687   -3.5408    2.2783 H   0  0  0  0  0  0  0  0  0  0  0  0
    5.9257   -1.9899    2.9872 H   0  0  0  0  0  0  0  0  0  0  0  0
    5.7305   -4.3142    4.6056 H   0  0  0  0  0  0  0  0  0  0  0  0
    3.7262   -4.6979    6.2551 H   0  0  0  0  0  0  0  0  0  0  0  0
    1.4562   -2.8133    6.4122 H   0  0  0  0  0  0  0  0  0  0  0  0
  1  2  2  0
  1 35  1  0
  1 36  1  0
  2  7  1  0
  2  3  1  0
  3  4  2  0
  3  5  1  0
  5  6  1  0
  6 34  1  0
  6  7  1  0
  6 37  1  1
  7  8  1  0
  7 38  1  6
  8  9  1  0
  8 39  1  0
  8 40  1  0
  9 10  1  0
  9 41  1  0
  9 42  1  0
 10 34  1  0
 10 11  1  0
 10 43  1  1
 17 11  1  6
 11 12  2  0
 12 13  1  0
 12 44  1  0
 13 14  2  0
 13 45  1  0
 14 15  1  0
 14 46  1  0
 15 32  1  0
 15 16  1  0
 15 47  1  6
 16 17  1  0
 17 28  1  0
 17 18  1  0
 18 31  1  0
 18 19  1  0
 18 48  1  1
 19 20  1  0
 19 49  1  0
 19 50  1  0
 20 21  2  0
 20 22  1  0
 22 23  1  0
 22 28  1  0
 22 51  1  6
 23 24  1  0
 24 25  2  0
 24 26  1  0
 26 27  1  0
 26 52  1  0
 27 53  1  0
 27 54  1  0
 27 55  1  0
 28 29  1  6
 28 30  1  0
 29 56  1  0
 29 57  1  0
 29 58  1  0
 30 31  1  0
 30 59  1  0
 30 60  1  0
 31 32  1  0
 31 61  1  1
 32 33  2  3
 33 34  1  0
 33 62  1  0
 34 63  1  1
M  END
>  <i_m_ct_stereo_status>  (335) 
1

>  <s_m_source_file>  (335) 
/var/tmp/pbs.5076255.sched01/tmppdndq9e4/92von5zo7h.sdf

>  <i_m_source_file_index>  (335) 
46

>  <i_lp_mmshare_version>  (335) 
48012

>  <i_f3d_flags>  (335) 
0

>  <s_epik_input>  (335) 
Tz1DKE8xKUMoPVtDSDJdKVtDQEhdKFtDSDJdW0NIMl0yKVtDQEBIXTFbQ0BIXShbQ0BIXTJDPTNbQ0BAXTQ1NikvW0NIXT1DKFxbQ0BASF0oTzQpW0NIXT1bQ0hdW0NIXTMpW0NASF03W0NAQEhdNVtDSDJdQyg9TylbQ0BIXShbQ0BdNihbQ0gzXSlbQ0gyXTcpT0MoPU8pW05IXVtDSDNd

>  <s_epik_cmdline>  (335) 
J2VwaWtfcHl0aG9uJywgJy1waHQnLCAnMi4wJywgJy1waCcsICc3LjAnLCAnLXRuJywgJzgnLCAnLW1hJywgJzIwMCcsICctaW1hZScsICc8aW5maWxlLm1hZT4nLCAnLW9tYWUnLCAnPG91dGZpbGUubWFlPic=

>  <r_lp_tautomer_probability>  (335) 
1

>  <r_epik_Ionization_Penalty>  (335) 
8.57606e-05

>  <r_epik_Ionization_Penalty_Charging>  (335) 
0

>  <r_epik_Ionization_Penalty_Neutral>  (335) 
8.57606e-05

>  <r_epik_State_Penalty>  (335) 
-0

>  <r_epik_Charging_Adjusted_Penalty>  (335) 
0

>  <i_epik_Tot_Q>  (335) 
0

>  <i_epik_Tot_abs_Q>  (335) 
0

>  <s_epik_Chemistry_Notes>  (335) 
This compound has an ester and may undergo hydrolysis at high or low pH.

>  <s_lp_Force_Field>  (335) 
OPLS3e

>  <r_lp_Energy>  (335) 
248.775

>  <b_lp_Chiralities_Consistent>  (335) 
1

>  <s_lp_Variant>  (335) 
86:0-1

>  <s_i_glide_gridfile>  (335) 
pfpi4k_grid

>  <i_i_glide_lignum>  (335) 
46

>  <i_i_glide_rotatable_bonds>  (335) 
3

>  <r_i_docking_score>  (335) 
-1.27643

>  <r_i_glide_ligand_efficiency>  (335) 
-0.0375421

>  <r_i_glide_ligand_efficiency_sa>  (335) 
-0.121622

>  <r_i_glide_ligand_efficiency_ln>  (335) 
-0.282

>  <r_i_glide_gscore>  (335) 
-1.27643

>  <r_i_glide_lipo>  (335) 
-0.249627

>  <r_i_glide_hbond>  (335) 
0

>  <r_i_glide_metal>  (335) 
-0

>  <r_i_glide_rewards>  (335) 
-0.343393

>  <r_i_glide_evdw>  (335) 
-24.7299

>  <r_i_glide_ecoul>  (335) 
2.46082

>  <r_i_glide_erotb>  (335) 
0.187592

>  <r_i_glide_esite>  (335) 
-0.00362937

>  <r_i_glide_emodel>  (335) 
-22.8908

>  <r_i_glide_energy>  (335) 
-22.2691

>  <r_i_glide_einternal>  (335) 
2.34102

>  <r_i_glide_intrahb_reward>  (335) 
-0

>  <i_i_glide_confnum>  (335) 
3

>  <i_i_glide_posenum>  (335) 
24

>  <r_i_glide_eff_state_penalty>  (335) 
0

>  <ligand_id>  (335) 
86

>  <original_smiles>  (335) 
C=C1C(=O)OC2C1CCC1C3=CC=CC4OC35C3CC(=O)C(OC(=O)NC)C5(C)CC3C4=CC12

>  <smiles>  (335) 
[H]C([H])=C1C(=O)OC2([H])C1([H])C([H])([H])C([H])([H])C1([H])C3=C([H])C([H])=C([H])C4([H])OC35C3([H])C([H])([H])C(=O)C([H])(OC(=O)N([H])C([H])([H])[H])C5(C([H])([H])[H])C([H])([H])C3([H])C4=C([H])C21[H]

$$$$
86:1:0
     RDKit          3D

 63 69  0  0  1  0  0  0  0  0999 V2000
    0.6386   -9.4560    5.4589 C   0  0  0  0  0  0  0  0  0  0  0  0
    0.5126   -8.1695    5.0930 C   0  0  0  0  0  0  0  0  0  0  0  0
    0.6574   -7.0594    6.0290 C   0  0  0  0  0  0  0  0  0  0  0  0
    0.7825   -7.1224    7.2481 O   0  0  0  0  0  0  0  0  0  0  0  0
    0.5742   -5.9134    5.3216 O   0  0  0  0  0  0  0  0  0  0  0  0
    0.5300   -6.0937    3.9133 C   0  0  2  0  0  0  0  0  0  0  0  0
    0.2052   -7.5930    3.7441 C   0  0  1  0  0  0  0  0  0  0  0  0
    0.8207   -8.3156    2.5178 C   0  0  0  0  0  0  0  0  0  0  0  0
    1.5216   -7.3813    1.4823 C   0  0  0  0  0  0  0  0  0  0  0  0
    2.1171   -5.9550    1.7525 C   0  0  2  0  0  0  0  0  0  0  0  0
    3.6082   -5.8262    1.1437 C   0  0  0  0  0  0  0  0  0  0  0  0
    4.2815   -6.9517    0.8166 C   0  0  0  0  0  0  0  0  0  0  0  0
    4.7776   -7.7383    1.9340 C   0  0  0  0  0  0  0  0  0  0  0  0
    5.2750   -7.1196    3.0220 C   0  0  0  0  0  0  0  0  0  0  0  0
    5.3875   -5.5979    3.1495 C   0  0  1  0  0  0  0  0  0  0  0  0
    5.7427   -5.0067    1.8042 O   0  0  0  0  0  0  0  0  0  0  0  0
    4.5637   -4.5362    1.0891 C   0  0  1  0  0  0  0  0  0  0  0  0
    5.0479   -3.3290    2.2049 C   0  0  1  0  0  0  0  0  0  0  0  0
    5.6368   -1.9360    1.8223 C   0  0  0  0  0  0  0  0  0  0  0  0
    5.8323   -1.9052    0.3489 C   0  0  0  0  0  0  0  0  0  0  0  0
    6.8434   -1.4653   -0.1996 O   0  0  0  0  0  0  0  0  0  0  0  0
    4.6086   -2.3546   -0.3794 C   0  0  1  0  0  0  0  0  0  0  0  0
    5.0129   -2.8692   -1.6717 O   0  0  0  0  0  0  0  0  0  0  0  0
    4.4874   -2.4676   -2.8540 C   0  0  0  0  0  0  0  0  0  0  0  0
    4.6469   -3.1104   -3.9100 O   0  0  0  0  0  0  0  0  0  0  0  0
    3.7463   -1.3137   -2.7408 N   0  0  0  0  0  0  0  0  0  0  0  0
    3.0083   -0.7015   -3.8379 C   0  0  0  0  0  0  0  0  0  0  0  0
    3.7370   -3.3738    0.4534 C   0  0  1  0  0  0  0  0  0  0  0  0
    2.6236   -3.7493   -0.5667 C   0  0  0  0  0  0  0  0  0  0  0  0
    3.0293   -2.9012    1.7989 C   0  0  0  0  0  0  0  0  0  0  0  0
    3.8872   -3.3558    3.0627 C   0  0  1  0  0  0  0  0  0  0  0  0
    4.0818   -4.8254    3.6706 C   0  0  0  0  0  0  0  0  0  0  0  0
    3.0593   -5.6159    4.0202 C   0  0  0  0  0  0  0  0  0  0  0  0
    1.8013   -5.4909    3.2384 C   0  0  2  0  0  0  0  0  0  0  0  0
    0.5091  -10.2710    4.7537 H   0  0  0  0  0  0  0  0  0  0  0  0
    0.8630   -9.7329    6.4850 H   0  0  0  0  0  0  0  0  0  0  0  0
   -0.3286   -5.5320    3.5494 H   0  0  0  0  0  0  0  0  0  0  0  0
   -0.8767   -7.6916    3.6619 H   0  0  0  0  0  0  0  0  0  0  0  0
    1.4579   -9.1587    2.8429 H   0  0  0  0  0  0  0  0  0  0  0  0
    0.0072   -8.8327    2.0105 H   0  0  0  0  0  0  0  0  0  0  0  0
    2.2698   -7.5940    2.2373 H   0  0  0  0  0  0  0  0  0  0  0  0
    0.5196   -6.9370    1.4209 H   0  0  0  0  0  0  0  0  0  0  0  0
    1.5135   -5.3044    1.1486 H   0  0  0  0  0  0  0  0  0  0  0  0
    5.1694   -6.7808    0.2000 H   0  0  0  0  0  0  0  0  0  0  0  0
    4.7480   -8.8188    1.9012 H   0  0  0  0  0  0  0  0  0  0  0  0
    5.6613   -7.6729    3.8526 H   0  0  0  0  0  0  0  0  0  0  0  0
    6.2094   -5.3902    3.8238 H   0  0  0  0  0  0  0  0  0  0  0  0
    5.8854   -3.3949    2.9386 H   0  0  0  0  0  0  0  0  0  0  0  0
    4.9677   -1.1219    2.0991 H   0  0  0  0  0  0  0  0  0  0  0  0
    6.5865   -1.7205    2.3109 H   0  0  0  0  0  0  0  0  0  0  0  0
    4.0297   -1.4309   -0.4337 H   0  0  0  0  0  0  0  0  0  0  0  0
    3.5600   -0.9823   -1.8163 H   0  0  0  0  0  0  0  0  0  0  0  0
    2.4523    0.1302   -3.4201 H   0  0  0  0  0  0  0  0  0  0  0  0
    2.2890   -1.3952   -4.2793 H   0  0  0  0  0  0  0  0  0  0  0  0
    3.6811   -0.3247   -4.6081 H   0  0  0  0  0  0  0  0  0  0  0  0
    2.4288   -2.9682   -1.3015 H   0  0  0  0  0  0  0  0  0  0  0  0
    1.6332   -3.8456   -0.1599 H   0  0  0  0  0  0  0  0  0  0  0  0
    2.8820   -4.6541   -1.1153 H   0  0  0  0  0  0  0  0  0  0  0  0
    2.9571   -1.8175    1.7734 H   0  0  0  0  0  0  0  0  0  0  0  0
    1.9867   -3.1801    1.8283 H   0  0  0  0  0  0  0  0  0  0  0  0
    3.9094   -2.5998    3.8492 H   0  0  0  0  0  0  0  0  0  0  0  0
    3.2413   -6.6375    4.3016 H   0  0  0  0  0  0  0  0  0  0  0  0
    1.5571   -4.4439    3.2833 H   0  0  0  0  0  0  0  0  0  0  0  0
  1  2  2  0
  1 35  1  0
  1 36  1  0
  2  7  1  0
  2  3  1  0
  3  4  2  0
  3  5  1  0
  5  6  1  0
  6 34  1  0
  6  7  1  0
  6 37  1  6
  7  8  1  0
  7 38  1  6
  8  9  1  0
  8 39  1  0
  8 40  1  0
  9 10  1  0
  9 41  1  0
  9 42  1  0
 10 34  1  0
 10 11  1  0
 10 43  1  6
 17 11  1  6
 11 12  2  0
 12 13  1  0
 12 44  1  0
 13 14  2  0
 13 45  1  0
 14 15  1  0
 14 46  1  0
 15 32  1  0
 15 16  1  0
 15 47  1  1
 16 17  1  0
 17 28  1  0
 17 18  1  0
 18 31  1  0
 18 19  1  0
 18 48  1  1
 19 20  1  0
 19 49  1  0
 19 50  1  0
 20 21  2  0
 20 22  1  0
 22 23  1  0
 22 28  1  0
 22 51  1  6
 23 24  1  0
 24 25  2  0
 24 26  1  0
 26 27  1  0
 26 52  1  0
 27 53  1  0
 27 54  1  0
 27 55  1  0
 28 29  1  6
 28 30  1  0
 29 56  1  0
 29 57  1  0
 29 58  1  0
 30 31  1  0
 30 59  1  0
 30 60  1  0
 31 32  1  0
 31 61  1  1
 32 33  2  3
 33 34  1  0
 33 62  1  0
 34 63  1  6
M  END
>  <i_m_ct_stereo_status>  (336) 
1

>  <s_m_source_file>  (336) 
/var/tmp/pbs.5076255.sched01/tmpsabrbf27/138opeauupd.sdf

>  <i_m_source_file_index>  (336) 
1

>  <i_lp_mmshare_version>  (336) 
48012

>  <i_f3d_flags>  (336) 
3

>  <s_epik_input>  (336) 
Tz1DKE8xKUMoPVtDSDJdKVtDQEhdKFtDSDJdW0NIMl0yKVtDQEBIXTFbQ0BIXShbQ0BIXTJDPTNbQ0BAXTQ1NikvW0NIXT1DKFxbQ0BASF0oTzQpW0NIXT1bQ0hdW0NIXTMpW0NASF03W0NAQEhdNVtDSDJdQyg9TylbQ0BIXShbQ0BdNihbQ0gzXSlbQ0gyXTcpT0MoPU8pW05IXVtDSDNd

>  <s_epik_cmdline>  (336) 
J2VwaWtfcHl0aG9uJywgJy1waHQnLCAnMi4wJywgJy1waCcsICc3LjAnLCAnLXRuJywgJzgnLCAnLW1hJywgJzIwMCcsICctaW1hZScsICc8aW5maWxlLm1hZT4nLCAnLW9tYWUnLCAnPG91dGZpbGUubWFlPic=

>  <r_lp_tautomer_probability>  (336) 
1

>  <r_epik_Ionization_Penalty>  (336) 
8.57606e-05

>  <r_epik_Ionization_Penalty_Charging>  (336) 
0

>  <r_epik_Ionization_Penalty_Neutral>  (336) 
8.57606e-05

>  <r_epik_State_Penalty>  (336) 
-0

>  <r_epik_Charging_Adjusted_Penalty>  (336) 
0

>  <i_epik_Tot_Q>  (336) 
0

>  <i_epik_Tot_abs_Q>  (336) 
0

>  <s_epik_Chemistry_Notes>  (336) 
This compound has an ester and may undergo hydrolysis at high or low pH.

>  <s_lp_Force_Field>  (336) 
OPLS3e

>  <r_lp_Energy>  (336) 
382.637

>  <b_lp_Chiralities_Consistent>  (336) 
0

>  <s_lp_Variant>  (336) 
86:0-2

>  <s_i_glide_gridfile>  (336) 
pfpi4k_grid

>  <i_i_glide_lignum>  (336) 
1

>  <i_i_glide_rotatable_bonds>  (336) 
3

>  <r_i_docking_score>  (336) 
-3.48404

>  <r_i_glide_ligand_efficiency>  (336) 
-0.102472

>  <r_i_glide_ligand_efficiency_sa>  (336) 
-0.331969

>  <r_i_glide_ligand_efficiency_ln>  (336) 
-0.769722

>  <r_i_glide_gscore>  (336) 
-3.48404

>  <r_i_glide_lipo>  (336) 
-0.568832

>  <r_i_glide_hbond>  (336) 
-0.149698

>  <r_i_glide_metal>  (336) 
-0

>  <r_i_glide_rewards>  (336) 
-0.50179

>  <r_i_glide_evdw>  (336) 
-31.3687

>  <r_i_glide_ecoul>  (336) 
-5.58923

>  <r_i_glide_erotb>  (336) 
0.187592

>  <r_i_glide_esite>  (336) 
-0.0444932

>  <r_i_glide_emodel>  (336) 
-43.6303

>  <r_i_glide_energy>  (336) 
-36.9579

>  <r_i_glide_einternal>  (336) 
2.25112

>  <r_i_glide_intrahb_reward>  (336) 
-0

>  <i_i_glide_confnum>  (336) 
3

>  <i_i_glide_posenum>  (336) 
7

>  <r_i_glide_eff_state_penalty>  (336) 
0

>  <ligand_id>  (336) 
86

>  <original_smiles>  (336) 
C=C1C(=O)OC2C1CCC1C3=CC=CC4OC35C3CC(=O)C(OC(=O)NC)C5(C)CC3C4=CC12

>  <smiles>  (336) 
[H]C([H])=C1C(=O)OC2([H])C1([H])C([H])([H])C([H])([H])C1([H])C3=C([H])C([H])=C([H])C4([H])OC35C3([H])C([H])([H])C(=O)C([H])(OC(=O)N([H])C([H])([H])[H])C5(C([H])([H])[H])C([H])([H])C3([H])C4=C([H])C21[H]

$$$$
86:1:1
     RDKit          3D

 63 69  0  0  1  0  0  0  0  0999 V2000
    3.7392   -0.6693    2.7572 C   0  0  0  0  0  0  0  0  0  0  0  0
    2.9464   -1.4476    3.5243 C   0  0  0  0  0  0  0  0  0  0  0  0
    1.4919   -1.4528    3.4184 C   0  0  0  0  0  0  0  0  0  0  0  0
    0.8004   -0.6961    2.7426 O   0  0  0  0  0  0  0  0  0  0  0  0
    1.0208   -2.4097    4.2368 O   0  0  0  0  0  0  0  0  0  0  0  0
    2.0264   -3.2119    4.8546 C   0  0  2  0  0  0  0  0  0  0  0  0
    3.3301   -2.4205    4.6026 C   0  0  1  0  0  0  0  0  0  0  0  0
    4.6302   -3.2340    4.3786 C   0  0  0  0  0  0  0  0  0  0  0  0
    4.4884   -4.7649    4.6413 C   0  0  0  0  0  0  0  0  0  0  0  0
    3.1765   -5.6243    4.5970 C   0  0  2  0  0  0  0  0  0  0  0  0
    3.3866   -6.9487    3.7120 C   0  0  0  0  0  0  0  0  0  0  0  0
    4.4521   -7.0296    2.8758 C   0  0  0  0  0  0  0  0  0  0  0  0
    4.3738   -6.2283    1.6686 C   0  0  0  0  0  0  0  0  0  0  0  0
    3.2002   -6.1048    1.0107 C   0  0  0  0  0  0  0  0  0  0  0  0
    1.9118   -6.8083    1.4573 C   0  0  1  0  0  0  0  0  0  0  0  0
    2.2553   -8.1603    1.9985 O   0  0  0  0  0  0  0  0  0  0  0  0
    2.3465   -8.1523    3.4539 C   0  0  1  0  0  0  0  0  0  0  0  0
    0.7010   -8.2944    3.0185 C   0  0  1  0  0  0  0  0  0  0  0  0
   -0.1930   -9.5560    3.2669 C   0  0  0  0  0  0  0  0  0  0  0  0
    0.6558  -10.6680    3.7746 C   0  0  0  0  0  0  0  0  0  0  0  0
    0.6141  -11.8174    3.3409 O   0  0  0  0  0  0  0  0  0  0  0  0
    1.5800  -10.2281    4.8785 C   0  0  1  0  0  0  0  0  0  0  0  0
    2.7547  -11.0673    4.9236 O   0  0  0  0  0  0  0  0  0  0  0  0
    3.6212  -11.2083    3.8977 C   0  0  0  0  0  0  0  0  0  0  0  0
    3.5939  -10.5806    2.8477 O   0  0  0  0  0  0  0  0  0  0  0  0
    4.5490  -12.1728    4.2226 N   0  0  0  0  0  0  0  0  0  0  0  0
    5.5722  -12.5562    3.2648 C   0  0  0  0  0  0  0  0  0  0  0  0
    1.8741   -8.6729    4.8473 C   0  0  1  0  0  0  0  0  0  0  0  0
    2.8562   -8.5248    6.0614 C   0  0  0  0  0  0  0  0  0  0  0  0
    0.7019   -7.5973    5.0017 C   0  0  0  0  0  0  0  0  0  0  0  0
    0.2471   -7.0467    3.5663 C   0  0  1  0  0  0  0  0  0  0  0  0
    1.0369   -6.0647    2.5702 C   0  0  0  0  0  0  0  0  0  0  0  0
    1.4920   -4.8572    2.9400 C   0  0  0  0  0  0  0  0  0  0  0  0
    1.9169   -4.6853    4.3576 C   0  0  2  0  0  0  0  0  0  0  0  0
    4.8148   -0.6741    2.8619 H   0  0  0  0  0  0  0  0  0  0  0  0
    3.3125   -0.0058    2.0169 H   0  0  0  0  0  0  0  0  0  0  0  0
    1.8468   -3.2149    5.9317 H   0  0  0  0  0  0  0  0  0  0  0  0
    3.4909   -1.7940    5.4821 H   0  0  0  0  0  0  0  0  0  0  0  0
    5.0703   -2.9966    3.3976 H   0  0  0  0  0  0  0  0  0  0  0  0
    5.3833   -2.8378    5.0630 H   0  0  0  0  0  0  0  0  0  0  0  0
    4.1739   -4.6193    3.6194 H   0  0  0  0  0  0  0  0  0  0  0  0
    4.2119   -4.4266    5.6426 H   0  0  0  0  0  0  0  0  0  0  0  0
    3.0505   -5.9803    5.6094 H   0  0  0  0  0  0  0  0  0  0  0  0
    4.6534   -8.0276    2.5092 H   0  0  0  0  0  0  0  0  0  0  0  0
    5.2527   -5.7278    1.2857 H   0  0  0  0  0  0  0  0  0  0  0  0
    3.1357   -5.5282    0.1008 H   0  0  0  0  0  0  0  0  0  0  0  0
    1.3105   -6.9582    0.5627 H   0  0  0  0  0  0  0  0  0  0  0  0
    0.2814   -8.2933    1.9911 H   0  0  0  0  0  0  0  0  0  0  0  0
   -0.9893   -9.3761    3.9907 H   0  0  0  0  0  0  0  0  0  0  0  0
   -0.6836   -9.9102    2.3569 H   0  0  0  0  0  0  0  0  0  0  0  0
    1.0315  -10.4380    5.7957 H   0  0  0  0  0  0  0  0  0  0  0  0
    4.4391  -12.6414    5.1095 H   0  0  0  0  0  0  0  0  0  0  0  0
    6.1848  -13.3645    3.6607 H   0  0  0  0  0  0  0  0  0  0  0  0
    6.2120  -11.7045    3.0217 H   0  0  0  0  0  0  0  0  0  0  0  0
    5.1122  -12.8939    2.3336 H   0  0  0  0  0  0  0  0  0  0  0  0
    2.7501   -9.3481    6.7730 H   0  0  0  0  0  0  0  0  0  0  0  0
    2.6745   -7.6555    6.6912 H   0  0  0  0  0  0  0  0  0  0  0  0
    3.9040   -8.5306    5.7512 H   0  0  0  0  0  0  0  0  0  0  0  0
   -0.1413   -8.0840    5.4898 H   0  0  0  0  0  0  0  0  0  0  0  0
    0.9453   -6.8291    5.7254 H   0  0  0  0  0  0  0  0  0  0  0  0
   -0.8354   -6.9115    3.4894 H   0  0  0  0  0  0  0  0  0  0  0  0
    2.1310   -4.2970    2.2728 H   0  0  0  0  0  0  0  0  0  0  0  0
    1.0674   -5.0159    4.9353 H   0  0  0  0  0  0  0  0  0  0  0  0
  1  2  2  0
  1 35  1  0
  1 36  1  0
  2  7  1  0
  2  3  1  0
  3  4  2  0
  3  5  1  0
  5  6  1  0
  6 34  1  0
  6  7  1  0
  6 37  1  1
  7  8  1  0
  7 38  1  1
  8  9  1  0
  8 39  1  0
  8 40  1  0
  9 10  1  0
  9 41  1  0
  9 42  1  0
 10 34  1  0
 10 11  1  0
 10 43  1  1
 17 11  1  1
 11 12  2  0
 12 13  1  0
 12 44  1  0
 13 14  2  0
 13 45  1  0
 14 15  1  0
 14 46  1  0
 15 32  1  0
 15 16  1  0
 15 47  1  6
 16 17  1  0
 17 28  1  0
 17 18  1  0
 18 31  1  0
 18 19  1  0
 18 48  1  6
 19 20  1  0
 19 49  1  0
 19 50  1  0
 20 21  2  0
 20 22  1  0
 22 23  1  0
 22 28  1  0
 22 51  1  1
 23 24  1  0
 24 25  2  0
 24 26  1  0
 26 27  1  0
 26 52  1  0
 27 53  1  0
 27 54  1  0
 27 55  1  0
 28 29  1  1
 28 30  1  0
 29 56  1  0
 29 57  1  0
 29 58  1  0
 30 31  1  0
 30 59  1  0
 30 60  1  0
 31 32  1  0
 31 61  1  1
 32 33  2  3
 33 34  1  0
 33 62  1  0
 34 63  1  1
M  END
>  <i_m_ct_stereo_status>  (337) 
1

>  <s_m_source_file>  (337) 
/var/tmp/pbs.5076255.sched01/tmpsabrbf27/138opeauupd.sdf

>  <i_m_source_file_index>  (337) 
1

>  <i_lp_mmshare_version>  (337) 
48012

>  <i_f3d_flags>  (337) 
3

>  <s_epik_input>  (337) 
Tz1DKE8xKUMoPVtDSDJdKVtDQEhdKFtDSDJdW0NIMl0yKVtDQEBIXTFbQ0BIXShbQ0BIXTJDPTNbQ0BAXTQ1NikvW0NIXT1DKFxbQ0BASF0oTzQpW0NIXT1bQ0hdW0NIXTMpW0NASF03W0NAQEhdNVtDSDJdQyg9TylbQ0BIXShbQ0BdNihbQ0gzXSlbQ0gyXTcpT0MoPU8pW05IXVtDSDNd

>  <s_epik_cmdline>  (337) 
J2VwaWtfcHl0aG9uJywgJy1waHQnLCAnMi4wJywgJy1waCcsICc3LjAnLCAnLXRuJywgJzgnLCAnLW1hJywgJzIwMCcsICctaW1hZScsICc8aW5maWxlLm1hZT4nLCAnLW9tYWUnLCAnPG91dGZpbGUubWFlPic=

>  <r_lp_tautomer_probability>  (337) 
1

>  <r_epik_Ionization_Penalty>  (337) 
8.57606e-05

>  <r_epik_Ionization_Penalty_Charging>  (337) 
0

>  <r_epik_Ionization_Penalty_Neutral>  (337) 
8.57606e-05

>  <r_epik_State_Penalty>  (337) 
-0

>  <r_epik_Charging_Adjusted_Penalty>  (337) 
0

>  <i_epik_Tot_Q>  (337) 
0

>  <i_epik_Tot_abs_Q>  (337) 
0

>  <s_epik_Chemistry_Notes>  (337) 
This compound has an ester and may undergo hydrolysis at high or low pH.

>  <s_lp_Force_Field>  (337) 
OPLS3e

>  <r_lp_Energy>  (337) 
382.637

>  <b_lp_Chiralities_Consistent>  (337) 
0

>  <s_lp_Variant>  (337) 
86:0-2

>  <s_i_glide_gridfile>  (337) 
pfpi4k_grid

>  <i_i_glide_lignum>  (337) 
1

>  <i_i_glide_rotatable_bonds>  (337) 
3

>  <r_i_docking_score>  (337) 
-1.27462

>  <r_i_glide_ligand_efficiency>  (337) 
-0.0374889

>  <r_i_glide_ligand_efficiency_sa>  (337) 
-0.121449

>  <r_i_glide_ligand_efficiency_ln>  (337) 
-0.2816

>  <r_i_glide_gscore>  (337) 
-1.27462

>  <r_i_glide_lipo>  (337) 
-0.0927325

>  <r_i_glide_hbond>  (337) 
0

>  <r_i_glide_metal>  (337) 
-0

>  <r_i_glide_rewards>  (337) 
-0.248712

>  <r_i_glide_evdw>  (337) 
-26.6998

>  <r_i_glide_ecoul>  (337) 
1.78199

>  <r_i_glide_erotb>  (337) 
0.187592

>  <r_i_glide_esite>  (337) 
-0.0530756

>  <r_i_glide_emodel>  (337) 
-26.5067

>  <r_i_glide_energy>  (337) 
-24.9179

>  <r_i_glide_einternal>  (337) 
1.8008

>  <r_i_glide_intrahb_reward>  (337) 
-0

>  <i_i_glide_confnum>  (337) 
2

>  <i_i_glide_posenum>  (337) 
8

>  <r_i_glide_eff_state_penalty>  (337) 
0

>  <ligand_id>  (337) 
86

>  <original_smiles>  (337) 
C=C1C(=O)OC2C1CCC1C3=CC=CC4OC35C3CC(=O)C(OC(=O)NC)C5(C)CC3C4=CC12

>  <smiles>  (337) 
[H]C([H])=C1C(=O)OC2([H])C1([H])C([H])([H])C([H])([H])C1([H])C3=C([H])C([H])=C([H])C4([H])OC35C3([H])C([H])([H])C(=O)C([H])(OC(=O)N([H])C([H])([H])[H])C5(C([H])([H])[H])C([H])([H])C3([H])C4=C([H])C21[H]

$$$$
86:1:2
     RDKit          3D

 63 69  0  0  1  0  0  0  0  0999 V2000
    0.2409   -0.8253    3.8739 C   0  0  0  0  0  0  0  0  0  0  0  0
    0.4837   -1.7353    4.8337 C   0  0  0  0  0  0  0  0  0  0  0  0
   -0.5636   -2.3053    5.6708 C   0  0  0  0  0  0  0  0  0  0  0  0
   -1.7488   -1.9726    5.6902 O   0  0  0  0  0  0  0  0  0  0  0  0
   -0.0065   -3.2526    6.4463 O   0  0  0  0  0  0  0  0  0  0  0  0
    1.3664   -3.5250    6.1568 C   0  0  2  0  0  0  0  0  0  0  0  0
    1.7908   -2.3402    5.2578 C   0  0  1  0  0  0  0  0  0  0  0  0
    2.8262   -2.6230    4.1387 C   0  0  0  0  0  0  0  0  0  0  0  0
    3.4765   -4.0395    4.1977 C   0  0  0  0  0  0  0  0  0  0  0  0
    2.8827   -5.3306    4.8651 C   0  0  2  0  0  0  0  0  0  0  0  0
    2.9547   -6.5849    3.8630 C   0  0  0  0  0  0  0  0  0  0  0  0
    3.1733   -6.3686    2.5429 C   0  0  0  0  0  0  0  0  0  0  0  0
    2.0463   -5.8340    1.7925 C   0  0  0  0  0  0  0  0  0  0  0  0
    0.7964   -6.2671    2.0604 C   0  0  0  0  0  0  0  0  0  0  0  0
    0.4772   -7.3304    3.1109 C   0  0  1  0  0  0  0  0  0  0  0  0
    1.5635   -8.3619    3.0989 O   0  0  0  0  0  0  0  0  0  0  0  0
    2.5467   -8.1173    4.1453 C   0  0  1  0  0  0  0  0  0  0  0  0
    1.2105   -8.9352    4.8375 C   0  0  1  0  0  0  0  0  0  0  0  0
    1.2413  -10.3963    5.3940 C   0  0  0  0  0  0  0  0  0  0  0  0
    2.5559  -11.0192    5.0716 C   0  0  0  0  0  0  0  0  0  0  0  0
    2.6869  -12.1478    4.6089 O   0  0  0  0  0  0  0  0  0  0  0  0
    3.7116  -10.1120    5.3923 C   0  0  1  0  0  0  0  0  0  0  0  0
    4.8451  -10.4199    4.5523 O   0  0  0  0  0  0  0  0  0  0  0  0
    4.8416  -10.3018    3.2012 C   0  0  0  0  0  0  0  0  0  0  0  0
    3.8784   -9.9856    2.5024 O   0  0  0  0  0  0  0  0  0  0  0  0
    6.1079  -10.5377    2.7350 N   0  0  0  0  0  0  0  0  0  0  0  0
    6.4045  -10.3490    1.3268 C   0  0  0  0  0  0  0  0  0  0  0  0
    3.3111   -8.5827    5.4201 C   0  0  1  0  0  0  0  0  0  0  0  0
    4.6906   -7.9074    5.7382 C   0  0  0  0  0  0  0  0  0  0  0  0
    2.2172   -8.0227    6.4431 C   0  0  0  0  0  0  0  0  0  0  0  0
    0.7882   -7.8879    5.7278 C   0  0  1  0  0  0  0  0  0  0  0  0
    0.3121   -6.8248    4.6218 C   0  0  0  0  0  0  0  0  0  0  0  0
    0.4045   -5.4965    4.7956 C   0  0  0  0  0  0  0  0  0  0  0  0
    1.5311   -4.9828    5.6271 C   0  0  2  0  0  0  0  0  0  0  0  0
    1.0291   -0.4133    3.2599 H   0  0  0  0  0  0  0  0  0  0  0  0
   -0.7672   -0.4794    3.6824 H   0  0  0  0  0  0  0  0  0  0  0  0
    1.9378   -3.4522    7.0856 H   0  0  0  0  0  0  0  0  0  0  0  0
    2.2318   -1.5946    5.9189 H   0  0  0  0  0  0  0  0  0  0  0  0
    2.4069   -2.3743    3.1501 H   0  0  0  0  0  0  0  0  0  0  0  0
    3.6209   -1.8812    4.2370 H   0  0  0  0  0  0  0  0  0  0  0  0
    2.5584   -4.1649    3.6407 H   0  0  0  0  0  0  0  0  0  0  0  0
    3.7998   -3.6998    5.1858 H   0  0  0  0  0  0  0  0  0  0  0  0
    3.5790   -5.5684    5.6554 H   0  0  0  0  0  0  0  0  0  0  0  0
    3.4537   -7.2489    1.9782 H   0  0  0  0  0  0  0  0  0  0  0  0
    2.2131   -5.1015    1.0179 H   0  0  0  0  0  0  0  0  0  0  0  0
   -0.0453   -5.9216    1.4932 H   0  0  0  0  0  0  0  0  0  0  0  0
   -0.4453   -7.8172    2.7924 H   0  0  0  0  0  0  0  0  0  0  0  0
    0.2681   -9.2327    4.3260 H   0  0  0  0  0  0  0  0  0  0  0  0
    1.0942  -10.4272    6.4736 H   0  0  0  0  0  0  0  0  0  0  0  0
    0.4571  -11.0274    4.9706 H   0  0  0  0  0  0  0  0  0  0  0  0
    4.0008  -10.3917    6.4058 H   0  0  0  0  0  0  0  0  0  0  0  0
    6.8051  -10.8331    3.4091 H   0  0  0  0  0  0  0  0  0  0  0  0
    7.4152  -10.6423    1.1453 H   0  0  0  0  0  0  0  0  0  0  0  0
    6.2660   -9.3085    1.0129 H   0  0  0  0  0  0  0  0  0  0  0  0
    5.8211  -11.0068    0.6860 H   0  0  0  0  0  0  0  0  0  0  0  0
    5.3813   -8.6039    6.2199 H   0  0  0  0  0  0  0  0  0  0  0  0
    4.6431   -7.0990    6.4637 H   0  0  0  0  0  0  0  0  0  0  0  0
    5.1973   -7.5561    4.8393 H   0  0  0  0  0  0  0  0  0  0  0  0
    2.1414   -8.7250    7.2730 H   0  0  0  0  0  0  0  0  0  0  0  0
    2.5555   -7.1289    6.9518 H   0  0  0  0  0  0  0  0  0  0  0  0
   -0.0418   -8.1874    6.3725 H   0  0  0  0  0  0  0  0  0  0  0  0
    0.2099   -4.8317    3.9703 H   0  0  0  0  0  0  0  0  0  0  0  0
    1.4553   -5.5320    6.5526 H   0  0  0  0  0  0  0  0  0  0  0  0
  1  2  2  0
  1 35  1  0
  1 36  1  0
  2  7  1  0
  2  3  1  0
  3  4  2  0
  3  5  1  0
  5  6  1  0
  6 34  1  0
  6  7  1  0
  6 37  1  1
  7  8  1  0
  7 38  1  1
  8  9  1  0
  8 39  1  0
  8 40  1  0
  9 10  1  0
  9 41  1  0
  9 42  1  0
 10 34  1  0
 10 11  1  0
 10 43  1  1
 17 11  1  6
 11 12  2  0
 12 13  1  0
 12 44  1  0
 13 14  2  0
 13 45  1  0
 14 15  1  0
 14 46  1  0
 15 32  1  0
 15 16  1  0
 15 47  1  6
 16 17  1  0
 17 28  1  0
 17 18  1  0
 18 31  1  0
 18 19  1  0
 18 48  1  6
 19 20  1  0
 19 49  1  0
 19 50  1  0
 20 21  2  0
 20 22  1  0
 22 23  1  0
 22 28  1  0
 22 51  1  1
 23 24  1  0
 24 25  2  0
 24 26  1  0
 26 27  1  0
 26 52  1  0
 27 53  1  0
 27 54  1  0
 27 55  1  0
 28 29  1  1
 28 30  1  0
 29 56  1  0
 29 57  1  0
 29 58  1  0
 30 31  1  0
 30 59  1  0
 30 60  1  0
 31 32  1  0
 31 61  1  1
 32 33  2  3
 33 34  1  0
 33 62  1  0
 34 63  1  1
M  END
>  <i_m_ct_stereo_status>  (338) 
1

>  <s_m_source_file>  (338) 
/var/tmp/pbs.5076255.sched01/tmpsabrbf27/138opeauupd.sdf

>  <i_m_source_file_index>  (338) 
1

>  <i_lp_mmshare_version>  (338) 
48012

>  <i_f3d_flags>  (338) 
3

>  <s_epik_input>  (338) 
Tz1DKE8xKUMoPVtDSDJdKVtDQEhdKFtDSDJdW0NIMl0yKVtDQEBIXTFbQ0BIXShbQ0BIXTJDPTNbQ0BAXTQ1NikvW0NIXT1DKFxbQ0BASF0oTzQpW0NIXT1bQ0hdW0NIXTMpW0NASF03W0NAQEhdNVtDSDJdQyg9TylbQ0BIXShbQ0BdNihbQ0gzXSlbQ0gyXTcpT0MoPU8pW05IXVtDSDNd

>  <s_epik_cmdline>  (338) 
J2VwaWtfcHl0aG9uJywgJy1waHQnLCAnMi4wJywgJy1waCcsICc3LjAnLCAnLXRuJywgJzgnLCAnLW1hJywgJzIwMCcsICctaW1hZScsICc8aW5maWxlLm1hZT4nLCAnLW9tYWUnLCAnPG91dGZpbGUubWFlPic=

>  <r_lp_tautomer_probability>  (338) 
1

>  <r_epik_Ionization_Penalty>  (338) 
8.57606e-05

>  <r_epik_Ionization_Penalty_Charging>  (338) 
0

>  <r_epik_Ionization_Penalty_Neutral>  (338) 
8.57606e-05

>  <r_epik_State_Penalty>  (338) 
-0

>  <r_epik_Charging_Adjusted_Penalty>  (338) 
0

>  <i_epik_Tot_Q>  (338) 
0

>  <i_epik_Tot_abs_Q>  (338) 
0

>  <s_epik_Chemistry_Notes>  (338) 
This compound has an ester and may undergo hydrolysis at high or low pH.

>  <s_lp_Force_Field>  (338) 
OPLS3e

>  <r_lp_Energy>  (338) 
382.637

>  <b_lp_Chiralities_Consistent>  (338) 
0

>  <s_lp_Variant>  (338) 
86:0-2

>  <s_i_glide_gridfile>  (338) 
pfpi4k_grid

>  <i_i_glide_lignum>  (338) 
1

>  <i_i_glide_rotatable_bonds>  (338) 
3

>  <r_i_docking_score>  (338) 
-1.27285

>  <r_i_glide_ligand_efficiency>  (338) 
-0.0374366

>  <r_i_glide_ligand_efficiency_sa>  (338) 
-0.12128

>  <r_i_glide_ligand_efficiency_ln>  (338) 
-0.281207

>  <r_i_glide_gscore>  (338) 
-1.27285

>  <r_i_glide_lipo>  (338) 
-7.77964e-05

>  <r_i_glide_hbond>  (338) 
0

>  <r_i_glide_metal>  (338) 
-0

>  <r_i_glide_rewards>  (338) 
-0.248712

>  <r_i_glide_evdw>  (338) 
-22.1821

>  <r_i_glide_ecoul>  (338) 
0.318527

>  <r_i_glide_erotb>  (338) 
0.187592

>  <r_i_glide_esite>  (338) 
-0.150323

>  <r_i_glide_emodel>  (338) 
-23.3998

>  <r_i_glide_energy>  (338) 
-21.8636

>  <r_i_glide_einternal>  (338) 
1.99489

>  <r_i_glide_intrahb_reward>  (338) 
-0

>  <i_i_glide_confnum>  (338) 
2

>  <i_i_glide_posenum>  (338) 
32

>  <r_i_glide_eff_state_penalty>  (338) 
0

>  <ligand_id>  (338) 
86

>  <original_smiles>  (338) 
C=C1C(=O)OC2C1CCC1C3=CC=CC4OC35C3CC(=O)C(OC(=O)NC)C5(C)CC3C4=CC12

>  <smiles>  (338) 
[H]C([H])=C1C(=O)OC2([H])C1([H])C([H])([H])C([H])([H])C1([H])C3=C([H])C([H])=C([H])C4([H])OC35C3([H])C([H])([H])C(=O)C([H])(OC(=O)N([H])C([H])([H])[H])C5(C([H])([H])[H])C([H])([H])C3([H])C4=C([H])C21[H]

$$$$
87:0:0
     RDKit          3D

 66 70  0  0  1  0  0  0  0  0999 V2000
    5.2208   -5.6080    0.5858 C   0  0  0  0  0  0  0  0  0  0  0  0
    5.7514   -4.2866    1.1621 C   0  0  2  0  0  0  0  0  0  0  0  0
    5.1887   -3.9954    2.5700 C   0  0  0  0  0  0  0  0  0  0  0  0
    4.9402   -2.4911    2.5551 C   0  0  2  0  0  0  0  0  0  0  0  0
    4.1912   -1.8194    3.7410 C   0  0  2  0  0  0  0  0  0  0  0  0
    2.7950   -2.3850    4.0767 C   0  0  0  0  0  0  0  0  0  0  0  0
    2.1777   -1.6985    5.3107 C   0  0  0  0  0  0  0  0  0  0  0  0
    2.0525   -0.1622    5.1761 C   0  0  1  0  0  0  0  0  0  0  0  0
    3.4053    0.4414    4.7159 C   0  0  2  0  0  0  0  0  0  0  0  0
    3.3524    1.9778    4.6214 C   0  0  0  0  0  0  0  0  0  0  0  0
    2.0735    2.5044    4.0163 C   0  0  0  0  0  0  0  0  0  0  0  0
    0.9126    1.8270    3.9646 C   0  0  0  0  0  0  0  0  0  0  0  0
   -0.3449    2.4974    3.4290 C   0  0  0  0  0  0  0  0  0  0  0  0
   -1.4077    2.5899    4.5326 C   0  0  1  0  0  0  0  0  0  0  0  0
   -2.6112    3.1045    3.9963 O   0  0  0  0  0  0  0  0  0  0  0  0
   -1.6733    1.2302    5.2038 C   0  0  0  0  0  0  0  0  0  0  0  0
   -0.3670    0.5311    5.6474 C   0  0  0  0  0  0  0  0  0  0  0  0
    0.7227    0.4127    4.5364 C   0  0  2  0  0  0  0  0  0  0  0  0
    0.1648   -0.5189    3.4381 C   0  0  0  0  0  0  0  0  0  0  0  0
    4.1607   -0.2791    3.5471 C   0  0  1  0  0  0  0  0  0  0  0  0
    5.5043    0.1471    3.7006 O   0  0  0  0  0  0  0  0  0  0  0  0
    3.7314    0.1230    2.1038 C   0  0  0  0  0  0  0  0  0  0  0  0
    4.5154   -0.6184    0.9814 C   0  0  0  0  0  0  0  0  0  0  0  0
    4.4507   -2.1620    1.1340 C   0  0  2  0  0  0  0  0  0  0  0  0
    3.0101   -2.6446    0.7998 C   0  0  0  0  0  0  0  0  0  0  0  0
    5.3949   -3.0589    0.2578 C   0  0  1  0  0  0  0  0  0  0  0  0
    6.6287   -2.3453   -0.3203 C   0  0  0  0  0  0  0  0  0  0  0  0
    7.6681   -2.2716    0.3710 O   0  0  0  0  0  0  0  0  0  0  0  0
    6.5216   -1.8581   -1.4675 O   0  0  0  0  0  0  0  0  0  0  0  0
    4.1418   -5.5650    0.4510 H   0  0  0  0  0  0  0  0  0  0  0  0
    5.4445   -6.4508    1.2394 H   0  0  0  0  0  0  0  0  0  0  0  0
    5.6631   -5.8083   -0.3876 H   0  0  0  0  0  0  0  0  0  0  0  0
    6.8340   -4.3770    1.2504 H   0  0  0  0  0  0  0  0  0  0  0  0
    4.2596   -4.5395    2.7368 H   0  0  0  0  0  0  0  0  0  0  0  0
    5.8772   -4.2849    3.3657 H   0  0  0  0  0  0  0  0  0  0  0  0
    5.9459   -2.0770    2.6111 H   0  0  0  0  0  0  0  0  0  0  0  0
    4.7885   -2.0219    4.6316 H   0  0  0  0  0  0  0  0  0  0  0  0
    2.1171   -2.2770    3.2420 H   0  0  0  0  0  0  0  0  0  0  0  0
    2.8683   -3.4556    4.2696 H   0  0  0  0  0  0  0  0  0  0  0  0
    1.2162   -2.1519    5.5522 H   0  0  0  0  0  0  0  0  0  0  0  0
    2.8271   -1.9177    6.1621 H   0  0  0  0  0  0  0  0  0  0  0  0
    1.9906    0.1743    6.2102 H   0  0  0  0  0  0  0  0  0  0  0  0
    4.0509    0.2554    5.5771 H   0  0  0  0  0  0  0  0  0  0  0  0
    3.4185    2.4080    5.6215 H   0  0  0  0  0  0  0  0  0  0  0  0
    4.1975    2.3836    4.0684 H   0  0  0  0  0  0  0  0  0  0  0  0
    2.1155    3.5239    3.6597 H   0  0  0  0  0  0  0  0  0  0  0  0
   -0.1075    3.4969    3.0640 H   0  0  0  0  0  0  0  0  0  0  0  0
   -0.7172    1.9489    2.5654 H   0  0  0  0  0  0  0  0  0  0  0  0
   -1.0586    3.2915    5.2918 H   0  0  0  0  0  0  0  0  0  0  0  0
   -2.9063    2.5253    3.3092 H   0  0  0  0  0  0  0  0  0  0  0  0
   -2.3092    1.3860    6.0760 H   0  0  0  0  0  0  0  0  0  0  0  0
   -2.2367    0.5800    4.5344 H   0  0  0  0  0  0  0  0  0  0  0  0
    0.0332    1.1071    6.4821 H   0  0  0  0  0  0  0  0  0  0  0  0
   -0.6001   -0.4558    6.0477 H   0  0  0  0  0  0  0  0  0  0  0  0
   -0.0297   -1.5264    3.8065 H   0  0  0  0  0  0  0  0  0  0  0  0
    0.7990   -0.5901    2.5617 H   0  0  0  0  0  0  0  0  0  0  0  0
   -0.7936   -0.1663    3.0640 H   0  0  0  0  0  0  0  0  0  0  0  0
    5.5170    1.0899    3.6743 H   0  0  0  0  0  0  0  0  0  0  0  0
    2.6760   -0.0611    1.9775 H   0  0  0  0  0  0  0  0  0  0  0  0
    3.8165    1.1983    1.9563 H   0  0  0  0  0  0  0  0  0  0  0  0
    4.1296   -0.3189    0.0072 H   0  0  0  0  0  0  0  0  0  0  0  0
    5.5474   -0.2655    1.0155 H   0  0  0  0  0  0  0  0  0  0  0  0
    2.8607   -2.6881   -0.2815 H   0  0  0  0  0  0  0  0  0  0  0  0
    2.2303   -1.9776    1.1584 H   0  0  0  0  0  0  0  0  0  0  0  0
    2.8165   -3.6421    1.1953 H   0  0  0  0  0  0  0  0  0  0  0  0
    4.8595   -3.4256   -0.6203 H   0  0  0  0  0  0  0  0  0  0  0  0
  1  2  1  0
  1 30  1  0
  1 31  1  0
  1 32  1  0
  2 26  1  0
  2  3  1  0
  2 33  1  1
  3  4  1  0
  3 34  1  0
  3 35  1  0
  4 24  1  0
  4  5  1  0
  4 36  1  6
  5 20  1  0
  5  6  1  0
  5 37  1  1
  6  7  1  0
  6 38  1  0
  6 39  1  0
  7  8  1  0
  7 40  1  0
  7 41  1  0
  8 18  1  0
  8  9  1  0
  8 42  1  1
  9 10  1  0
  9 20  1  0
  9 43  1  1
 10 11  1  0
 10 44  1  0
 10 45  1  0
 11 12  2  0
 11 46  1  0
 12 18  1  0
 12 13  1  0
 13 14  1  0
 13 47  1  0
 13 48  1  0
 14 15  1  0
 14 16  1  0
 14 49  1  1
 15 50  1  0
 16 17  1  0
 16 51  1  0
 16 52  1  0
 17 18  1  0
 17 53  1  0
 17 54  1  0
 18 19  1  6
 19 55  1  0
 19 56  1  0
 19 57  1  0
 20 21  1  6
 20 22  1  0
 21 58  1  0
 22 23  1  0
 22 59  1  0
 22 60  1  0
 23 24  1  0
 23 61  1  0
 23 62  1  0
 24 25  1  1
 24 26  1  0
 25 63  1  0
 25 64  1  0
 25 65  1  0
 26 27  1  0
 26 66  1  6
 27 28  2  0
 27 29  1  0
M  CHG  1  29  -1
M  END
>  <i_m_ct_stereo_status>  (339) 
1

>  <s_m_source_file>  (339) 
/var/tmp/pbs.5076255.sched01/tmpsabrbf27/138opeauupd.sdf

>  <i_m_source_file_index>  (339) 
2

>  <i_lp_mmshare_version>  (339) 
48012

>  <i_f3d_flags>  (339) 
0

>  <s_epik_input>  (339) 
W0NIM11bQ0BIXShbQ0gyXTEpW0NASF0oQyg9TylbT0hdKVtDQF0oW0NIM10pKFtDSDJdW0NIMl0yKVtDQEhdMVtDQEhdKFtDSDJdW0NIMl0zKVtDQF0yKFtPSF0pW0NASF0oW0NASF0zW0NAXTQ1W0NIM10pW0NIMl1bQ0hdPUM0W0NIMl1bQ0BASF0oW09IXSlbQ0gyXVtDSDJdNQ==

>  <s_epik_cmdline>  (339) 
J2VwaWtfcHl0aG9uJywgJy1waHQnLCAnMi4wJywgJy1waCcsICc3LjAnLCAnLXRuJywgJzgnLCAnLW1hJywgJzIwMCcsICctaW1hZScsICc8aW5maWxlLm1hZT4nLCAnLW9tYWUnLCAnPG91dGZpbGUubWFlPic=

>  <r_epik_Ionization_Penalty>  (339) 
0.000874989

>  <r_epik_Ionization_Penalty_Charging>  (339) 
0.000866812

>  <r_epik_Ionization_Penalty_Neutral>  (339) 
8.17631e-06

>  <r_epik_State_Penalty>  (339) 
0.000559633

>  <r_epik_Charging_Adjusted_Penalty>  (339) 
0.00142645

>  <i_epik_Tot_Q>  (339) 
-1

>  <i_epik_Tot_abs_Q>  (339) 
1

>  <s_lp_Force_Field>  (339) 
OPLS3e

>  <r_lp_Energy>  (339) 
55.0207

>  <b_lp_Chiralities_Consistent>  (339) 
1

>  <s_lp_Variant>  (339) 
87:0-1

>  <s_i_glide_gridfile>  (339) 
pfpi4k_grid

>  <i_i_glide_lignum>  (339) 
2

>  <i_i_glide_rotatable_bonds>  (339) 
3

>  <r_i_docking_score>  (339) 
-3.47567

>  <r_i_glide_ligand_efficiency>  (339) 
-0.119851

>  <r_i_glide_ligand_efficiency_sa>  (339) 
-0.368219

>  <r_i_glide_ligand_efficiency_ln>  (339) 
-0.795839

>  <r_i_glide_gscore>  (339) 
-3.47567

>  <r_i_glide_lipo>  (339) 
-0.465961

>  <r_i_glide_hbond>  (339) 
-0.301919

>  <r_i_glide_metal>  (339) 
-0

>  <r_i_glide_rewards>  (339) 
-0.671189

>  <r_i_glide_evdw>  (339) 
-26.4749

>  <r_i_glide_ecoul>  (339) 
-4.63042

>  <r_i_glide_erotb>  (339) 
0

>  <r_i_glide_esite>  (339) 
-0.0182878

>  <r_i_glide_emodel>  (339) 
-39.3073

>  <r_i_glide_energy>  (339) 
-31.1053

>  <r_i_glide_einternal>  (339) 
0.530649

>  <r_i_glide_intrahb_reward>  (339) 
-0

>  <i_i_glide_confnum>  (339) 
1

>  <i_i_glide_posenum>  (339) 
39

>  <r_i_glide_eff_state_penalty>  (339) 
0

>  <ligand_id>  (339) 
87

>  <original_smiles>  (339) 
CC1CC2C3CCC4C(CC=C5CC(O)CCC54C)C3(O)CCC2(C)C1C(=O)O

>  <smiles>  (339) 
[H]OC1([H])C([H])([H])C2=C([H])C([H])([H])C3([H])C([H])(C([H])([H])C([H])([H])C4([H])C5([H])C([H])([H])C([H])(C([H])([H])[H])C([H])(C(=O)[O-])C5(C([H])([H])[H])C([H])([H])C([H])([H])C34O[H])C2(C([H])([H])[H])C([H])([H])C1([H])[H]

$$$$
87:0:1
     RDKit          3D

 66 70  0  0  1  0  0  0  0  0999 V2000
    5.2431   -5.6354    0.6413 C   0  0  0  0  0  0  0  0  0  0  0  0
    5.7733   -4.3061    1.1974 C   0  0  2  0  0  0  0  0  0  0  0  0
    5.2192   -4.0061    2.6088 C   0  0  0  0  0  0  0  0  0  0  0  0
    4.9671   -2.5027    2.5796 C   0  0  2  0  0  0  0  0  0  0  0  0
    4.2253   -1.8189    3.7646 C   0  0  2  0  0  0  0  0  0  0  0  0
    2.8342   -2.3855    4.1166 C   0  0  0  0  0  0  0  0  0  0  0  0
    2.2234   -1.6931    5.3480 C   0  0  0  0  0  0  0  0  0  0  0  0
    2.0884   -0.1578    5.1998 C   0  0  1  0  0  0  0  0  0  0  0  0
    3.4385    0.4480    4.7234 C   0  0  2  0  0  0  0  0  0  0  0  0
    3.3748    1.9839    4.6207 C   0  0  0  0  0  0  0  0  0  0  0  0
    2.0922    2.4997    4.0181 C   0  0  0  0  0  0  0  0  0  0  0  0
    0.9311    1.8132    3.9780 C   0  0  0  0  0  0  0  0  0  0  0  0
   -0.3308    2.4792    3.4457 C   0  0  0  0  0  0  0  0  0  0  0  0
   -1.3842    2.5780    4.5579 C   0  0  1  0  0  0  0  0  0  0  0  0
   -2.5937    3.0824    4.0277 O   0  0  0  0  0  0  0  0  0  0  0  0
   -1.6389    1.2227    5.2426 C   0  0  0  0  0  0  0  0  0  0  0  0
   -0.3281    0.5315    5.6826 C   0  0  0  0  0  0  0  0  0  0  0  0
    0.7525    0.4076    4.5637 C   0  0  2  0  0  0  0  0  0  0  0  0
    0.1898   -0.5374    3.4792 C   0  0  0  0  0  0  0  0  0  0  0  0
    4.1870   -0.2794    3.5544 C   0  0  1  0  0  0  0  0  0  0  0  0
    5.5364    0.1441    3.6771 O   0  0  0  0  0  0  0  0  0  0  0  0
    3.7437    0.1019    2.1113 C   0  0  0  0  0  0  0  0  0  0  0  0
    4.5259   -0.6445    0.9884 C   0  0  0  0  0  0  0  0  0  0  0  0
    4.4689   -2.1899    1.1549 C   0  0  2  0  0  0  0  0  0  0  0  0
    3.0274   -2.6740    0.8411 C   0  0  0  0  0  0  0  0  0  0  0  0
    5.4097   -3.0908    0.2875 C   0  0  1  0  0  0  0  0  0  0  0  0
    6.6462   -2.3730   -0.2912 C   0  0  0  0  0  0  0  0  0  0  0  0
    6.5205   -1.8650   -1.4256 O   0  0  0  0  0  0  0  0  0  0  0  0
    7.6988   -2.3279    0.3812 O   0  0  0  0  0  0  0  0  0  0  0  0
    4.1612   -5.6000    0.5122 H   0  0  0  0  0  0  0  0  0  0  0  0
    5.4762   -6.4721    1.3015 H   0  0  0  0  0  0  0  0  0  0  0  0
    5.6815   -5.8433   -0.3327 H   0  0  0  0  0  0  0  0  0  0  0  0
    6.8549   -4.3996    1.2856 H   0  0  0  0  0  0  0  0  0  0  0  0
    4.2914   -4.5496    2.7884 H   0  0  0  0  0  0  0  0  0  0  0  0
    5.9156   -4.2847    3.4017 H   0  0  0  0  0  0  0  0  0  0  0  0
    5.9776   -2.0952    2.6237 H   0  0  0  0  0  0  0  0  0  0  0  0
    4.8287   -2.0093    4.6552 H   0  0  0  0  0  0  0  0  0  0  0  0
    2.1497   -2.2856    3.2874 H   0  0  0  0  0  0  0  0  0  0  0  0
    2.9097   -3.4544    4.3182 H   0  0  0  0  0  0  0  0  0  0  0  0
    1.2636   -2.1448    5.5997 H   0  0  0  0  0  0  0  0  0  0  0  0
    2.8795   -1.8987    6.1951 H   0  0  0  0  0  0  0  0  0  0  0  0
    2.0357    0.1906    6.2316 H   0  0  0  0  0  0  0  0  0  0  0  0
    4.0988    0.2741    5.5750 H   0  0  0  0  0  0  0  0  0  0  0  0
    3.4470    2.4224    5.6187 H   0  0  0  0  0  0  0  0  0  0  0  0
    4.2158    2.3838    4.0591 H   0  0  0  0  0  0  0  0  0  0  0  0
    2.1302    3.5123    3.6481 H   0  0  0  0  0  0  0  0  0  0  0  0
   -0.0984    3.4749    3.0679 H   0  0  0  0  0  0  0  0  0  0  0  0
   -0.7071    1.9196    2.5878 H   0  0  0  0  0  0  0  0  0  0  0  0
   -1.0289    3.2891    5.3062 H   0  0  0  0  0  0  0  0  0  0  0  0
   -2.8931    2.4955    3.3471 H   0  0  0  0  0  0  0  0  0  0  0  0
   -2.2711    1.3860    6.1181 H   0  0  0  0  0  0  0  0  0  0  0  0
   -2.2051    0.5651    4.5847 H   0  0  0  0  0  0  0  0  0  0  0  0
    0.0796    1.1176    6.5074 H   0  0  0  0  0  0  0  0  0  0  0  0
   -0.5541   -0.4512    6.0945 H   0  0  0  0  0  0  0  0  0  0  0  0
    0.0027   -1.5439    3.8579 H   0  0  0  0  0  0  0  0  0  0  0  0
    0.8174   -0.6147    2.5987 H   0  0  0  0  0  0  0  0  0  0  0  0
   -0.7732   -0.1932    3.1094 H   0  0  0  0  0  0  0  0  0  0  0  0
    6.0406   -0.2817    3.0010 H   0  0  0  0  0  0  0  0  0  0  0  0
    2.6863   -0.0879    1.9973 H   0  0  0  0  0  0  0  0  0  0  0  0
    3.8167    1.1795    1.9576 H   0  0  0  0  0  0  0  0  0  0  0  0
    4.1265   -0.3558    0.0167 H   0  0  0  0  0  0  0  0  0  0  0  0
    5.5542   -0.2817    1.0032 H   0  0  0  0  0  0  0  0  0  0  0  0
    2.8684   -2.7313   -0.2391 H   0  0  0  0  0  0  0  0  0  0  0  0
    2.2466   -2.0067    1.1982 H   0  0  0  0  0  0  0  0  0  0  0  0
    2.8398   -3.6701    1.2465 H   0  0  0  0  0  0  0  0  0  0  0  0
    4.8776   -3.4598   -0.5878 H   0  0  0  0  0  0  0  0  0  0  0  0
  1  2  1  0
  1 30  1  0
  1 31  1  0
  1 32  1  0
  2 26  1  0
  2  3  1  0
  2 33  1  1
  3  4  1  0
  3 34  1  0
  3 35  1  0
  4 24  1  0
  4  5  1  0
  4 36  1  6
  5 20  1  0
  5  6  1  0
  5 37  1  1
  6  7  1  0
  6 38  1  0
  6 39  1  0
  7  8  1  0
  7 40  1  0
  7 41  1  0
  8 18  1  0
  8  9  1  0
  8 42  1  1
  9 10  1  0
  9 20  1  0
  9 43  1  1
 10 11  1  0
 10 44  1  0
 10 45  1  0
 11 12  2  0
 11 46  1  0
 12 18  1  0
 12 13  1  0
 13 14  1  0
 13 47  1  0
 13 48  1  0
 14 15  1  0
 14 16  1  0
 14 49  1  1
 15 50  1  0
 16 17  1  0
 16 51  1  0
 16 52  1  0
 17 18  1  0
 17 53  1  0
 17 54  1  0
 18 19  1  6
 19 55  1  0
 19 56  1  0
 19 57  1  0
 20 21  1  6
 20 22  1  0
 21 58  1  0
 22 23  1  0
 22 59  1  0
 22 60  1  0
 23 24  1  0
 23 61  1  0
 23 62  1  0
 24 25  1  1
 24 26  1  0
 25 63  1  0
 25 64  1  0
 25 65  1  0
 26 27  1  0
 26 66  1  6
 27 28  2  0
 27 29  1  0
M  CHG  1  29  -1
M  END
>  <i_m_ct_stereo_status>  (340) 
1

>  <s_m_source_file>  (340) 
/var/tmp/pbs.5076255.sched01/tmpsabrbf27/138opeauupd.sdf

>  <i_m_source_file_index>  (340) 
2

>  <i_lp_mmshare_version>  (340) 
48012

>  <i_f3d_flags>  (340) 
0

>  <s_epik_input>  (340) 
W0NIM11bQ0BIXShbQ0gyXTEpW0NASF0oQyg9TylbT0hdKVtDQF0oW0NIM10pKFtDSDJdW0NIMl0yKVtDQEhdMVtDQEhdKFtDSDJdW0NIMl0zKVtDQF0yKFtPSF0pW0NASF0oW0NASF0zW0NAXTQ1W0NIM10pW0NIMl1bQ0hdPUM0W0NIMl1bQ0BASF0oW09IXSlbQ0gyXVtDSDJdNQ==

>  <s_epik_cmdline>  (340) 
J2VwaWtfcHl0aG9uJywgJy1waHQnLCAnMi4wJywgJy1waCcsICc3LjAnLCAnLXRuJywgJzgnLCAnLW1hJywgJzIwMCcsICctaW1hZScsICc8aW5maWxlLm1hZT4nLCAnLW9tYWUnLCAnPG91dGZpbGUubWFlPic=

>  <r_epik_Ionization_Penalty>  (340) 
0.000874989

>  <r_epik_Ionization_Penalty_Charging>  (340) 
0.000866812

>  <r_epik_Ionization_Penalty_Neutral>  (340) 
8.17631e-06

>  <r_epik_State_Penalty>  (340) 
0.000559633

>  <r_epik_Charging_Adjusted_Penalty>  (340) 
0.00142645

>  <i_epik_Tot_Q>  (340) 
-1

>  <i_epik_Tot_abs_Q>  (340) 
1

>  <s_lp_Force_Field>  (340) 
OPLS3e

>  <r_lp_Energy>  (340) 
55.0207

>  <b_lp_Chiralities_Consistent>  (340) 
1

>  <s_lp_Variant>  (340) 
87:0-1

>  <s_i_glide_gridfile>  (340) 
pfpi4k_grid

>  <i_i_glide_lignum>  (340) 
2

>  <i_i_glide_rotatable_bonds>  (340) 
3

>  <r_i_docking_score>  (340) 
-3.43847

>  <r_i_glide_ligand_efficiency>  (340) 
-0.118568

>  <r_i_glide_ligand_efficiency_sa>  (340) 
-0.364279

>  <r_i_glide_ligand_efficiency_ln>  (340) 
-0.787323

>  <r_i_glide_gscore>  (340) 
-3.43847

>  <r_i_glide_lipo>  (340) 
-0.469824

>  <r_i_glide_hbond>  (340) 
-0.201471

>  <r_i_glide_metal>  (340) 
-0

>  <r_i_glide_rewards>  (340) 
-0.671189

>  <r_i_glide_evdw>  (340) 
-26.6344

>  <r_i_glide_ecoul>  (340) 
-4.99564

>  <r_i_glide_erotb>  (340) 
0

>  <r_i_glide_esite>  (340) 
-0.0149213

>  <r_i_glide_emodel>  (340) 
-39.8097

>  <r_i_glide_energy>  (340) 
-31.6301

>  <r_i_glide_einternal>  (340) 
0.444886

>  <r_i_glide_intrahb_reward>  (340) 
-0

>  <i_i_glide_confnum>  (340) 
2

>  <i_i_glide_posenum>  (340) 
18

>  <r_i_glide_eff_state_penalty>  (340) 
0

>  <ligand_id>  (340) 
87

>  <original_smiles>  (340) 
CC1CC2C3CCC4C(CC=C5CC(O)CCC54C)C3(O)CCC2(C)C1C(=O)O

>  <smiles>  (340) 
[H]OC1([H])C([H])([H])C2=C([H])C([H])([H])C3([H])C([H])(C([H])([H])C([H])([H])C4([H])C5([H])C([H])([H])C([H])(C([H])([H])[H])C([H])(C(=O)[O-])C5(C([H])([H])[H])C([H])([H])C([H])([H])C34O[H])C2(C([H])([H])[H])C([H])([H])C1([H])[H]

$$$$
87:0:2
     RDKit          3D

 66 70  0  0  1  0  0  0  0  0999 V2000
    5.2776   -5.6197    0.6243 C   0  0  0  0  0  0  0  0  0  0  0  0
    5.7993   -4.2905    1.1886 C   0  0  2  0  0  0  0  0  0  0  0  0
    5.2442   -3.9975    2.5990 C   0  0  0  0  0  0  0  0  0  0  0  0
    4.9803   -2.4958    2.5786 C   0  0  2  0  0  0  0  0  0  0  0  0
    4.2349   -1.8246    3.7673 C   0  0  2  0  0  0  0  0  0  0  0  0
    2.8465   -2.4033    4.1157 C   0  0  0  0  0  0  0  0  0  0  0  0
    2.2318   -1.7169    5.3512 C   0  0  0  0  0  0  0  0  0  0  0  0
    2.0882   -0.1824    5.2094 C   0  0  1  0  0  0  0  0  0  0  0  0
    3.4323    0.4330    4.7354 C   0  0  2  0  0  0  0  0  0  0  0  0
    3.3627    1.9681    4.6330 C   0  0  0  0  0  0  0  0  0  0  0  0
    2.0729    2.4772    4.0363 C   0  0  0  0  0  0  0  0  0  0  0  0
    0.9190    1.7894    3.9954 C   0  0  0  0  0  0  0  0  0  0  0  0
   -0.3492    2.4432    3.4663 C   0  0  0  0  0  0  0  0  0  0  0  0
   -1.4055    2.5315    4.5774 C   0  0  1  0  0  0  0  0  0  0  0  0
   -2.6210    3.0275    4.0504 O   0  0  0  0  0  0  0  0  0  0  0  0
   -1.6503    1.1732    5.2593 C   0  0  0  0  0  0  0  0  0  0  0  0
   -0.3339    0.4896    5.6954 C   0  0  0  0  0  0  0  0  0  0  0  0
    0.7475    0.3739    4.5764 C   0  0  2  0  0  0  0  0  0  0  0  0
    0.1904   -0.5707    3.4879 C   0  0  0  0  0  0  0  0  0  0  0  0
    4.1885   -0.2840    3.5631 C   0  0  1  0  0  0  0  0  0  0  0  0
    5.5309    0.1587    3.6788 O   0  0  0  0  0  0  0  0  0  0  0  0
    3.7379    0.1021    2.1224 C   0  0  0  0  0  0  0  0  0  0  0  0
    4.5236   -0.6374    0.9976 C   0  0  0  0  0  0  0  0  0  0  0  0
    4.4759   -2.1799    1.1590 C   0  0  2  0  0  0  0  0  0  0  0  0
    3.0368   -2.6766    0.8384 C   0  0  0  0  0  0  0  0  0  0  0  0
    5.4248   -3.0704    0.2805 C   0  0  1  0  0  0  0  0  0  0  0  0
    6.6466   -2.3474   -0.3110 C   0  0  0  0  0  0  0  0  0  0  0  0
    7.6951   -2.2698    0.3654 O   0  0  0  0  0  0  0  0  0  0  0  0
    6.5194   -1.8606   -1.4577 O   0  0  0  0  0  0  0  0  0  0  0  0
    4.1971   -5.5884    0.4976 H   0  0  0  0  0  0  0  0  0  0  0  0
    5.5147   -6.4570    1.2806 H   0  0  0  0  0  0  0  0  0  0  0  0
    5.7162   -5.8210   -0.3503 H   0  0  0  0  0  0  0  0  0  0  0  0
    6.8833   -4.3708    1.2702 H   0  0  0  0  0  0  0  0  0  0  0  0
    4.3217   -4.5504    2.7766 H   0  0  0  0  0  0  0  0  0  0  0  0
    5.9426   -4.2779    3.3903 H   0  0  0  0  0  0  0  0  0  0  0  0
    5.9826   -2.0723    2.6218 H   0  0  0  0  0  0  0  0  0  0  0  0
    4.8374   -2.0224    4.6541 H   0  0  0  0  0  0  0  0  0  0  0  0
    2.1611   -2.3060    3.2856 H   0  0  0  0  0  0  0  0  0  0  0  0
    2.9300   -3.4730    4.3126 H   0  0  0  0  0  0  0  0  0  0  0  0
    1.2771   -2.1783    5.6036 H   0  0  0  0  0  0  0  0  0  0  0  0
    2.8903   -1.9246    6.1988 H   0  0  0  0  0  0  0  0  0  0  0  0
    2.0310    0.1594    6.2425 H   0  0  0  0  0  0  0  0  0  0  0  0
    4.0844    0.2621    5.5941 H   0  0  0  0  0  0  0  0  0  0  0  0
    3.4365    2.4067    5.6290 H   0  0  0  0  0  0  0  0  0  0  0  0
    4.2023    2.3704    4.0703 H   0  0  0  0  0  0  0  0  0  0  0  0
    2.1029    3.4967    3.6753 H   0  0  0  0  0  0  0  0  0  0  0  0
   -0.1247    3.4439    3.0935 H   0  0  0  0  0  0  0  0  0  0  0  0
   -0.7224    1.8867    2.6082 H   0  0  0  0  0  0  0  0  0  0  0  0
   -1.0578    3.2418    5.3292 H   0  0  0  0  0  0  0  0  0  0  0  0
   -2.9210    2.4356    3.3746 H   0  0  0  0  0  0  0  0  0  0  0  0
   -2.2808    1.3282    6.1353 H   0  0  0  0  0  0  0  0  0  0  0  0
   -2.2131    0.5139    4.5984 H   0  0  0  0  0  0  0  0  0  0  0  0
    0.0678    1.0740    6.5238 H   0  0  0  0  0  0  0  0  0  0  0  0
   -0.5543   -0.4975    6.1033 H   0  0  0  0  0  0  0  0  0  0  0  0
    0.0101   -1.5789    3.8630 H   0  0  0  0  0  0  0  0  0  0  0  0
    0.8184   -0.6389    2.6066 H   0  0  0  0  0  0  0  0  0  0  0  0
   -0.7750   -0.2312    3.1203 H   0  0  0  0  0  0  0  0  0  0  0  0
    5.8578   -0.0914    4.5259 H   0  0  0  0  0  0  0  0  0  0  0  0
    2.6816   -0.0883    2.0047 H   0  0  0  0  0  0  0  0  0  0  0  0
    3.8163    1.1787    1.9724 H   0  0  0  0  0  0  0  0  0  0  0  0
    4.1277   -0.3448    0.0256 H   0  0  0  0  0  0  0  0  0  0  0  0
    5.5518   -0.2720    1.0233 H   0  0  0  0  0  0  0  0  0  0  0  0
    2.8801   -2.7287   -0.2413 H   0  0  0  0  0  0  0  0  0  0  0  0
    2.2531   -2.0158    1.1989 H   0  0  0  0  0  0  0  0  0  0  0  0
    2.8556   -3.6740    1.2407 H   0  0  0  0  0  0  0  0  0  0  0  0
    4.8863   -3.4465   -0.5913 H   0  0  0  0  0  0  0  0  0  0  0  0
  1  2  1  0
  1 30  1  0
  1 31  1  0
  1 32  1  0
  2 26  1  0
  2  3  1  0
  2 33  1  1
  3  4  1  0
  3 34  1  0
  3 35  1  0
  4 24  1  0
  4  5  1  0
  4 36  1  6
  5 20  1  0
  5  6  1  0
  5 37  1  1
  6  7  1  0
  6 38  1  0
  6 39  1  0
  7  8  1  0
  7 40  1  0
  7 41  1  0
  8 18  1  0
  8  9  1  0
  8 42  1  1
  9 10  1  0
  9 20  1  0
  9 43  1  1
 10 11  1  0
 10 44  1  0
 10 45  1  0
 11 12  2  0
 11 46  1  0
 12 18  1  0
 12 13  1  0
 13 14  1  0
 13 47  1  0
 13 48  1  0
 14 15  1  0
 14 16  1  0
 14 49  1  1
 15 50  1  0
 16 17  1  0
 16 51  1  0
 16 52  1  0
 17 18  1  0
 17 53  1  0
 17 54  1  0
 18 19  1  6
 19 55  1  0
 19 56  1  0
 19 57  1  0
 20 21  1  6
 20 22  1  0
 21 58  1  0
 22 23  1  0
 22 59  1  0
 22 60  1  0
 23 24  1  0
 23 61  1  0
 23 62  1  0
 24 25  1  1
 24 26  1  0
 25 63  1  0
 25 64  1  0
 25 65  1  0
 26 27  1  0
 26 66  1  6
 27 28  2  0
 27 29  1  0
M  CHG  1  29  -1
M  END
>  <i_m_ct_stereo_status>  (341) 
1

>  <s_m_source_file>  (341) 
/var/tmp/pbs.5076255.sched01/tmpsabrbf27/138opeauupd.sdf

>  <i_m_source_file_index>  (341) 
2

>  <i_lp_mmshare_version>  (341) 
48012

>  <i_f3d_flags>  (341) 
0

>  <s_epik_input>  (341) 
W0NIM11bQ0BIXShbQ0gyXTEpW0NASF0oQyg9TylbT0hdKVtDQF0oW0NIM10pKFtDSDJdW0NIMl0yKVtDQEhdMVtDQEhdKFtDSDJdW0NIMl0zKVtDQF0yKFtPSF0pW0NASF0oW0NASF0zW0NAXTQ1W0NIM10pW0NIMl1bQ0hdPUM0W0NIMl1bQ0BASF0oW09IXSlbQ0gyXVtDSDJdNQ==

>  <s_epik_cmdline>  (341) 
J2VwaWtfcHl0aG9uJywgJy1waHQnLCAnMi4wJywgJy1waCcsICc3LjAnLCAnLXRuJywgJzgnLCAnLW1hJywgJzIwMCcsICctaW1hZScsICc8aW5maWxlLm1hZT4nLCAnLW9tYWUnLCAnPG91dGZpbGUubWFlPic=

>  <r_epik_Ionization_Penalty>  (341) 
0.000874989

>  <r_epik_Ionization_Penalty_Charging>  (341) 
0.000866812

>  <r_epik_Ionization_Penalty_Neutral>  (341) 
8.17631e-06

>  <r_epik_State_Penalty>  (341) 
0.000559633

>  <r_epik_Charging_Adjusted_Penalty>  (341) 
0.00142645

>  <i_epik_Tot_Q>  (341) 
-1

>  <i_epik_Tot_abs_Q>  (341) 
1

>  <s_lp_Force_Field>  (341) 
OPLS3e

>  <r_lp_Energy>  (341) 
55.0207

>  <b_lp_Chiralities_Consistent>  (341) 
1

>  <s_lp_Variant>  (341) 
87:0-1

>  <s_i_glide_gridfile>  (341) 
pfpi4k_grid

>  <i_i_glide_lignum>  (341) 
2

>  <i_i_glide_rotatable_bonds>  (341) 
3

>  <r_i_docking_score>  (341) 
-3.3813

>  <r_i_glide_ligand_efficiency>  (341) 
-0.116597

>  <r_i_glide_ligand_efficiency_sa>  (341) 
-0.358222

>  <r_i_glide_ligand_efficiency_ln>  (341) 
-0.774232

>  <r_i_glide_gscore>  (341) 
-3.3813

>  <r_i_glide_lipo>  (341) 
-0.474125

>  <r_i_glide_hbond>  (341) 
-0.203562

>  <r_i_glide_metal>  (341) 
-0

>  <r_i_glide_rewards>  (341) 
-0.671189

>  <r_i_glide_evdw>  (341) 
-26.4928

>  <r_i_glide_ecoul>  (341) 
-4.60044

>  <r_i_glide_erotb>  (341) 
0

>  <r_i_glide_esite>  (341) 
-0.017722

>  <r_i_glide_emodel>  (341) 
-39.099

>  <r_i_glide_energy>  (341) 
-31.0932

>  <r_i_glide_einternal>  (341) 
0.475874

>  <r_i_glide_intrahb_reward>  (341) 
-0

>  <i_i_glide_confnum>  (341) 
1

>  <i_i_glide_posenum>  (341) 
16

>  <r_i_glide_eff_state_penalty>  (341) 
0

>  <ligand_id>  (341) 
87

>  <original_smiles>  (341) 
CC1CC2C3CCC4C(CC=C5CC(O)CCC54C)C3(O)CCC2(C)C1C(=O)O

>  <smiles>  (341) 
[H]OC1([H])C([H])([H])C2=C([H])C([H])([H])C3([H])C([H])(C([H])([H])C([H])([H])C4([H])C5([H])C([H])([H])C([H])(C([H])([H])[H])C([H])(C(=O)[O-])C5(C([H])([H])[H])C([H])([H])C([H])([H])C34O[H])C2(C([H])([H])[H])C([H])([H])C1([H])[H]

$$$$
88:0:0
     RDKit          3D

 32 34  0  0  1  0  0  0  0  0999 V2000
    0.6394   -8.0929    2.7600 N   0  0  0  0  0  0  0  0  0  0  0  0
    1.6721   -7.2466    2.6752 C   0  0  0  0  0  0  0  0  0  0  0  0
    2.5905   -7.2119    3.6642 N   0  0  0  0  0  0  0  0  0  0  0  0
    3.6156   -6.3596    3.5762 C   0  0  0  0  0  0  0  0  0  0  0  0
    3.8901   -5.4759    2.6013 N   0  0  0  0  0  0  0  0  0  0  0  0
    2.9583   -5.5177    1.6070 C   0  0  0  0  0  0  0  0  0  0  0  0
    1.8320   -6.3770    1.5719 C   0  0  0  0  0  0  0  0  0  0  0  0
    1.1022   -6.1716    0.4227 N   0  0  0  0  0  0  0  0  0  0  0  0
    1.8058   -5.2784   -0.2203 C   0  0  0  0  0  0  0  0  0  0  0  0
    2.8924   -4.7617    0.4532 N   0  0  0  0  0  0  0  0  0  0  0  0
    3.8746   -3.7452   -0.0227 C   0  0  2  0  0  0  0  0  0  0  0  0
    4.1803   -2.8641    1.0185 O   0  0  0  0  0  0  0  0  0  0  0  0
    4.0689   -1.5036    0.5901 C   0  0  1  0  0  0  0  0  0  0  0  0
    5.2487   -0.6674    1.1180 C   0  0  0  0  0  0  0  0  0  0  0  0
    5.0293   -0.2648    2.4529 O   0  0  0  0  0  0  0  0  0  0  0  0
    3.9972   -1.5756   -0.9430 C   0  0  1  0  0  0  0  0  0  0  0  0
    5.3016   -1.6177   -1.5075 O   0  0  0  0  0  0  0  0  0  0  0  0
    3.2757   -2.8932   -1.1418 C   0  0  1  0  0  0  0  0  0  0  0  0
    3.4871   -3.4371   -2.4320 O   0  0  0  0  0  0  0  0  0  0  0  0
    0.5897   -8.7382    3.5331 H   0  0  0  0  0  0  0  0  0  0  0  0
    0.0104   -8.1655    1.9737 H   0  0  0  0  0  0  0  0  0  0  0  0
    4.3165   -6.3823    4.3980 H   0  0  0  0  0  0  0  0  0  0  0  0
    1.4583   -4.9278   -1.1840 H   0  0  0  0  0  0  0  0  0  0  0  0
    4.7640   -4.3104   -0.3015 H   0  0  0  0  0  0  0  0  0  0  0  0
    3.1165   -1.1148    0.9614 H   0  0  0  0  0  0  0  0  0  0  0  0
    6.1887   -1.2158    1.0335 H   0  0  0  0  0  0  0  0  0  0  0  0
    5.3500    0.2364    0.5170 H   0  0  0  0  0  0  0  0  0  0  0  0
    4.2283    0.2400    2.4827 H   0  0  0  0  0  0  0  0  0  0  0  0
    3.4356   -0.7373   -1.3648 H   0  0  0  0  0  0  0  0  0  0  0  0
    5.6792   -2.4508   -1.2691 H   0  0  0  0  0  0  0  0  0  0  0  0
    2.2205   -2.7037   -0.9361 H   0  0  0  0  0  0  0  0  0  0  0  0
    3.1962   -4.3468   -2.4508 H   0  0  0  0  0  0  0  0  0  0  0  0
  1  2  1  0
  1 21  1  0
  1 20  1  0
  2  3  2  0
  2  7  1  0
  3  4  1  0
  4 22  1  0
  4  5  2  0
  5  6  1  0
  6 10  1  0
  6  7  2  0
  7  8  1  0
  8  9  2  0
  9 23  1  0
  9 10  1  0
 10 11  1  0
 11 18  1  0
 11 12  1  0
 11 24  1  6
 12 13  1  0
 13 14  1  0
 13 16  1  0
 13 25  1  1
 14 15  1  0
 14 26  1  0
 14 27  1  0
 15 28  1  0
 16 17  1  0
 16 18  1  0
 16 29  1  6
 17 30  1  0
 18 19  1  0
 18 31  1  1
 19 32  1  0
M  END
>  <i_m_ct_stereo_status>  (342) 
1

>  <s_m_source_file>  (342) 
/var/tmp/pbs.5076255.sched01/tmpsabrbf27/138opeauupd.sdf

>  <i_m_source_file_index>  (342) 
3

>  <i_lp_mmshare_version>  (342) 
48012

>  <i_f3d_flags>  (342) 
0

>  <s_epik_input>  (342) 
bjFbY0hdW25IXVxjKD1OXFtIXSljKGMxMiluW2NIXW4yW0NAQEhdM09bQ0BASF0oW0NIMl1bT0hdKVtDQEBIXShbT0hdKVtDQEhdM1tPSF0=

>  <s_epik_cmdline>  (342) 
J2VwaWtfcHl0aG9uJywgJy1waHQnLCAnMi4wJywgJy1waCcsICc3LjAnLCAnLXRuJywgJzgnLCAnLW1hJywgJzIwMCcsICctaW1hZScsICc8aW5maWxlLm1hZT4nLCAnLW9tYWUnLCAnPG91dGZpbGUubWFlPic=

>  <r_lp_tautomer_probability>  (342) 
1

>  <r_epik_Ionization_Penalty>  (342) 
0.000428445

>  <r_epik_Ionization_Penalty_Charging>  (342) 
0

>  <r_epik_Ionization_Penalty_Neutral>  (342) 
0.000428445

>  <r_epik_State_Penalty>  (342) 
-0

>  <r_epik_Charging_Adjusted_Penalty>  (342) 
0

>  <i_epik_Tot_Q>  (342) 
0

>  <i_epik_Tot_abs_Q>  (342) 
0

>  <s_epik_Chemistry_Notes>  (342) 
This compound contains an acetal/aminal-like group ( X-CH(R)-Y where X, Y are N, S, or O) that may be acid/base labile, releasing an aldehyde.

>  <s_lp_Force_Field>  (342) 
OPLS3e

>  <r_lp_Energy>  (342) 
18.2998

>  <b_lp_Chiralities_Consistent>  (342) 
1

>  <s_lp_Variant>  (342) 
88:0-1

>  <s_i_glide_gridfile>  (342) 
pfpi4k_grid

>  <i_i_glide_lignum>  (342) 
3

>  <i_i_glide_rotatable_bonds>  (342) 
5

>  <r_i_docking_score>  (342) 
-4.16285

>  <r_i_glide_ligand_efficiency>  (342) 
-0.219098

>  <r_i_glide_ligand_efficiency_sa>  (342) 
-0.58464

>  <r_i_glide_ligand_efficiency_ln>  (342) 
-1.05537

>  <r_i_glide_gscore>  (342) 
-4.16285

>  <r_i_glide_lipo>  (342) 
-0.142185

>  <r_i_glide_hbond>  (342) 
-0.203774

>  <r_i_glide_metal>  (342) 
-0

>  <r_i_glide_rewards>  (342) 
-1.58796

>  <r_i_glide_evdw>  (342) 
-15.8814

>  <r_i_glide_ecoul>  (342) 
-11.8119

>  <r_i_glide_erotb>  (342) 
0.499276

>  <r_i_glide_esite>  (342) 
-0.162363

>  <r_i_glide_emodel>  (342) 
-36.1462

>  <r_i_glide_energy>  (342) 
-27.6932

>  <r_i_glide_einternal>  (342) 
2.08758

>  <r_i_glide_intrahb_reward>  (342) 
-0

>  <i_i_glide_confnum>  (342) 
3

>  <i_i_glide_posenum>  (342) 
38

>  <r_i_glide_eff_state_penalty>  (342) 
0

>  <ligand_id>  (342) 
88

>  <original_smiles>  (342) 
N=c1[nH]cnc2c1ncn2C1OC(CO)C(O)C1O

>  <smiles>  (342) 
[H]OC([H])([H])C1([H])OC([H])(n2c([H])nc3c(N([H])[H])nc([H])nc32)C([H])(O[H])C1([H])O[H]

$$$$
88:0:1
     RDKit          3D

 32 34  0  0  1  0  0  0  0  0999 V2000
    7.8101   -6.5850    1.2906 N   0  0  0  0  0  0  0  0  0  0  0  0
    6.5100   -6.8206    1.4946 C   0  0  0  0  0  0  0  0  0  0  0  0
    5.6538   -5.7788    1.4356 N   0  0  0  0  0  0  0  0  0  0  0  0
    4.3475   -6.0024    1.6349 C   0  0  0  0  0  0  0  0  0  0  0  0
    3.7300   -7.1555    1.8953 N   0  0  0  0  0  0  0  0  0  0  0  0
    4.5955   -8.2075    1.9374 C   0  0  0  0  0  0  0  0  0  0  0  0
    6.0021   -8.1153    1.7463 C   0  0  0  0  0  0  0  0  0  0  0  0
    6.5789   -9.3778    1.8503 N   0  0  0  0  0  0  0  0  0  0  0  0
    5.5628  -10.1662    2.0733 C   0  0  0  0  0  0  0  0  0  0  0  0
    4.3350   -9.5425    2.1575 N   0  0  0  0  0  0  0  0  0  0  0  0
    3.0246  -10.2226    2.3846 C   0  0  2  0  0  0  0  0  0  0  0  0
    1.9655   -9.3634    2.0825 O   0  0  0  0  0  0  0  0  0  0  0  0
    1.0278   -9.3372    3.1584 C   0  0  1  0  0  0  0  0  0  0  0  0
   -0.4115   -9.2613    2.6089 C   0  0  0  0  0  0  0  0  0  0  0  0
   -1.3320   -8.9938    3.6519 O   0  0  0  0  0  0  0  0  0  0  0  0
    1.3771  -10.5653    4.0198 C   0  0  1  0  0  0  0  0  0  0  0  0
    0.7671  -11.7323    3.4776 O   0  0  0  0  0  0  0  0  0  0  0  0
    2.8860  -10.6384    3.8552 C   0  0  1  0  0  0  0  0  0  0  0  0
    3.3515  -11.9488    4.1010 O   0  0  0  0  0  0  0  0  0  0  0  0
    8.1116   -5.6386    1.1258 H   0  0  0  0  0  0  0  0  0  0  0  0
    8.4656   -7.3594    1.3401 H   0  0  0  0  0  0  0  0  0  0  0  0
    3.6985   -5.1366    1.5636 H   0  0  0  0  0  0  0  0  0  0  0  0
    5.6674  -11.2405    2.1875 H   0  0  0  0  0  0  0  0  0  0  0  0
    3.0181  -11.0490    1.6937 H   0  0  0  0  0  0  0  0  0  0  0  0
    1.2604   -8.4345    3.7265 H   0  0  0  0  0  0  0  0  0  0  0  0
   -0.4772   -8.4563    1.8752 H   0  0  0  0  0  0  0  0  0  0  0  0
   -0.6947  -10.1658    2.0676 H   0  0  0  0  0  0  0  0  0  0  0  0
   -1.4452   -9.7832    4.1827 H   0  0  0  0  0  0  0  0  0  0  0  0
    1.0840  -10.4444    5.0663 H   0  0  0  0  0  0  0  0  0  0  0  0
    1.0924  -12.4976    3.9288 H   0  0  0  0  0  0  0  0  0  0  0  0
    3.3871   -9.9015    4.4876 H   0  0  0  0  0  0  0  0  0  0  0  0
    2.9246  -12.5505    3.5054 H   0  0  0  0  0  0  0  0  0  0  0  0
  1  2  1  0
  1 21  1  0
  1 20  1  0
  2  3  2  0
  2  7  1  0
  3  4  1  0
  4 22  1  0
  4  5  2  0
  5  6  1  0
  6 10  1  0
  6  7  2  0
  7  8  1  0
  8  9  2  0
  9 23  1  0
  9 10  1  0
 10 11  1  0
 11 18  1  0
 11 12  1  0
 11 24  1  6
 12 13  1  0
 13 14  1  0
 13 16  1  0
 13 25  1  1
 14 15  1  0
 14 26  1  0
 14 27  1  0
 15 28  1  0
 16 17  1  0
 16 18  1  0
 16 29  1  1
 17 30  1  0
 18 19  1  0
 18 31  1  1
 19 32  1  0
M  END
>  <i_m_ct_stereo_status>  (343) 
1

>  <s_m_source_file>  (343) 
/var/tmp/pbs.5076255.sched01/tmpsabrbf27/138opeauupd.sdf

>  <i_m_source_file_index>  (343) 
3

>  <i_lp_mmshare_version>  (343) 
48012

>  <i_f3d_flags>  (343) 
0

>  <s_epik_input>  (343) 
bjFbY0hdW25IXVxjKD1OXFtIXSljKGMxMiluW2NIXW4yW0NAQEhdM09bQ0BASF0oW0NIMl1bT0hdKVtDQEBIXShbT0hdKVtDQEhdM1tPSF0=

>  <s_epik_cmdline>  (343) 
J2VwaWtfcHl0aG9uJywgJy1waHQnLCAnMi4wJywgJy1waCcsICc3LjAnLCAnLXRuJywgJzgnLCAnLW1hJywgJzIwMCcsICctaW1hZScsICc8aW5maWxlLm1hZT4nLCAnLW9tYWUnLCAnPG91dGZpbGUubWFlPic=

>  <r_lp_tautomer_probability>  (343) 
1

>  <r_epik_Ionization_Penalty>  (343) 
0.000428445

>  <r_epik_Ionization_Penalty_Charging>  (343) 
0

>  <r_epik_Ionization_Penalty_Neutral>  (343) 
0.000428445

>  <r_epik_State_Penalty>  (343) 
-0

>  <r_epik_Charging_Adjusted_Penalty>  (343) 
0

>  <i_epik_Tot_Q>  (343) 
0

>  <i_epik_Tot_abs_Q>  (343) 
0

>  <s_epik_Chemistry_Notes>  (343) 
This compound contains an acetal/aminal-like group ( X-CH(R)-Y where X, Y are N, S, or O) that may be acid/base labile, releasing an aldehyde.

>  <s_lp_Force_Field>  (343) 
OPLS3e

>  <r_lp_Energy>  (343) 
18.2998

>  <b_lp_Chiralities_Consistent>  (343) 
1

>  <s_lp_Variant>  (343) 
88:0-1

>  <s_i_glide_gridfile>  (343) 
pfpi4k_grid

>  <i_i_glide_lignum>  (343) 
3

>  <i_i_glide_rotatable_bonds>  (343) 
5

>  <r_i_docking_score>  (343) 
-3.92563

>  <r_i_glide_ligand_efficiency>  (343) 
-0.206612

>  <r_i_glide_ligand_efficiency_sa>  (343) 
-0.551324

>  <r_i_glide_ligand_efficiency_ln>  (343) 
-0.995232

>  <r_i_glide_gscore>  (343) 
-3.92563

>  <r_i_glide_lipo>  (343) 
-0.195757

>  <r_i_glide_hbond>  (343) 
-0.00373387

>  <r_i_glide_metal>  (343) 
-0

>  <r_i_glide_rewards>  (343) 
-1.64771

>  <r_i_glide_evdw>  (343) 
-19.888

>  <r_i_glide_ecoul>  (343) 
-9.27148

>  <r_i_glide_erotb>  (343) 
0.499276

>  <r_i_glide_esite>  (343) 
-0.192582

>  <r_i_glide_emodel>  (343) 
-37.2661

>  <r_i_glide_energy>  (343) 
-29.1595

>  <r_i_glide_einternal>  (343) 
2.49117

>  <r_i_glide_intrahb_reward>  (343) 
-0

>  <i_i_glide_confnum>  (343) 
6

>  <i_i_glide_posenum>  (343) 
2

>  <r_i_glide_eff_state_penalty>  (343) 
0

>  <ligand_id>  (343) 
88

>  <original_smiles>  (343) 
N=c1[nH]cnc2c1ncn2C1OC(CO)C(O)C1O

>  <smiles>  (343) 
[H]OC([H])([H])C1([H])OC([H])(n2c([H])nc3c(N([H])[H])nc([H])nc32)C([H])(O[H])C1([H])O[H]

$$$$
88:0:2
     RDKit          3D

 32 34  0  0  1  0  0  0  0  0999 V2000
    7.8095   -7.0506    1.3335 N   0  0  0  0  0  0  0  0  0  0  0  0
    6.5208   -7.2123    1.6533 C   0  0  0  0  0  0  0  0  0  0  0  0
    5.7059   -6.1380    1.6038 N   0  0  0  0  0  0  0  0  0  0  0  0
    4.4123   -6.2851    1.9207 C   0  0  0  0  0  0  0  0  0  0  0  0
    3.7636   -7.3930    2.2893 N   0  0  0  0  0  0  0  0  0  0  0  0
    4.5834   -8.4842    2.3072 C   0  0  0  0  0  0  0  0  0  0  0  0
    5.9762   -8.4676    2.0085 C   0  0  0  0  0  0  0  0  0  0  0  0
    6.5023   -9.7504    2.1380 N   0  0  0  0  0  0  0  0  0  0  0  0
    5.4689  -10.4816    2.4674 C   0  0  0  0  0  0  0  0  0  0  0  0
    4.2760   -9.7988    2.5917 N   0  0  0  0  0  0  0  0  0  0  0  0
    2.9552  -10.3823    2.9698 C   0  0  2  0  0  0  0  0  0  0  0  0
    1.9341   -9.6513    2.3625 O   0  0  0  0  0  0  0  0  0  0  0  0
    0.9387   -9.2949    3.3276 C   0  0  1  0  0  0  0  0  0  0  0  0
   -0.4667   -9.4172    2.7104 C   0  0  0  0  0  0  0  0  0  0  0  0
   -1.4595   -9.0239    3.6460 O   0  0  0  0  0  0  0  0  0  0  0  0
    1.2348  -10.1801    4.5523 C   0  0  1  0  0  0  0  0  0  0  0  0
    0.6101  -11.4484    4.4318 O   0  0  0  0  0  0  0  0  0  0  0  0
    2.7497  -10.3019    4.4894 C   0  0  1  0  0  0  0  0  0  0  0  0
    3.2049  -11.4428    5.1981 O   0  0  0  0  0  0  0  0  0  0  0  0
    8.1409   -6.1344    1.0866 H   0  0  0  0  0  0  0  0  0  0  0  0
    8.4388   -7.8463    1.3731 H   0  0  0  0  0  0  0  0  0  0  0  0
    3.8045   -5.3913    1.8493 H   0  0  0  0  0  0  0  0  0  0  0  0
    5.5379  -11.5490    2.6334 H   0  0  0  0  0  0  0  0  0  0  0  0
    2.9496  -11.3916    2.5566 H   0  0  0  0  0  0  0  0  0  0  0  0
    1.1382   -8.2552    3.6001 H   0  0  0  0  0  0  0  0  0  0  0  0
   -0.5385   -8.7766    1.8316 H   0  0  0  0  0  0  0  0  0  0  0  0
   -0.6320  -10.4289    2.3477 H   0  0  0  0  0  0  0  0  0  0  0  0
   -1.6385   -9.7480    4.2496 H   0  0  0  0  0  0  0  0  0  0  0  0
    0.9015   -9.7196    5.4847 H   0  0  0  0  0  0  0  0  0  0  0  0
   -0.3297  -11.3555    4.5805 H   0  0  0  0  0  0  0  0  0  0  0  0
    3.2151   -9.3934    4.8756 H   0  0  0  0  0  0  0  0  0  0  0  0
    2.6025  -11.6367    5.9084 H   0  0  0  0  0  0  0  0  0  0  0  0
  1  2  1  0
  1 21  1  0
  1 20  1  0
  2  3  2  0
  2  7  1  0
  3  4  1  0
  4 22  1  0
  4  5  2  0
  5  6  1  0
  6 10  1  0
  6  7  2  0
  7  8  1  0
  8  9  2  0
  9 23  1  0
  9 10  1  0
 10 11  1  0
 11 18  1  0
 11 12  1  0
 11 24  1  6
 12 13  1  0
 13 14  1  0
 13 16  1  0
 13 25  1  1
 14 15  1  0
 14 26  1  0
 14 27  1  0
 15 28  1  0
 16 17  1  0
 16 18  1  0
 16 29  1  1
 17 30  1  0
 18 19  1  0
 18 31  1  1
 19 32  1  0
M  END
>  <i_m_ct_stereo_status>  (344) 
1

>  <s_m_source_file>  (344) 
/var/tmp/pbs.5076255.sched01/tmpsabrbf27/138opeauupd.sdf

>  <i_m_source_file_index>  (344) 
3

>  <i_lp_mmshare_version>  (344) 
48012

>  <i_f3d_flags>  (344) 
0

>  <s_epik_input>  (344) 
bjFbY0hdW25IXVxjKD1OXFtIXSljKGMxMiluW2NIXW4yW0NAQEhdM09bQ0BASF0oW0NIMl1bT0hdKVtDQEBIXShbT0hdKVtDQEhdM1tPSF0=

>  <s_epik_cmdline>  (344) 
J2VwaWtfcHl0aG9uJywgJy1waHQnLCAnMi4wJywgJy1waCcsICc3LjAnLCAnLXRuJywgJzgnLCAnLW1hJywgJzIwMCcsICctaW1hZScsICc8aW5maWxlLm1hZT4nLCAnLW9tYWUnLCAnPG91dGZpbGUubWFlPic=

>  <r_lp_tautomer_probability>  (344) 
1

>  <r_epik_Ionization_Penalty>  (344) 
0.000428445

>  <r_epik_Ionization_Penalty_Charging>  (344) 
0

>  <r_epik_Ionization_Penalty_Neutral>  (344) 
0.000428445

>  <r_epik_State_Penalty>  (344) 
-0

>  <r_epik_Charging_Adjusted_Penalty>  (344) 
0

>  <i_epik_Tot_Q>  (344) 
0

>  <i_epik_Tot_abs_Q>  (344) 
0

>  <s_epik_Chemistry_Notes>  (344) 
This compound contains an acetal/aminal-like group ( X-CH(R)-Y where X, Y are N, S, or O) that may be acid/base labile, releasing an aldehyde.

>  <s_lp_Force_Field>  (344) 
OPLS3e

>  <r_lp_Energy>  (344) 
18.2998

>  <b_lp_Chiralities_Consistent>  (344) 
1

>  <s_lp_Variant>  (344) 
88:0-1

>  <s_i_glide_gridfile>  (344) 
pfpi4k_grid

>  <i_i_glide_lignum>  (344) 
3

>  <i_i_glide_rotatable_bonds>  (344) 
5

>  <r_i_docking_score>  (344) 
-3.84522

>  <r_i_glide_ligand_efficiency>  (344) 
-0.20238

>  <r_i_glide_ligand_efficiency_sa>  (344) 
-0.540032

>  <r_i_glide_ligand_efficiency_ln>  (344) 
-0.974847

>  <r_i_glide_gscore>  (344) 
-3.84522

>  <r_i_glide_lipo>  (344) 
-0.140289

>  <r_i_glide_hbond>  (344) 
-0.010129

>  <r_i_glide_metal>  (344) 
-0

>  <r_i_glide_rewards>  (344) 
-1.62957

>  <r_i_glide_evdw>  (344) 
-19.7499

>  <r_i_glide_ecoul>  (344) 
-9.29844

>  <r_i_glide_erotb>  (344) 
0.499276

>  <r_i_glide_esite>  (344) 
-0.182252

>  <r_i_glide_emodel>  (344) 
-36.7757

>  <r_i_glide_energy>  (344) 
-29.0483

>  <r_i_glide_einternal>  (344) 
2.51135

>  <r_i_glide_intrahb_reward>  (344) 
-0

>  <i_i_glide_confnum>  (344) 
6

>  <i_i_glide_posenum>  (344) 
18

>  <r_i_glide_eff_state_penalty>  (344) 
0

>  <ligand_id>  (344) 
88

>  <original_smiles>  (344) 
N=c1[nH]cnc2c1ncn2C1OC(CO)C(O)C1O

>  <smiles>  (344) 
[H]OC([H])([H])C1([H])OC([H])(n2c([H])nc3c(N([H])[H])nc([H])nc32)C([H])(O[H])C1([H])O[H]

$$$$
90:0:0
     RDKit          3D

 32 34  0  0  1  0  0  0  0  0999 V2000
    2.5097   -2.7824   -3.0096 C   0  0  0  0  0  0  0  0  0  0  0  0
    3.0373   -1.8555   -1.9685 N   0  0  2  0  0  0  0  0  0  0  0  0
    4.4595   -1.4593   -1.9597 C   0  0  2  0  0  0  0  0  0  0  0  0
    5.3205   -2.6736   -2.3134 C   0  0  0  0  0  0  0  0  0  0  0  0
    5.1324   -3.7531   -1.5427 C   0  0  0  0  0  0  0  0  0  0  0  0
    4.1195   -3.6348   -0.4162 C   0  0  2  0  0  0  0  0  0  0  0  0
    3.3363   -4.8072   -0.3086 O   0  0  0  0  0  0  0  0  0  0  0  0
    3.2438   -2.3779   -0.6081 C   0  0  1  0  0  0  0  0  0  0  0  0
    4.2398   -1.2505   -0.4176 C   0  0  1  0  0  0  0  0  0  0  0  0
    5.1952   -1.7119    0.7185 C   0  0  0  0  0  0  0  0  0  0  0  0
    6.6815   -1.4188    0.4180 C   0  0  0  0  0  0  0  0  0  0  0  0
    4.8514   -0.9614    2.0277 C   0  0  0  0  0  0  0  0  0  0  0  0
    4.9390   -3.2652    0.8458 C   0  0  1  0  0  0  0  0  0  0  0  0
    4.2618   -3.6816    2.0900 C   0  0  0  0  0  0  0  0  0  0  0  0
    3.7317   -4.0100    3.0647 N   0  0  0  0  0  0  0  0  0  0  0  0
    2.9925   -3.7603   -3.0351 H   0  0  0  0  0  0  0  0  0  0  0  0
    2.6090   -2.3397   -4.0054 H   0  0  0  0  0  0  0  0  0  0  0  0
    1.4476   -2.9646   -2.8305 H   0  0  0  0  0  0  0  0  0  0  0  0
    4.6747   -0.5554   -2.5370 H   0  0  0  0  0  0  0  0  0  0  0  0
    6.0203   -2.6492   -3.1338 H   0  0  0  0  0  0  0  0  0  0  0  0
    5.6773   -4.6701   -1.6802 H   0  0  0  0  0  0  0  0  0  0  0  0
    3.1371   -5.1320   -1.1854 H   0  0  0  0  0  0  0  0  0  0  0  0
    2.3805   -2.2886    0.0514 H   0  0  0  0  0  0  0  0  0  0  0  0
    3.7594   -0.2860   -0.2370 H   0  0  0  0  0  0  0  0  0  0  0  0
    7.3072   -1.6696    1.2781 H   0  0  0  0  0  0  0  0  0  0  0  0
    6.8380   -0.3631    0.2115 H   0  0  0  0  0  0  0  0  0  0  0  0
    7.0678   -1.9946   -0.4200 H   0  0  0  0  0  0  0  0  0  0  0  0
    5.4431   -1.3223    2.8723 H   0  0  0  0  0  0  0  0  0  0  0  0
    3.7994   -1.0663    2.2947 H   0  0  0  0  0  0  0  0  0  0  0  0
    5.0500    0.1064    1.9356 H   0  0  0  0  0  0  0  0  0  0  0  0
    5.8838   -3.8148    0.8618 H   0  0  0  0  0  0  0  0  0  0  0  0
    2.4284   -1.0499   -1.8729 H   0  0  0  0  0  0  0  0  0  0  0  0
  1  2  1  0
  1 16  1  0
  1 17  1  0
  1 18  1  0
  2  8  1  0
  2  3  1  0
  2 32  1  1
  3  9  1  0
  3  4  1  0
  3 19  1  6
  4  5  2  0
  4 20  1  0
  5  6  1  0
  5 21  1  0
  6 13  1  0
  6  7  1  1
  6  8  1  0
  7 22  1  0
  8  9  1  0
  8 23  1  1
  9 10  1  0
  9 24  1  6
 10 11  1  0
 10 12  1  0
 10 13  1  0
 11 25  1  0
 11 26  1  0
 11 27  1  0
 12 28  1  0
 12 29  1  0
 12 30  1  0
 13 14  1  0
 13 31  1  6
 14 15  3  0
M  CHG  1   2   1
M  END
>  <i_m_ct_stereo_status>  (345) 
1

>  <s_m_source_file>  (345) 
/var/tmp/pbs.5076255.sched01/tmpsabrbf27/138opeauupd.sdf

>  <i_m_source_file_index>  (345) 
5

>  <i_lp_mmshare_version>  (345) 
48012

>  <i_f3d_flags>  (345) 
0

>  <s_epik_input>  (345) 
W0NIM11OMVtDQEhdKFtDSF09W0NIXTIpW0NAQEhdKFtDQEBIXTFbQ0BAXTIzW09IXSlDKFtDSDNdKShbQ0gzXSlbQ0BIXTNDI04=

>  <s_epik_cmdline>  (345) 
J2VwaWtfcHl0aG9uJywgJy1waHQnLCAnMi4wJywgJy1waCcsICc3LjAnLCAnLXRuJywgJzgnLCAnLW1hJywgJzIwMCcsICctaW1hZScsICc8aW5maWxlLm1hZT4nLCAnLW9tYWUnLCAnPG91dGZpbGUubWFlPic=

>  <r_epik_Ionization_Penalty>  (345) 
0.101793

>  <r_epik_Ionization_Penalty_Charging>  (345) 
0.101788

>  <r_epik_Ionization_Penalty_Neutral>  (345) 
4.84114e-06

>  <r_epik_State_Penalty>  (345) 
0.091768

>  <r_epik_Charging_Adjusted_Penalty>  (345) 
0.193556

>  <i_epik_Tot_Q>  (345) 
1

>  <i_epik_Tot_abs_Q>  (345) 
1

>  <s_lp_Force_Field>  (345) 
OPLS3e

>  <r_lp_Energy>  (345) 
55.3547

>  <b_lp_Chiralities_Consistent>  (345) 
1

>  <s_lp_Variant>  (345) 
90:0-1

>  <s_i_glide_gridfile>  (345) 
pfpi4k_grid

>  <i_i_glide_lignum>  (345) 
5

>  <i_i_glide_rotatable_bonds>  (345) 
2

>  <r_i_docking_score>  (345) 
-4.93259

>  <r_i_glide_ligand_efficiency>  (345) 
-0.32884

>  <r_i_glide_ligand_efficiency_sa>  (345) 
-0.810988

>  <r_i_glide_ligand_efficiency_ln>  (345) 
-1.33024

>  <r_i_glide_gscore>  (345) 
-4.93259

>  <r_i_glide_lipo>  (345) 
-0.385049

>  <r_i_glide_hbond>  (345) 
-0.42508

>  <r_i_glide_metal>  (345) 
-0

>  <r_i_glide_rewards>  (345) 
-2.02284

>  <r_i_glide_evdw>  (345) 
-14.2822

>  <r_i_glide_ecoul>  (345) 
-8.68385

>  <r_i_glide_erotb>  (345) 
0

>  <r_i_glide_esite>  (345) 
-0.0829377

>  <r_i_glide_emodel>  (345) 
-31.0249

>  <r_i_glide_energy>  (345) 
-22.966

>  <r_i_glide_einternal>  (345) 
1.29942

>  <r_i_glide_intrahb_reward>  (345) 
-0

>  <i_i_glide_confnum>  (345) 
2

>  <i_i_glide_posenum>  (345) 
23

>  <r_i_glide_eff_state_penalty>  (345) 
0

>  <ligand_id>  (345) 
90

>  <original_smiles>  (345) 
CN1C2C=CC3(O)C1C2C(C)(C)C3C#N

>  <smiles>  (345) 
[H]OC12C([H])=C([H])C3([H])C([H])(C(C([H])([H])[H])(C([H])([H])[H])C1([H])C#N)C2([H])[N+]3([H])C([H])([H])[H]

$$$$
90:0:1
     RDKit          3D

 32 34  0  0  1  0  0  0  0  0999 V2000
    2.5060   -3.0421   -3.5427 C   0  0  0  0  0  0  0  0  0  0  0  0
    2.5051   -2.5150   -2.1525 N   0  0  2  0  0  0  0  0  0  0  0  0
    3.2047   -1.2746   -1.8146 C   0  0  2  0  0  0  0  0  0  0  0  0
    4.5336   -1.2378   -2.5408 C   0  0  0  0  0  0  0  0  0  0  0  0
    5.3254   -2.2887   -2.3174 C   0  0  0  0  0  0  0  0  0  0  0  0
    4.7936   -3.3482   -1.3589 C   0  0  2  0  0  0  0  0  0  0  0  0
    5.0263   -4.6363   -1.8370 O   0  0  0  0  0  0  0  0  0  0  0  0
    3.2928   -3.1766   -1.1120 C   0  0  1  0  0  0  0  0  0  0  0  0
    3.2610   -1.8760   -0.3543 C   0  0  1  0  0  0  0  0  0  0  0  0
    4.4923   -1.8744    0.5873 C   0  0  0  0  0  0  0  0  0  0  0  0
    5.2374   -0.5229    0.6130 C   0  0  0  0  0  0  0  0  0  0  0  0
    4.0328   -2.1618    2.0376 C   0  0  0  0  0  0  0  0  0  0  0  0
    5.4078   -3.0185    0.0178 C   0  0  1  0  0  0  0  0  0  0  0  0
    5.5062   -4.2147    0.8751 C   0  0  0  0  0  0  0  0  0  0  0  0
    5.5864   -5.1576    1.5441 N   0  0  0  0  0  0  0  0  0  0  0  0
    3.4945   -3.2770   -3.9374 H   0  0  0  0  0  0  0  0  0  0  0  0
    2.0310   -2.3300   -4.2222 H   0  0  0  0  0  0  0  0  0  0  0  0
    1.9255   -3.9595   -3.5841 H   0  0  0  0  0  0  0  0  0  0  0  0
    2.5718   -0.4183   -2.0055 H   0  0  0  0  0  0  0  0  0  0  0  0
    4.7484   -0.3840   -3.1659 H   0  0  0  0  0  0  0  0  0  0  0  0
    6.3065   -2.4068   -2.7530 H   0  0  0  0  0  0  0  0  0  0  0  0
    5.8754   -4.6765   -2.2340 H   0  0  0  0  0  0  0  0  0  0  0  0
    2.7746   -3.9844   -0.6040 H   0  0  0  0  0  0  0  0  0  0  0  0
    2.3279   -1.7647    0.1918 H   0  0  0  0  0  0  0  0  0  0  0  0
    6.0417   -0.5461    1.3478 H   0  0  0  0  0  0  0  0  0  0  0  0
    4.5728    0.2980    0.8816 H   0  0  0  0  0  0  0  0  0  0  0  0
    5.6919   -0.2735   -0.3419 H   0  0  0  0  0  0  0  0  0  0  0  0
    4.8808   -2.2700    2.7134 H   0  0  0  0  0  0  0  0  0  0  0  0
    3.4356   -3.0714    2.1059 H   0  0  0  0  0  0  0  0  0  0  0  0
    3.4168   -1.3500    2.4253 H   0  0  0  0  0  0  0  0  0  0  0  0
    6.4377   -2.6750   -0.0933 H   0  0  0  0  0  0  0  0  0  0  0  0
    1.5627   -2.3716   -1.8110 H   0  0  0  0  0  0  0  0  0  0  0  0
  1  2  1  0
  1 16  1  0
  1 17  1  0
  1 18  1  0
  2  8  1  0
  2  3  1  0
  2 32  1  1
  3  9  1  0
  3  4  1  0
  3 19  1  1
  4  5  2  0
  4 20  1  0
  5  6  1  0
  5 21  1  0
  6 13  1  0
  6  7  1  6
  6  8  1  0
  7 22  1  0
  8  9  1  0
  8 23  1  1
  9 10  1  0
  9 24  1  1
 10 11  1  0
 10 12  1  0
 10 13  1  0
 11 25  1  0
 11 26  1  0
 11 27  1  0
 12 28  1  0
 12 29  1  0
 12 30  1  0
 13 14  1  0
 13 31  1  6
 14 15  3  0
M  CHG  1   2   1
M  END
>  <i_m_ct_stereo_status>  (346) 
1

>  <s_m_source_file>  (346) 
/var/tmp/pbs.5076255.sched01/tmpsabrbf27/138opeauupd.sdf

>  <i_m_source_file_index>  (346) 
5

>  <i_lp_mmshare_version>  (346) 
48012

>  <i_f3d_flags>  (346) 
0

>  <s_epik_input>  (346) 
W0NIM11OMVtDQEhdKFtDSF09W0NIXTIpW0NAQEhdKFtDQEBIXTFbQ0BAXTIzW09IXSlDKFtDSDNdKShbQ0gzXSlbQ0BIXTNDI04=

>  <s_epik_cmdline>  (346) 
J2VwaWtfcHl0aG9uJywgJy1waHQnLCAnMi4wJywgJy1waCcsICc3LjAnLCAnLXRuJywgJzgnLCAnLW1hJywgJzIwMCcsICctaW1hZScsICc8aW5maWxlLm1hZT4nLCAnLW9tYWUnLCAnPG91dGZpbGUubWFlPic=

>  <r_epik_Ionization_Penalty>  (346) 
0.101793

>  <r_epik_Ionization_Penalty_Charging>  (346) 
0.101788

>  <r_epik_Ionization_Penalty_Neutral>  (346) 
4.84114e-06

>  <r_epik_State_Penalty>  (346) 
0.091768

>  <r_epik_Charging_Adjusted_Penalty>  (346) 
0.193556

>  <i_epik_Tot_Q>  (346) 
1

>  <i_epik_Tot_abs_Q>  (346) 
1

>  <s_lp_Force_Field>  (346) 
OPLS3e

>  <r_lp_Energy>  (346) 
55.3547

>  <b_lp_Chiralities_Consistent>  (346) 
1

>  <s_lp_Variant>  (346) 
90:0-1

>  <s_i_glide_gridfile>  (346) 
pfpi4k_grid

>  <i_i_glide_lignum>  (346) 
5

>  <i_i_glide_rotatable_bonds>  (346) 
2

>  <r_i_docking_score>  (346) 
-3.75144

>  <r_i_glide_ligand_efficiency>  (346) 
-0.250096

>  <r_i_glide_ligand_efficiency_sa>  (346) 
-0.616789

>  <r_i_glide_ligand_efficiency_ln>  (346) 
-1.0117

>  <r_i_glide_gscore>  (346) 
-3.75144

>  <r_i_glide_lipo>  (346) 
-0.545963

>  <r_i_glide_hbond>  (346) 
-0.140574

>  <r_i_glide_metal>  (346) 
-0

>  <r_i_glide_rewards>  (346) 
-2.09169

>  <r_i_glide_evdw>  (346) 
-9.00561

>  <r_i_glide_ecoul>  (346) 
-3.10099

>  <r_i_glide_erotb>  (346) 
0

>  <r_i_glide_esite>  (346) 
-0.0577796

>  <r_i_glide_emodel>  (346) 
-18.0401

>  <r_i_glide_energy>  (346) 
-12.1066

>  <r_i_glide_einternal>  (346) 
1.14752

>  <r_i_glide_intrahb_reward>  (346) 
-0

>  <i_i_glide_confnum>  (346) 
2

>  <i_i_glide_posenum>  (346) 
34

>  <r_i_glide_eff_state_penalty>  (346) 
0

>  <ligand_id>  (346) 
90

>  <original_smiles>  (346) 
CN1C2C=CC3(O)C1C2C(C)(C)C3C#N

>  <smiles>  (346) 
[H]OC12C([H])=C([H])C3([H])C([H])(C(C([H])([H])[H])(C([H])([H])[H])C1([H])C#N)C2([H])[N+]3([H])C([H])([H])[H]

$$$$
90:0:2
     RDKit          3D

 32 34  0  0  1  0  0  0  0  0999 V2000
    4.0100   -3.1334    1.6239 C   0  0  0  0  0  0  0  0  0  0  0  0
    3.4187   -3.4863    0.3013 N   0  0  2  0  0  0  0  0  0  0  0  0
    4.0998   -4.4221   -0.5830 C   0  0  2  0  0  0  0  0  0  0  0  0
    5.5957   -4.1540   -0.5321 C   0  0  0  0  0  0  0  0  0  0  0  0
    5.9736   -2.8999   -0.8320 C   0  0  0  0  0  0  0  0  0  0  0  0
    4.8488   -1.9149   -1.1466 C   0  0  2  0  0  0  0  0  0  0  0  0
    5.1368   -0.6655   -0.5812 O   0  0  0  0  0  0  0  0  0  0  0  0
    3.4746   -2.4968   -0.7418 C   0  0  1  0  0  0  0  0  0  0  0  0
    3.3194   -3.6421   -1.6899 C   0  0  1  0  0  0  0  0  0  0  0  0
    3.9040   -3.1921   -3.0523 C   0  0  0  0  0  0  0  0  0  0  0  0
    4.8146   -4.2089   -3.7540 C   0  0  0  0  0  0  0  0  0  0  0  0
    2.7760   -2.8781   -4.0442 C   0  0  0  0  0  0  0  0  0  0  0  0
    4.7433   -1.9399   -2.6726 C   0  0  1  0  0  0  0  0  0  0  0  0
    4.2168   -0.7034   -3.2874 C   0  0  0  0  0  0  0  0  0  0  0  0
    3.8039    0.2478   -3.7827 N   0  0  0  0  0  0  0  0  0  0  0  0
    4.9945   -2.6760    1.5663 H   0  0  0  0  0  0  0  0  0  0  0  0
    4.0935   -4.0051    2.2516 H   0  0  0  0  0  0  0  0  0  0  0  0
    3.3772   -2.4171    2.1203 H   0  0  0  0  0  0  0  0  0  0  0  0
    3.8205   -5.4567   -0.4574 H   0  0  0  0  0  0  0  0  0  0  0  0
    6.2587   -4.9632   -0.2730 H   0  0  0  0  0  0  0  0  0  0  0  0
    6.9982   -2.5694   -0.8548 H   0  0  0  0  0  0  0  0  0  0  0  0
    4.3866   -0.0997   -0.6988 H   0  0  0  0  0  0  0  0  0  0  0  0
    2.6236   -1.8375   -0.8083 H   0  0  0  0  0  0  0  0  0  0  0  0
    2.2785   -3.9855   -1.7260 H   0  0  0  0  0  0  0  0  0  0  0  0
    5.1562   -3.8626   -4.7264 H   0  0  0  0  0  0  0  0  0  0  0  0
    4.3114   -5.1419   -3.9536 H   0  0  0  0  0  0  0  0  0  0  0  0
    5.6896   -4.3905   -3.1472 H   0  0  0  0  0  0  0  0  0  0  0  0
    3.1945   -2.4537   -4.9552 H   0  0  0  0  0  0  0  0  0  0  0  0
    2.0600   -2.1608   -3.6460 H   0  0  0  0  0  0  0  0  0  0  0  0
    2.2238   -3.7763   -4.3147 H   0  0  0  0  0  0  0  0  0  0  0  0
    5.7574   -2.0301   -3.0774 H   0  0  0  0  0  0  0  0  0  0  0  0
    2.4549   -3.7822    0.3884 H   0  0  0  0  0  0  0  0  0  0  0  0
  1  2  1  0
  1 16  1  0
  1 17  1  0
  1 18  1  0
  2  8  1  0
  2  3  1  0
  2 32  1  1
  3  9  1  0
  3  4  1  0
  3 19  1  1
  4  5  2  0
  4 20  1  0
  5  6  1  0
  5 21  1  0
  6 13  1  0
  6  7  1  1
  6  8  1  0
  7 22  1  0
  8  9  1  0
  8 23  1  1
  9 10  1  0
  9 24  1  6
 10 11  1  0
 10 12  1  0
 10 13  1  0
 11 25  1  0
 11 26  1  0
 11 27  1  0
 12 28  1  0
 12 29  1  0
 12 30  1  0
 13 14  1  0
 13 31  1  6
 14 15  3  0
M  CHG  1   2   1
M  END
>  <i_m_ct_stereo_status>  (347) 
1

>  <s_m_source_file>  (347) 
/var/tmp/pbs.5076255.sched01/tmpsabrbf27/138opeauupd.sdf

>  <i_m_source_file_index>  (347) 
5

>  <i_lp_mmshare_version>  (347) 
48012

>  <i_f3d_flags>  (347) 
0

>  <s_epik_input>  (347) 
W0NIM11OMVtDQEhdKFtDSF09W0NIXTIpW0NAQEhdKFtDQEBIXTFbQ0BAXTIzW09IXSlDKFtDSDNdKShbQ0gzXSlbQ0BIXTNDI04=

>  <s_epik_cmdline>  (347) 
J2VwaWtfcHl0aG9uJywgJy1waHQnLCAnMi4wJywgJy1waCcsICc3LjAnLCAnLXRuJywgJzgnLCAnLW1hJywgJzIwMCcsICctaW1hZScsICc8aW5maWxlLm1hZT4nLCAnLW9tYWUnLCAnPG91dGZpbGUubWFlPic=

>  <r_epik_Ionization_Penalty>  (347) 
0.101793

>  <r_epik_Ionization_Penalty_Charging>  (347) 
0.101788

>  <r_epik_Ionization_Penalty_Neutral>  (347) 
4.84114e-06

>  <r_epik_State_Penalty>  (347) 
0.091768

>  <r_epik_Charging_Adjusted_Penalty>  (347) 
0.193556

>  <i_epik_Tot_Q>  (347) 
1

>  <i_epik_Tot_abs_Q>  (347) 
1

>  <s_lp_Force_Field>  (347) 
OPLS3e

>  <r_lp_Energy>  (347) 
55.3547

>  <b_lp_Chiralities_Consistent>  (347) 
1

>  <s_lp_Variant>  (347) 
90:0-1

>  <s_i_glide_gridfile>  (347) 
pfpi4k_grid

>  <i_i_glide_lignum>  (347) 
5

>  <i_i_glide_rotatable_bonds>  (347) 
2

>  <r_i_docking_score>  (347) 
-3.48367

>  <r_i_glide_ligand_efficiency>  (347) 
-0.232244

>  <r_i_glide_ligand_efficiency_sa>  (347) 
-0.572764

>  <r_i_glide_ligand_efficiency_ln>  (347) 
-0.939487

>  <r_i_glide_gscore>  (347) 
-3.48367

>  <r_i_glide_lipo>  (347) 
-0.236365

>  <r_i_glide_hbond>  (347) 
0

>  <r_i_glide_metal>  (347) 
-0

>  <r_i_glide_rewards>  (347) 
-2.25087

>  <r_i_glide_evdw>  (347) 
-14.6442

>  <r_i_glide_ecoul>  (347) 
-1.73336

>  <r_i_glide_erotb>  (347) 
0

>  <r_i_glide_esite>  (347) 
-0.00421391

>  <r_i_glide_emodel>  (347) 
-21.7436

>  <r_i_glide_energy>  (347) 
-16.3776

>  <r_i_glide_einternal>  (347) 
1.03622

>  <r_i_glide_intrahb_reward>  (347) 
-0

>  <i_i_glide_confnum>  (347) 
1

>  <i_i_glide_posenum>  (347) 
20

>  <r_i_glide_eff_state_penalty>  (347) 
0

>  <ligand_id>  (347) 
90

>  <original_smiles>  (347) 
CN1C2C=CC3(O)C1C2C(C)(C)C3C#N

>  <smiles>  (347) 
[H]OC12C([H])=C([H])C3([H])C([H])(C(C([H])([H])[H])(C([H])([H])[H])C1([H])C#N)C2([H])[N+]3([H])C([H])([H])[H]

$$$$
90:1:0
     RDKit          3D

 31 33  0  0  1  0  0  0  0  0999 V2000
    3.4413   -1.4232   -3.4540 C   0  0  0  0  0  0  0  0  0  0  0  0
    4.0955   -1.0520   -2.1996 N   0  0  0  0  0  0  0  0  0  0  0  0
    5.4573   -1.4940   -1.9257 C   0  0  2  0  0  0  0  0  0  0  0  0
    5.6668   -2.9462   -2.3415 C   0  0  0  0  0  0  0  0  0  0  0  0
    4.7991   -3.8361   -1.8390 C   0  0  0  0  0  0  0  0  0  0  0  0
    3.7389   -3.2895   -0.8880 C   0  0  2  0  0  0  0  0  0  0  0  0
    2.4763   -3.8753   -1.1183 O   0  0  0  0  0  0  0  0  0  0  0  0
    3.6522   -1.7531   -0.9973 C   0  0  1  0  0  0  0  0  0  0  0  0
    4.9920   -1.3033   -0.4302 C   0  0  1  0  0  0  0  0  0  0  0  0
    5.3112   -2.2657    0.7406 C   0  0  0  0  0  0  0  0  0  0  0  0
    6.7795   -2.7437    0.7448 C   0  0  0  0  0  0  0  0  0  0  0  0
    5.0736   -1.5354    2.0833 C   0  0  0  0  0  0  0  0  0  0  0  0
    4.3182   -3.4798    0.5382 C   0  0  1  0  0  0  0  0  0  0  0  0
    3.2577   -3.5833    1.5614 C   0  0  0  0  0  0  0  0  0  0  0  0
    2.4289   -3.6728    2.3664 N   0  0  0  0  0  0  0  0  0  0  0  0
    3.9352   -0.9463   -4.3028 H   0  0  0  0  0  0  0  0  0  0  0  0
    2.4071   -1.0792   -3.4395 H   0  0  0  0  0  0  0  0  0  0  0  0
    3.4156   -2.5011   -3.6211 H   0  0  0  0  0  0  0  0  0  0  0  0
    6.1954   -0.7912   -2.2905 H   0  0  0  0  0  0  0  0  0  0  0  0
    6.4844   -3.2014   -3.0005 H   0  0  0  0  0  0  0  0  0  0  0  0
    4.8666   -4.8921   -2.0449 H   0  0  0  0  0  0  0  0  0  0  0  0
    2.6107   -4.6781   -1.6189 H   0  0  0  0  0  0  0  0  0  0  0  0
    2.8106   -1.2779   -0.4904 H   0  0  0  0  0  0  0  0  0  0  0  0
    5.0010   -0.2463   -0.1536 H   0  0  0  0  0  0  0  0  0  0  0  0
    6.9969   -3.3256    1.6421 H   0  0  0  0  0  0  0  0  0  0  0  0
    7.4711   -1.9022    0.7269 H   0  0  0  0  0  0  0  0  0  0  0  0
    7.0154   -3.3850   -0.1018 H   0  0  0  0  0  0  0  0  0  0  0  0
    5.1961   -2.2037    2.9385 H   0  0  0  0  0  0  0  0  0  0  0  0
    4.0719   -1.1039    2.1387 H   0  0  0  0  0  0  0  0  0  0  0  0
    5.7807   -0.7144    2.2147 H   0  0  0  0  0  0  0  0  0  0  0  0
    4.8503   -4.4316    0.6094 H   0  0  0  0  0  0  0  0  0  0  0  0
  1  2  1  0
  1 16  1  0
  1 17  1  0
  1 18  1  0
  2  8  1  0
  2  3  1  0
  3  9  1  0
  3  4  1  0
  3 19  1  6
  4  5  2  0
  4 20  1  0
  5  6  1  0
  5 21  1  0
  6 13  1  0
  6  7  1  1
  6  8  1  0
  7 22  1  0
  8  9  1  0
  8 23  1  1
  9 10  1  0
  9 24  1  1
 10 11  1  0
 10 12  1  0
 10 13  1  0
 11 25  1  0
 11 26  1  0
 11 27  1  0
 12 28  1  0
 12 29  1  0
 12 30  1  0
 13 14  1  0
 13 31  1  6
 14 15  3  0
M  END
>  <i_m_ct_stereo_status>  (348) 
1

>  <s_m_source_file>  (348) 
/var/tmp/pbs.5076255.sched01/tmpsabrbf27/138opeauupd.sdf

>  <i_m_source_file_index>  (348) 
6

>  <i_lp_mmshare_version>  (348) 
48012

>  <i_f3d_flags>  (348) 
0

>  <s_epik_input>  (348) 
W0NIM11OMVtDQEhdKFtDSF09W0NIXTIpW0NAQEhdKFtDQEBIXTFbQ0BAXTIzW09IXSlDKFtDSDNdKShbQ0gzXSlbQ0BIXTNDI04=

>  <s_epik_cmdline>  (348) 
J2VwaWtfcHl0aG9uJywgJy1waHQnLCAnMi4wJywgJy1waCcsICc3LjAnLCAnLXRuJywgJzgnLCAnLW1hJywgJzIwMCcsICctaW1hZScsICc8aW5maWxlLm1hZT4nLCAnLW9tYWUnLCAnPG91dGZpbGUubWFlPic=

>  <r_epik_Ionization_Penalty>  (348) 
1.09379

>  <r_epik_Ionization_Penalty_Charging>  (348) 
0

>  <r_epik_Ionization_Penalty_Neutral>  (348) 
1.09379

>  <r_epik_State_Penalty>  (348) 
1.15032

>  <r_epik_Charging_Adjusted_Penalty>  (348) 
1.15032

>  <i_epik_Tot_Q>  (348) 
0

>  <i_epik_Tot_abs_Q>  (348) 
0

>  <s_lp_Force_Field>  (348) 
OPLS3e

>  <r_lp_Energy>  (348) 
46.7259

>  <b_lp_Chiralities_Consistent>  (348) 
1

>  <s_lp_Variant>  (348) 
90:0-2

>  <s_i_glide_gridfile>  (348) 
pfpi4k_grid

>  <i_i_glide_lignum>  (348) 
6

>  <i_i_glide_rotatable_bonds>  (348) 
2

>  <r_i_docking_score>  (348) 
-4.14698

>  <r_i_glide_ligand_efficiency>  (348) 
-0.276465

>  <r_i_glide_ligand_efficiency_sa>  (348) 
-0.681823

>  <r_i_glide_ligand_efficiency_ln>  (348) 
-1.11837

>  <r_i_glide_gscore>  (348) 
-4.14698

>  <r_i_glide_lipo>  (348) 
-0.584065

>  <r_i_glide_hbond>  (348) 
-0.32

>  <r_i_glide_metal>  (348) 
-0

>  <r_i_glide_rewards>  (348) 
-2.01932

>  <r_i_glide_evdw>  (348) 
-15.1961

>  <r_i_glide_ecoul>  (348) 
-3.09196

>  <r_i_glide_erotb>  (348) 
0

>  <r_i_glide_esite>  (348) 
0

>  <r_i_glide_emodel>  (348) 
-22.4174

>  <r_i_glide_energy>  (348) 
-18.2881

>  <r_i_glide_einternal>  (348) 
1.71597

>  <r_i_glide_intrahb_reward>  (348) 
-0

>  <i_i_glide_confnum>  (348) 
1

>  <i_i_glide_posenum>  (348) 
28

>  <r_i_glide_eff_state_penalty>  (348) 
0

>  <ligand_id>  (348) 
90

>  <original_smiles>  (348) 
CN1C2C=CC3(O)C1C2C(C)(C)C3C#N

>  <smiles>  (348) 
[H]OC12C([H])=C([H])C3([H])N(C([H])([H])[H])C1([H])C3([H])C(C([H])([H])[H])(C([H])([H])[H])C2([H])C#N

$$$$
90:1:1
     RDKit          3D

 31 33  0  0  1  0  0  0  0  0999 V2000
    4.1279   -3.5900   -3.5030 C   0  0  0  0  0  0  0  0  0  0  0  0
    4.0761   -2.4189   -2.6287 N   0  0  0  0  0  0  0  0  0  0  0  0
    5.3077   -1.8697   -2.0627 C   0  0  2  0  0  0  0  0  0  0  0  0
    6.2441   -2.9735   -1.5782 C   0  0  0  0  0  0  0  0  0  0  0  0
    5.7191   -3.8576   -0.7210 C   0  0  0  0  0  0  0  0  0  0  0  0
    4.2693   -3.6365   -0.3130 C   0  0  2  0  0  0  0  0  0  0  0  0
    3.5743   -4.8622   -0.2565 O   0  0  0  0  0  0  0  0  0  0  0  0
    3.5801   -2.6365   -1.2708 C   0  0  1  0  0  0  0  0  0  0  0  0
    4.3143   -1.3357   -0.9629 C   0  0  1  0  0  0  0  0  0  0  0  0
    4.5722   -1.3296    0.5655 C   0  0  0  0  0  0  0  0  0  0  0  0
    5.9982   -0.8663    0.9324 C   0  0  0  0  0  0  0  0  0  0  0  0
    3.5928   -0.3447    1.2493 C   0  0  0  0  0  0  0  0  0  0  0  0
    4.3281   -2.8258    1.0085 C   0  0  1  0  0  0  0  0  0  0  0  0
    3.1301   -3.0310    1.8444 C   0  0  0  0  0  0  0  0  0  0  0  0
    2.1966   -3.1948    2.5091 N   0  0  0  0  0  0  0  0  0  0  0  0
    4.6425   -3.3556   -4.4337 H   0  0  0  0  0  0  0  0  0  0  0  0
    3.1126   -3.8978   -3.7583 H   0  0  0  0  0  0  0  0  0  0  0  0
    4.6231   -4.4422   -3.0416 H   0  0  0  0  0  0  0  0  0  0  0  0
    5.7511   -1.1020   -2.6865 H   0  0  0  0  0  0  0  0  0  0  0  0
    7.2643   -3.0133   -1.9338 H   0  0  0  0  0  0  0  0  0  0  0  0
    6.2762   -4.6752   -0.2942 H   0  0  0  0  0  0  0  0  0  0  0  0
    3.4264   -5.1604   -1.1515 H   0  0  0  0  0  0  0  0  0  0  0  0
    2.4946   -2.5476   -1.1830 H   0  0  0  0  0  0  0  0  0  0  0  0
    3.8102   -0.4447   -1.3329 H   0  0  0  0  0  0  0  0  0  0  0  0
    6.1130   -0.7622    2.0133 H   0  0  0  0  0  0  0  0  0  0  0  0
    6.2201    0.1018    0.4844 H   0  0  0  0  0  0  0  0  0  0  0  0
    6.7649   -1.5670    0.6096 H   0  0  0  0  0  0  0  0  0  0  0  0
    3.6722   -0.3758    2.3380 H   0  0  0  0  0  0  0  0  0  0  0  0
    2.5539   -0.5558    0.9843 H   0  0  0  0  0  0  0  0  0  0  0  0
    3.7918    0.6849    0.9454 H   0  0  0  0  0  0  0  0  0  0  0  0
    5.1454   -3.1797    1.6389 H   0  0  0  0  0  0  0  0  0  0  0  0
  1  2  1  0
  1 16  1  0
  1 17  1  0
  1 18  1  0
  2  8  1  0
  2  3  1  0
  3  9  1  0
  3  4  1  0
  3 19  1  6
  4  5  2  0
  4 20  1  0
  5  6  1  0
  5 21  1  0
  6 13  1  0
  6  7  1  1
  6  8  1  0
  7 22  1  0
  8  9  1  0
  8 23  1  6
  9 10  1  0
  9 24  1  6
 10 11  1  0
 10 12  1  0
 10 13  1  0
 11 25  1  0
 11 26  1  0
 11 27  1  0
 12 28  1  0
 12 29  1  0
 12 30  1  0
 13 14  1  0
 13 31  1  1
 14 15  3  0
M  END
>  <i_m_ct_stereo_status>  (349) 
1

>  <s_m_source_file>  (349) 
/var/tmp/pbs.5076255.sched01/tmpsabrbf27/138opeauupd.sdf

>  <i_m_source_file_index>  (349) 
6

>  <i_lp_mmshare_version>  (349) 
48012

>  <i_f3d_flags>  (349) 
0

>  <s_epik_input>  (349) 
W0NIM11OMVtDQEhdKFtDSF09W0NIXTIpW0NAQEhdKFtDQEBIXTFbQ0BAXTIzW09IXSlDKFtDSDNdKShbQ0gzXSlbQ0BIXTNDI04=

>  <s_epik_cmdline>  (349) 
J2VwaWtfcHl0aG9uJywgJy1waHQnLCAnMi4wJywgJy1waCcsICc3LjAnLCAnLXRuJywgJzgnLCAnLW1hJywgJzIwMCcsICctaW1hZScsICc8aW5maWxlLm1hZT4nLCAnLW9tYWUnLCAnPG91dGZpbGUubWFlPic=

>  <r_epik_Ionization_Penalty>  (349) 
1.09379

>  <r_epik_Ionization_Penalty_Charging>  (349) 
0

>  <r_epik_Ionization_Penalty_Neutral>  (349) 
1.09379

>  <r_epik_State_Penalty>  (349) 
1.15032

>  <r_epik_Charging_Adjusted_Penalty>  (349) 
1.15032

>  <i_epik_Tot_Q>  (349) 
0

>  <i_epik_Tot_abs_Q>  (349) 
0

>  <s_lp_Force_Field>  (349) 
OPLS3e

>  <r_lp_Energy>  (349) 
46.7259

>  <b_lp_Chiralities_Consistent>  (349) 
1

>  <s_lp_Variant>  (349) 
90:0-2

>  <s_i_glide_gridfile>  (349) 
pfpi4k_grid

>  <i_i_glide_lignum>  (349) 
6

>  <i_i_glide_rotatable_bonds>  (349) 
2

>  <r_i_docking_score>  (349) 
-3.82225

>  <r_i_glide_ligand_efficiency>  (349) 
-0.254817

>  <r_i_glide_ligand_efficiency_sa>  (349) 
-0.628432

>  <r_i_glide_ligand_efficiency_ln>  (349) 
-1.0308

>  <r_i_glide_gscore>  (349) 
-3.82225

>  <r_i_glide_lipo>  (349) 
-0.300291

>  <r_i_glide_hbond>  (349) 
-0.32

>  <r_i_glide_metal>  (349) 
-0

>  <r_i_glide_rewards>  (349) 
-2.01635

>  <r_i_glide_evdw>  (349) 
-15.8071

>  <r_i_glide_ecoul>  (349) 
-2.61903

>  <r_i_glide_erotb>  (349) 
0

>  <r_i_glide_esite>  (349) 
-0.00239532

>  <r_i_glide_emodel>  (349) 
-22.5628

>  <r_i_glide_energy>  (349) 
-18.4262

>  <r_i_glide_einternal>  (349) 
0.923329

>  <r_i_glide_intrahb_reward>  (349) 
-0

>  <i_i_glide_confnum>  (349) 
2

>  <i_i_glide_posenum>  (349) 
4

>  <r_i_glide_eff_state_penalty>  (349) 
0

>  <ligand_id>  (349) 
90

>  <original_smiles>  (349) 
CN1C2C=CC3(O)C1C2C(C)(C)C3C#N

>  <smiles>  (349) 
[H]OC12C([H])=C([H])C3([H])N(C([H])([H])[H])C1([H])C3([H])C(C([H])([H])[H])(C([H])([H])[H])C2([H])C#N

$$$$
90:1:2
     RDKit          3D

 31 33  0  0  1  0  0  0  0  0999 V2000
    3.7349   -3.1703   -2.3057 C   0  0  0  0  0  0  0  0  0  0  0  0
    3.7346   -2.4393   -1.0196 N   0  0  0  0  0  0  0  0  0  0  0  0
    4.9610   -2.4038   -0.2311 C   0  0  2  0  0  0  0  0  0  0  0  0
    5.6451   -3.7559   -0.1942 C   0  0  0  0  0  0  0  0  0  0  0  0
    4.9048   -4.7971    0.1923 C   0  0  0  0  0  0  0  0  0  0  0  0
    3.4543   -4.4915    0.5631 C   0  0  2  0  0  0  0  0  0  0  0  0
    2.5896   -5.5037    0.0817 O   0  0  0  0  0  0  0  0  0  0  0  0
    3.0468   -3.1177    0.0694 C   0  0  1  0  0  0  0  0  0  0  0  0
    3.8971   -2.1736    0.9355 C   0  0  1  0  0  0  0  0  0  0  0  0
    3.9694   -2.8221    2.3349 C   0  0  0  0  0  0  0  0  0  0  0  0
    5.3869   -2.8074    2.9485 C   0  0  0  0  0  0  0  0  0  0  0  0
    3.0550   -2.0440    3.3122 C   0  0  0  0  0  0  0  0  0  0  0  0
    3.4735   -4.3154    2.1146 C   0  0  1  0  0  0  0  0  0  0  0  0
    2.1662   -4.6197    2.7359 C   0  0  0  0  0  0  0  0  0  0  0  0
    1.1474   -4.8730    3.2310 N   0  0  0  0  0  0  0  0  0  0  0  0
    4.3857   -2.6730   -3.0319 H   0  0  0  0  0  0  0  0  0  0  0  0
    2.7220   -3.1791   -2.7236 H   0  0  0  0  0  0  0  0  0  0  0  0
    4.0587   -4.2039   -2.2071 H   0  0  0  0  0  0  0  0  0  0  0  0
    5.5815   -1.5404   -0.4705 H   0  0  0  0  0  0  0  0  0  0  0  0
    6.6935   -3.8184   -0.4647 H   0  0  0  0  0  0  0  0  0  0  0  0
    5.2859   -5.8044    0.2723 H   0  0  0  0  0  0  0  0  0  0  0  0
    2.7116   -5.5577   -0.8556 H   0  0  0  0  0  0  0  0  0  0  0  0
    1.9845   -2.8496    0.1241 H   0  0  0  0  0  0  0  0  0  0  0  0
    3.5415   -1.1411    0.9264 H   0  0  0  0  0  0  0  0  0  0  0  0
    5.3763   -3.1660    3.9782 H   0  0  0  0  0  0  0  0  0  0  0  0
    5.8016   -1.7998    2.9584 H   0  0  0  0  0  0  0  0  0  0  0  0
    6.0823   -3.4444    2.4070 H   0  0  0  0  0  0  0  0  0  0  0  0
    2.9981   -2.5199    4.2927 H   0  0  0  0  0  0  0  0  0  0  0  0
    2.0381   -1.9472    2.9262 H   0  0  0  0  0  0  0  0  0  0  0  0
    3.4301   -1.0307    3.4709 H   0  0  0  0  0  0  0  0  0  0  0  0
    4.1509   -5.0230    2.5843 H   0  0  0  0  0  0  0  0  0  0  0  0
  1  2  1  0
  1 16  1  0
  1 17  1  0
  1 18  1  0
  2  8  1  0
  2  3  1  0
  3  9  1  0
  3  4  1  0
  3 19  1  6
  4  5  2  0
  4 20  1  0
  5  6  1  0
  5 21  1  0
  6 13  1  0
  6  7  1  1
  6  8  1  0
  7 22  1  0
  8  9  1  0
  8 23  1  6
  9 10  1  0
  9 24  1  1
 10 11  1  0
 10 12  1  0
 10 13  1  0
 11 25  1  0
 11 26  1  0
 11 27  1  0
 12 28  1  0
 12 29  1  0
 12 30  1  0
 13 14  1  0
 13 31  1  1
 14 15  3  0
M  END
>  <i_m_ct_stereo_status>  (350) 
1

>  <s_m_source_file>  (350) 
/var/tmp/pbs.5076255.sched01/tmpsabrbf27/138opeauupd.sdf

>  <i_m_source_file_index>  (350) 
6

>  <i_lp_mmshare_version>  (350) 
48012

>  <i_f3d_flags>  (350) 
0

>  <s_epik_input>  (350) 
W0NIM11OMVtDQEhdKFtDSF09W0NIXTIpW0NAQEhdKFtDQEBIXTFbQ0BAXTIzW09IXSlDKFtDSDNdKShbQ0gzXSlbQ0BIXTNDI04=

>  <s_epik_cmdline>  (350) 
J2VwaWtfcHl0aG9uJywgJy1waHQnLCAnMi4wJywgJy1waCcsICc3LjAnLCAnLXRuJywgJzgnLCAnLW1hJywgJzIwMCcsICctaW1hZScsICc8aW5maWxlLm1hZT4nLCAnLW9tYWUnLCAnPG91dGZpbGUubWFlPic=

>  <r_epik_Ionization_Penalty>  (350) 
1.09379

>  <r_epik_Ionization_Penalty_Charging>  (350) 
0

>  <r_epik_Ionization_Penalty_Neutral>  (350) 
1.09379

>  <r_epik_State_Penalty>  (350) 
1.15032

>  <r_epik_Charging_Adjusted_Penalty>  (350) 
1.15032

>  <i_epik_Tot_Q>  (350) 
0

>  <i_epik_Tot_abs_Q>  (350) 
0

>  <s_lp_Force_Field>  (350) 
OPLS3e

>  <r_lp_Energy>  (350) 
46.7259

>  <b_lp_Chiralities_Consistent>  (350) 
1

>  <s_lp_Variant>  (350) 
90:0-2

>  <s_i_glide_gridfile>  (350) 
pfpi4k_grid

>  <i_i_glide_lignum>  (350) 
6

>  <i_i_glide_rotatable_bonds>  (350) 
2

>  <r_i_docking_score>  (350) 
-3.54893

>  <r_i_glide_ligand_efficiency>  (350) 
-0.236595

>  <r_i_glide_ligand_efficiency_sa>  (350) 
-0.583494

>  <r_i_glide_ligand_efficiency_ln>  (350) 
-0.957087

>  <r_i_glide_gscore>  (350) 
-3.54893

>  <r_i_glide_lipo>  (350) 
-0.150901

>  <r_i_glide_hbond>  (350) 
-0.32

>  <r_i_glide_metal>  (350) 
-0

>  <r_i_glide_rewards>  (350) 
-2.01635

>  <r_i_glide_evdw>  (350) 
-11.4884

>  <r_i_glide_ecoul>  (350) 
-3.19652

>  <r_i_glide_erotb>  (350) 
0

>  <r_i_glide_esite>  (350) 
-0.00777288

>  <r_i_glide_emodel>  (350) 
-18.4045

>  <r_i_glide_energy>  (350) 
-14.685

>  <r_i_glide_einternal>  (350) 
1.04801

>  <r_i_glide_intrahb_reward>  (350) 
-0

>  <i_i_glide_confnum>  (350) 
1

>  <i_i_glide_posenum>  (350) 
21

>  <r_i_glide_eff_state_penalty>  (350) 
0

>  <ligand_id>  (350) 
90

>  <original_smiles>  (350) 
CN1C2C=CC3(O)C1C2C(C)(C)C3C#N

>  <smiles>  (350) 
[H]OC12C([H])=C([H])C3([H])N(C([H])([H])[H])C1([H])C3([H])C(C([H])([H])[H])(C([H])([H])[H])C2([H])C#N

$$$$
91:0:0
     RDKit          3D

 83 87  0  0  1  0  0  0  0  0999 V2000
    1.0496    2.0251    4.2915 C   0  0  0  0  0  0  0  0  0  0  0  0
    1.4909    0.7936    3.4769 C   0  0  0  0  0  0  0  0  0  0  0  0
    0.2289    0.1810    2.8269 C   0  0  0  0  0  0  0  0  0  0  0  0
    2.4933    1.2423    2.3971 C   0  0  0  0  0  0  0  0  0  0  0  0
    3.1432    0.0557    1.6656 C   0  0  0  0  0  0  0  0  0  0  0  0
    3.8300   -0.9537    2.6206 C   0  0  2  0  0  0  0  0  0  0  0  0
    5.0961   -0.2776    3.2167 C   0  0  0  0  0  0  0  0  0  0  0  0
    4.2399   -2.1873    1.8046 C   0  0  0  0  0  0  0  0  0  0  0  0
    4.8857   -3.2980    2.6563 C   0  0  0  0  0  0  0  0  0  0  0  0
    4.1189   -3.7666    3.9447 C   0  0  1  0  0  0  0  0  0  0  0  0
    5.2628   -4.2216    4.9035 C   0  0  0  0  0  0  0  0  0  0  0  0
    3.4419   -2.5194    4.6511 C   0  0  2  0  0  0  0  0  0  0  0  0
    2.5390   -2.9804    5.8175 C   0  0  0  0  0  0  0  0  0  0  0  0
    1.5127   -4.0339    5.4009 C   0  0  0  0  0  0  0  0  0  0  0  0
    2.2192   -5.3248    4.9156 C   0  0  1  0  0  0  0  0  0  0  0  0
    1.2836   -6.6188    4.8857 C   0  0  1  0  0  0  0  0  0  0  0  0
    1.1162   -7.0408    6.3763 C   0  0  0  0  0  0  0  0  0  0  0  0
   -0.1364   -6.2556    4.3560 C   0  0  0  0  0  0  0  0  0  0  0  0
   -1.0643   -7.4375    4.0578 C   0  0  0  0  0  0  0  0  0  0  0  0
   -0.4219   -8.4345    3.0967 C   0  0  1  0  0  0  0  0  0  0  0  0
   -0.3120   -7.8145    1.8230 O   0  0  0  0  0  0  0  0  0  0  0  0
    0.9303   -8.9965    3.6270 C   0  0  0  0  0  0  0  0  0  0  0  0
    0.6387   -9.9856    4.7866 C   0  0  0  0  0  0  0  0  0  0  0  0
    1.5374   -9.9007    2.5202 C   0  0  0  0  0  0  0  0  0  0  0  0
    1.9287   -7.8544    4.1105 C   0  0  1  0  0  0  0  0  0  0  0  0
    2.9814   -7.4939    3.0290 C   0  0  0  0  0  0  0  0  0  0  0  0
    3.8867   -6.3157    3.3944 C   0  0  0  0  0  0  0  0  0  0  0  0
    3.1122   -5.0006    3.6601 C   0  0  2  0  0  0  0  0  0  0  0  0
    2.2438   -4.7188    2.4033 C   0  0  0  0  0  0  0  0  0  0  0  0
    2.8136   -1.4393    3.7000 C   0  0  1  0  0  0  0  0  0  0  0  0
    2.1804   -0.2175    4.4249 C   0  0  0  0  0  0  0  0  0  0  0  0
    0.5672    2.7698    3.6537 H   0  0  0  0  0  0  0  0  0  0  0  0
    1.9018    2.5094    4.7735 H   0  0  0  0  0  0  0  0  0  0  0  0
    0.3393    1.7504    5.0740 H   0  0  0  0  0  0  0  0  0  0  0  0
    0.4647   -0.6709    2.1930 H   0  0  0  0  0  0  0  0  0  0  0  0
   -0.2819    0.9095    2.1944 H   0  0  0  0  0  0  0  0  0  0  0  0
   -0.4818   -0.1600    3.5801 H   0  0  0  0  0  0  0  0  0  0  0  0
    1.9971    1.8943    1.6760 H   0  0  0  0  0  0  0  0  0  0  0  0
    3.2677    1.8551    2.8537 H   0  0  0  0  0  0  0  0  0  0  0  0
    2.3849   -0.4467    1.0647 H   0  0  0  0  0  0  0  0  0  0  0  0
    3.8632    0.4398    0.9441 H   0  0  0  0  0  0  0  0  0  0  0  0
    5.6668   -0.9327    3.8709 H   0  0  0  0  0  0  0  0  0  0  0  0
    4.8602    0.6070    3.8054 H   0  0  0  0  0  0  0  0  0  0  0  0
    5.7765    0.0369    2.4264 H   0  0  0  0  0  0  0  0  0  0  0  0
    3.3714   -2.5700    1.2760 H   0  0  0  0  0  0  0  0  0  0  0  0
    4.9327   -1.8963    1.0151 H   0  0  0  0  0  0  0  0  0  0  0  0
    5.1084   -4.1430    2.0088 H   0  0  0  0  0  0  0  0  0  0  0  0
    5.8702   -2.9236    2.9360 H   0  0  0  0  0  0  0  0  0  0  0  0
    4.9048   -4.6627    5.8302 H   0  0  0  0  0  0  0  0  0  0  0  0
    5.9011   -3.3843    5.1895 H   0  0  0  0  0  0  0  0  0  0  0  0
    5.9311   -4.9426    4.4323 H   0  0  0  0  0  0  0  0  0  0  0  0
    4.2320   -1.9674    5.1598 H   0  0  0  0  0  0  0  0  0  0  0  0
    3.1666   -3.4000    6.6051 H   0  0  0  0  0  0  0  0  0  0  0  0
    2.0385   -2.1468    6.3016 H   0  0  0  0  0  0  0  0  0  0  0  0
    0.8829   -4.2275    6.2673 H   0  0  0  0  0  0  0  0  0  0  0  0
    0.8453   -3.6278    4.6408 H   0  0  0  0  0  0  0  0  0  0  0  0
    2.9352   -5.5622    5.7041 H   0  0  0  0  0  0  0  0  0  0  0  0
    0.3524   -7.7942    6.5293 H   0  0  0  0  0  0  0  0  0  0  0  0
    0.8262   -6.2157    7.0211 H   0  0  0  0  0  0  0  0  0  0  0  0
    2.0446   -7.4350    6.7909 H   0  0  0  0  0  0  0  0  0  0  0  0
   -0.6387   -5.6214    5.0813 H   0  0  0  0  0  0  0  0  0  0  0  0
   -0.0728   -5.6535    3.4620 H   0  0  0  0  0  0  0  0  0  0  0  0
   -1.3508   -7.9353    4.9797 H   0  0  0  0  0  0  0  0  0  0  0  0
   -1.9997   -7.0691    3.6403 H   0  0  0  0  0  0  0  0  0  0  0  0
   -1.1190   -9.2646    2.9672 H   0  0  0  0  0  0  0  0  0  0  0  0
   -0.1582   -8.4968    1.1765 H   0  0  0  0  0  0  0  0  0  0  0  0
    1.5500  -10.3098    5.2893 H   0  0  0  0  0  0  0  0  0  0  0  0
    0.1519  -10.8896    4.4196 H   0  0  0  0  0  0  0  0  0  0  0  0
   -0.0308   -9.5926    5.5439 H   0  0  0  0  0  0  0  0  0  0  0  0
    2.4512  -10.3926    2.8564 H   0  0  0  0  0  0  0  0  0  0  0  0
    1.7667   -9.3688    1.5978 H   0  0  0  0  0  0  0  0  0  0  0  0
    0.8321  -10.6846    2.2417 H   0  0  0  0  0  0  0  0  0  0  0  0
    2.5726   -8.3425    4.8418 H   0  0  0  0  0  0  0  0  0  0  0  0
    3.6441   -8.3488    2.8946 H   0  0  0  0  0  0  0  0  0  0  0  0
    2.5185   -7.3417    2.0575 H   0  0  0  0  0  0  0  0  0  0  0  0
    4.4463   -6.6156    4.2788 H   0  0  0  0  0  0  0  0  0  0  0  0
    4.6263   -6.1873    2.6086 H   0  0  0  0  0  0  0  0  0  0  0  0
    1.5340   -5.5045    2.1847 H   0  0  0  0  0  0  0  0  0  0  0  0
    2.8547   -4.6595    1.5069 H   0  0  0  0  0  0  0  0  0  0  0  0
    1.6483   -3.8188    2.4818 H   0  0  0  0  0  0  0  0  0  0  0  0
    1.9904   -1.9198    3.1857 H   0  0  0  0  0  0  0  0  0  0  0  0
    2.9448    0.2931    5.0080 H   0  0  0  0  0  0  0  0  0  0  0  0
    1.4269   -0.5362    5.1405 H   0  0  0  0  0  0  0  0  0  0  0  0
  1  2  1  0
  1 32  1  0
  1 33  1  0
  1 34  1  0
  2 31  1  0
  2  3  1  0
  2  4  1  0
  3 35  1  0
  3 36  1  0
  3 37  1  0
  4  5  1  0
  4 38  1  0
  4 39  1  0
  5  6  1  0
  5 40  1  0
  5 41  1  0
  6 30  1  0
  6  7  1  1
  6  8  1  0
  7 42  1  0
  7 43  1  0
  7 44  1  0
  8  9  1  0
  8 45  1  0
  8 46  1  0
  9 10  1  0
  9 47  1  0
  9 48  1  0
 10 28  1  0
 10 11  1  1
 10 12  1  0
 11 49  1  0
 11 50  1  0
 11 51  1  0
 12 13  1  0
 12 30  1  0
 12 52  1  1
 13 14  1  0
 13 53  1  0
 13 54  1  0
 14 15  1  0
 14 55  1  0
 14 56  1  0
 15 28  1  0
 15 16  1  0
 15 57  1  1
 16 25  1  0
 16 17  1  1
 16 18  1  0
 17 58  1  0
 17 59  1  0
 17 60  1  0
 18 19  1  0
 18 61  1  0
 18 62  1  0
 19 20  1  0
 19 63  1  0
 19 64  1  0
 20 21  1  0
 20 22  1  0
 20 65  1  6
 21 66  1  0
 22 23  1  0
 22 24  1  0
 22 25  1  0
 23 67  1  0
 23 68  1  0
 23 69  1  0
 24 70  1  0
 24 71  1  0
 24 72  1  0
 25 26  1  0
 25 73  1  1
 26 27  1  0
 26 74  1  0
 26 75  1  0
 27 28  1  0
 27 76  1  0
 27 77  1  0
 28 29  1  6
 29 78  1  0
 29 79  1  0
 29 80  1  0
 30 31  1  0
 30 81  1  6
 31 82  1  0
 31 83  1  0
M  END
>  <i_m_ct_stereo_status>  (351) 
1

>  <s_m_source_file>  (351) 
/var/tmp/pbs.5076255.sched01/tmpsabrbf27/138opeauupd.sdf

>  <i_m_source_file_index>  (351) 
7

>  <i_lp_mmshare_version>  (351) 
48012

>  <i_f3d_flags>  (351) 
0

>  <s_epik_input>  (351) 
W0NIMl0xW0NIMl1DKFtDSDNdKShbQ0gzXSlbQ0gyXVtDQEBIXShbQ0BdMTJbQ0gzXSlbQ0BASF0zW0NAXShbQ0gzXSkoW0NIMl1bQ0gyXTIpW0NAXTQoW0NIM10pW0NAQEhdKFtDSDJdW0NIMl0zKVtDQF01KFtDSDNdKVtDQEhdKFtDSDJdW0NIMl00KUMoW0NIM10pKFtDSDNdKVtDQEhdKFtPSF0pW0NIMl1bQ0gyXTU=

>  <s_epik_cmdline>  (351) 
J2VwaWtfcHl0aG9uJywgJy1waHQnLCAnMi4wJywgJy1waCcsICc3LjAnLCAnLXRuJywgJzgnLCAnLW1hJywgJzIwMCcsICctaW1hZScsICc8aW5maWxlLm1hZT4nLCAnLW9tYWUnLCAnPG91dGZpbGUubWFlPic=

>  <r_lp_tautomer_probability>  (351) 
1

>  <r_epik_Ionization_Penalty>  (351) 
3.18671e-06

>  <r_epik_Ionization_Penalty_Charging>  (351) 
0

>  <r_epik_Ionization_Penalty_Neutral>  (351) 
3.18671e-06

>  <r_epik_State_Penalty>  (351) 
-0

>  <r_epik_Charging_Adjusted_Penalty>  (351) 
0

>  <i_epik_Tot_Q>  (351) 
0

>  <i_epik_Tot_abs_Q>  (351) 
0

>  <s_lp_Force_Field>  (351) 
OPLS3e

>  <r_lp_Energy>  (351) 
113.805

>  <b_lp_Chiralities_Consistent>  (351) 
1

>  <s_lp_Variant>  (351) 
91:0-1

>  <s_i_glide_gridfile>  (351) 
pfpi4k_grid

>  <i_i_glide_lignum>  (351) 
7

>  <i_i_glide_rotatable_bonds>  (351) 
1

>  <r_i_docking_score>  (351) 
-3.2699

>  <r_i_glide_ligand_efficiency>  (351) 
-0.105481

>  <r_i_glide_ligand_efficiency_sa>  (351) 
-0.331355

>  <r_i_glide_ligand_efficiency_ln>  (351) 
-0.737463

>  <r_i_glide_gscore>  (351) 
-3.2699

>  <r_i_glide_lipo>  (351) 
-0.345066

>  <r_i_glide_hbond>  (351) 
-0.32

>  <r_i_glide_metal>  (351) 
-0

>  <r_i_glide_rewards>  (351) 
-0.485909

>  <r_i_glide_evdw>  (351) 
-30.1237

>  <r_i_glide_ecoul>  (351) 
-4.08492

>  <r_i_glide_erotb>  (351) 
0

>  <r_i_glide_esite>  (351) 
0

>  <r_i_glide_emodel>  (351) 
-41.0353

>  <r_i_glide_energy>  (351) 
-34.2087

>  <r_i_glide_einternal>  (351) 
0.43768

>  <r_i_glide_intrahb_reward>  (351) 
-0

>  <i_i_glide_confnum>  (351) 
2

>  <i_i_glide_posenum>  (351) 
21

>  <r_i_glide_eff_state_penalty>  (351) 
0

>  <ligand_id>  (351) 
91

>  <original_smiles>  (351) 
CC1(C)CCC2(C)CCC3(C)C(CCC4C5(C)CCC(O)C(C)(C)C5CCC43C)C2C1

>  <smiles>  (351) 
[H]OC1([H])C([H])([H])C([H])([H])C2(C([H])([H])[H])C([H])(C([H])([H])C([H])([H])C3(C([H])([H])[H])C2([H])C([H])([H])C([H])([H])C2([H])C4([H])C([H])([H])C(C([H])([H])[H])(C([H])([H])[H])C([H])([H])C([H])([H])C4(C([H])([H])[H])C([H])([H])C([H])([H])C23C([H])([H])[H])C1(C([H])([H])[H])C([H])([H])[H]

$$$$
91:0:1
     RDKit          3D

 83 87  0  0  1  0  0  0  0  0999 V2000
    0.4749    5.5061    3.8233 C   0  0  0  0  0  0  0  0  0  0  0  0
    1.6811    4.5741    4.0535 C   0  0  0  0  0  0  0  0  0  0  0  0
    2.6504    4.7475    2.8631 C   0  0  0  0  0  0  0  0  0  0  0  0
    2.3750    4.9660    5.3725 C   0  0  0  0  0  0  0  0  0  0  0  0
    3.4667    3.9629    5.7810 C   0  0  0  0  0  0  0  0  0  0  0  0
    2.9534    2.5046    5.8822 C   0  0  2  0  0  0  0  0  0  0  0  0
    2.0124    2.4052    7.1142 C   0  0  0  0  0  0  0  0  0  0  0  0
    4.1615    1.5800    6.0824 C   0  0  0  0  0  0  0  0  0  0  0  0
    3.7882    0.0855    6.1434 C   0  0  0  0  0  0  0  0  0  0  0  0
    2.8908   -0.4859    4.9865 C   0  0  1  0  0  0  0  0  0  0  0  0
    2.1015   -1.6393    5.6771 C   0  0  0  0  0  0  0  0  0  0  0  0
    1.8007    0.5887    4.5688 C   0  0  2  0  0  0  0  0  0  0  0  0
    1.0255    0.1169    3.3170 C   0  0  0  0  0  0  0  0  0  0  0  0
    1.9450   -0.2544    2.1536 C   0  0  0  0  0  0  0  0  0  0  0  0
    2.8517   -1.4563    2.5304 C   0  0  1  0  0  0  0  0  0  0  0  0
    3.5263   -2.1959    1.2879 C   0  0  1  0  0  0  0  0  0  0  0  0
    2.4067   -3.0474    0.6582 C   0  0  0  0  0  0  0  0  0  0  0  0
    3.9788   -1.1630    0.2083 C   0  0  0  0  0  0  0  0  0  0  0  0
    4.8097   -1.7322   -0.9398 C   0  0  0  0  0  0  0  0  0  0  0  0
    6.0276   -2.4994   -0.4270 C   0  0  1  0  0  0  0  0  0  0  0  0
    6.9040   -1.5593    0.1669 O   0  0  0  0  0  0  0  0  0  0  0  0
    5.6561   -3.6728    0.5295 C   0  0  0  0  0  0  0  0  0  0  0  0
    5.0312   -4.8139   -0.3079 C   0  0  0  0  0  0  0  0  0  0  0  0
    6.9748   -4.2919    1.0726 C   0  0  0  0  0  0  0  0  0  0  0  0
    4.6608   -3.2327    1.6868 C   0  0  1  0  0  0  0  0  0  0  0  0
    5.3711   -2.9378    3.0218 C   0  0  0  0  0  0  0  0  0  0  0  0
    4.4677   -2.3955    4.1295 C   0  0  0  0  0  0  0  0  0  0  0  0
    3.7591   -1.0719    3.7554 C   0  0  2  0  0  0  0  0  0  0  0  0
    4.8613   -0.0637    3.3424 C   0  0  0  0  0  0  0  0  0  0  0  0
    2.2750    2.0858    4.5398 C   0  0  1  0  0  0  0  0  0  0  0  0
    1.1748    3.1137    4.1535 C   0  0  0  0  0  0  0  0  0  0  0  0
    0.7872    6.5502    3.7477 H   0  0  0  0  0  0  0  0  0  0  0  0
   -0.2461    5.4335    4.6405 H   0  0  0  0  0  0  0  0  0  0  0  0
   -0.0454    5.2580    2.8949 H   0  0  0  0  0  0  0  0  0  0  0  0
    3.5524    4.1490    2.9646 H   0  0  0  0  0  0  0  0  0  0  0  0
    2.9634    5.7868    2.7575 H   0  0  0  0  0  0  0  0  0  0  0  0
    2.1893    4.4519    1.9201 H   0  0  0  0  0  0  0  0  0  0  0  0
    2.8079    5.9640    5.2823 H   0  0  0  0  0  0  0  0  0  0  0  0
    1.6343    5.0425    6.1665 H   0  0  0  0  0  0  0  0  0  0  0  0
    4.2888    4.0246    5.0690 H   0  0  0  0  0  0  0  0  0  0  0  0
    3.8934    4.2755    6.7327 H   0  0  0  0  0  0  0  0  0  0  0  0
    1.6396    1.3985    7.2894 H   0  0  0  0  0  0  0  0  0  0  0  0
    1.1344    3.0420    7.0225 H   0  0  0  0  0  0  0  0  0  0  0  0
    2.5310    2.7067    8.0241 H   0  0  0  0  0  0  0  0  0  0  0  0
    4.8817    1.7584    5.2896 H   0  0  0  0  0  0  0  0  0  0  0  0
    4.6898    1.8522    6.9961 H   0  0  0  0  0  0  0  0  0  0  0  0
    4.7054   -0.4911    6.2402 H   0  0  0  0  0  0  0  0  0  0  0  0
    3.2886   -0.0644    7.1023 H   0  0  0  0  0  0  0  0  0  0  0  0
    1.4816   -2.2100    4.9905 H   0  0  0  0  0  0  0  0  0  0  0  0
    1.4365   -1.2590    6.4542 H   0  0  0  0  0  0  0  0  0  0  0  0
    2.7648   -2.3396    6.1845 H   0  0  0  0  0  0  0  0  0  0  0  0
    1.0346    0.5900    5.3438 H   0  0  0  0  0  0  0  0  0  0  0  0
    0.4241   -0.7544    3.5794 H   0  0  0  0  0  0  0  0  0  0  0  0
    0.2942    0.8499    2.9879 H   0  0  0  0  0  0  0  0  0  0  0  0
    1.3059   -0.4872    1.3039 H   0  0  0  0  0  0  0  0  0  0  0  0
    2.5255    0.6146    1.8412 H   0  0  0  0  0  0  0  0  0  0  0  0
    2.1636   -2.2058    2.9242 H   0  0  0  0  0  0  0  0  0  0  0  0
    2.6234   -3.4385   -0.3266 H   0  0  0  0  0  0  0  0  0  0  0  0
    1.5209   -2.4500    0.5136 H   0  0  0  0  0  0  0  0  0  0  0  0
    2.1138   -3.8839    1.2944 H   0  0  0  0  0  0  0  0  0  0  0  0
    3.0983   -0.7013   -0.2355 H   0  0  0  0  0  0  0  0  0  0  0  0
    4.5206   -0.3301    0.6411 H   0  0  0  0  0  0  0  0  0  0  0  0
    4.1928   -2.3702   -1.5684 H   0  0  0  0  0  0  0  0  0  0  0  0
    5.1243   -0.9212   -1.5941 H   0  0  0  0  0  0  0  0  0  0  0  0
    6.5629   -2.9056   -1.2858 H   0  0  0  0  0  0  0  0  0  0  0  0
    6.4870   -1.2183    0.9465 H   0  0  0  0  0  0  0  0  0  0  0  0
    4.6300   -5.6110    0.3172 H   0  0  0  0  0  0  0  0  0  0  0  0
    5.7829   -5.2646   -0.9469 H   0  0  0  0  0  0  0  0  0  0  0  0
    4.2468   -4.4971   -0.9853 H   0  0  0  0  0  0  0  0  0  0  0  0
    6.7822   -5.1648    1.6973 H   0  0  0  0  0  0  0  0  0  0  0  0
    7.5634   -3.5862    1.6564 H   0  0  0  0  0  0  0  0  0  0  0  0
    7.6207   -4.6142    0.2548 H   0  0  0  0  0  0  0  0  0  0  0  0
    4.1407   -4.1505    1.9663 H   0  0  0  0  0  0  0  0  0  0  0  0
    5.7983   -3.8652    3.4050 H   0  0  0  0  0  0  0  0  0  0  0  0
    6.2136   -2.2732    2.8547 H   0  0  0  0  0  0  0  0  0  0  0  0
    3.7352   -3.1724    4.3495 H   0  0  0  0  0  0  0  0  0  0  0  0
    5.0565   -2.2813    5.0346 H   0  0  0  0  0  0  0  0  0  0  0  0
    5.4472   -0.3765    2.4900 H   0  0  0  0  0  0  0  0  0  0  0  0
    5.5933    0.0780    4.1326 H   0  0  0  0  0  0  0  0  0  0  0  0
    4.4582    0.8976    3.0591 H   0  0  0  0  0  0  0  0  0  0  0  0
    3.0168    2.1633    3.7548 H   0  0  0  0  0  0  0  0  0  0  0  0
    0.3578    3.0575    4.8710 H   0  0  0  0  0  0  0  0  0  0  0  0
    0.7360    2.8733    3.1879 H   0  0  0  0  0  0  0  0  0  0  0  0
  1  2  1  0
  1 32  1  0
  1 33  1  0
  1 34  1  0
  2 31  1  0
  2  3  1  0
  2  4  1  0
  3 35  1  0
  3 36  1  0
  3 37  1  0
  4  5  1  0
  4 38  1  0
  4 39  1  0
  5  6  1  0
  5 40  1  0
  5 41  1  0
  6 30  1  0
  6  7  1  1
  6  8  1  0
  7 42  1  0
  7 43  1  0
  7 44  1  0
  8  9  1  0
  8 45  1  0
  8 46  1  0
  9 10  1  0
  9 47  1  0
  9 48  1  0
 10 28  1  0
 10 11  1  1
 10 12  1  0
 11 49  1  0
 11 50  1  0
 11 51  1  0
 12 13  1  0
 12 30  1  0
 12 52  1  1
 13 14  1  0
 13 53  1  0
 13 54  1  0
 14 15  1  0
 14 55  1  0
 14 56  1  0
 15 28  1  0
 15 16  1  0
 15 57  1  1
 16 25  1  0
 16 17  1  6
 16 18  1  0
 17 58  1  0
 17 59  1  0
 17 60  1  0
 18 19  1  0
 18 61  1  0
 18 62  1  0
 19 20  1  0
 19 63  1  0
 19 64  1  0
 20 21  1  0
 20 22  1  0
 20 65  1  6
 21 66  1  0
 22 23  1  0
 22 24  1  0
 22 25  1  0
 23 67  1  0
 23 68  1  0
 23 69  1  0
 24 70  1  0
 24 71  1  0
 24 72  1  0
 25 26  1  0
 25 73  1  1
 26 27  1  0
 26 74  1  0
 26 75  1  0
 27 28  1  0
 27 76  1  0
 27 77  1  0
 28 29  1  6
 29 78  1  0
 29 79  1  0
 29 80  1  0
 30 31  1  0
 30 81  1  6
 31 82  1  0
 31 83  1  0
M  END
>  <i_m_ct_stereo_status>  (352) 
1

>  <s_m_source_file>  (352) 
/var/tmp/pbs.5076255.sched01/tmpsabrbf27/138opeauupd.sdf

>  <i_m_source_file_index>  (352) 
7

>  <i_lp_mmshare_version>  (352) 
48012

>  <i_f3d_flags>  (352) 
0

>  <s_epik_input>  (352) 
W0NIMl0xW0NIMl1DKFtDSDNdKShbQ0gzXSlbQ0gyXVtDQEBIXShbQ0BdMTJbQ0gzXSlbQ0BASF0zW0NAXShbQ0gzXSkoW0NIMl1bQ0gyXTIpW0NAXTQoW0NIM10pW0NAQEhdKFtDSDJdW0NIMl0zKVtDQF01KFtDSDNdKVtDQEhdKFtDSDJdW0NIMl00KUMoW0NIM10pKFtDSDNdKVtDQEhdKFtPSF0pW0NIMl1bQ0gyXTU=

>  <s_epik_cmdline>  (352) 
J2VwaWtfcHl0aG9uJywgJy1waHQnLCAnMi4wJywgJy1waCcsICc3LjAnLCAnLXRuJywgJzgnLCAnLW1hJywgJzIwMCcsICctaW1hZScsICc8aW5maWxlLm1hZT4nLCAnLW9tYWUnLCAnPG91dGZpbGUubWFlPic=

>  <r_lp_tautomer_probability>  (352) 
1

>  <r_epik_Ionization_Penalty>  (352) 
3.18671e-06

>  <r_epik_Ionization_Penalty_Charging>  (352) 
0

>  <r_epik_Ionization_Penalty_Neutral>  (352) 
3.18671e-06

>  <r_epik_State_Penalty>  (352) 
-0

>  <r_epik_Charging_Adjusted_Penalty>  (352) 
0

>  <i_epik_Tot_Q>  (352) 
0

>  <i_epik_Tot_abs_Q>  (352) 
0

>  <s_lp_Force_Field>  (352) 
OPLS3e

>  <r_lp_Energy>  (352) 
113.805

>  <b_lp_Chiralities_Consistent>  (352) 
1

>  <s_lp_Variant>  (352) 
91:0-1

>  <s_i_glide_gridfile>  (352) 
pfpi4k_grid

>  <i_i_glide_lignum>  (352) 
7

>  <i_i_glide_rotatable_bonds>  (352) 
1

>  <r_i_docking_score>  (352) 
-2.46598

>  <r_i_glide_ligand_efficiency>  (352) 
-0.0795479

>  <r_i_glide_ligand_efficiency_sa>  (352) 
-0.24989

>  <r_i_glide_ligand_efficiency_ln>  (352) 
-0.556155

>  <r_i_glide_gscore>  (352) 
-2.46598

>  <r_i_glide_lipo>  (352) 
-0.359289

>  <r_i_glide_hbond>  (352) 
-0.0515237

>  <r_i_glide_metal>  (352) 
-0

>  <r_i_glide_rewards>  (352) 
-0.485909

>  <r_i_glide_evdw>  (352) 
-24.5938

>  <r_i_glide_ecoul>  (352) 
-2.2638

>  <r_i_glide_erotb>  (352) 
0

>  <r_i_glide_esite>  (352) 
0

>  <r_i_glide_emodel>  (352) 
-32.012

>  <r_i_glide_energy>  (352) 
-26.8576

>  <r_i_glide_einternal>  (352) 
0.00374313

>  <r_i_glide_intrahb_reward>  (352) 
-0

>  <i_i_glide_confnum>  (352) 
2

>  <i_i_glide_posenum>  (352) 
18

>  <r_i_glide_eff_state_penalty>  (352) 
0

>  <ligand_id>  (352) 
91

>  <original_smiles>  (352) 
CC1(C)CCC2(C)CCC3(C)C(CCC4C5(C)CCC(O)C(C)(C)C5CCC43C)C2C1

>  <smiles>  (352) 
[H]OC1([H])C([H])([H])C([H])([H])C2(C([H])([H])[H])C([H])(C([H])([H])C([H])([H])C3(C([H])([H])[H])C2([H])C([H])([H])C([H])([H])C2([H])C4([H])C([H])([H])C(C([H])([H])[H])(C([H])([H])[H])C([H])([H])C([H])([H])C4(C([H])([H])[H])C([H])([H])C([H])([H])C23C([H])([H])[H])C1(C([H])([H])[H])C([H])([H])[H]

$$$$
91:0:2
     RDKit          3D

 83 87  0  0  1  0  0  0  0  0999 V2000
    2.1295    0.2226    1.7864 C   0  0  0  0  0  0  0  0  0  0  0  0
    2.9444   -0.9280    2.4050 C   0  0  0  0  0  0  0  0  0  0  0  0
    3.3627   -1.8819    1.2609 C   0  0  0  0  0  0  0  0  0  0  0  0
    4.1866   -0.3380    3.0975 C   0  0  0  0  0  0  0  0  0  0  0  0
    4.9535   -1.3842    3.9234 C   0  0  0  0  0  0  0  0  0  0  0  0
    4.0704   -2.1137    4.9679 C   0  0  2  0  0  0  0  0  0  0  0  0
    3.7078   -1.1014    6.0875 C   0  0  0  0  0  0  0  0  0  0  0  0
    4.8826   -3.2703    5.5651 C   0  0  0  0  0  0  0  0  0  0  0  0
    4.0920   -4.1160    6.5843 C   0  0  0  0  0  0  0  0  0  0  0  0
    2.6846   -4.6518    6.1425 C   0  0  1  0  0  0  0  0  0  0  0  0
    1.8937   -4.7326    7.4838 C   0  0  0  0  0  0  0  0  0  0  0  0
    1.9368   -3.5541    5.2779 C   0  0  2  0  0  0  0  0  0  0  0  0
    0.6276   -4.1277    4.6924 C   0  0  0  0  0  0  0  0  0  0  0  0
    0.8402   -5.4305    3.9226 C   0  0  0  0  0  0  0  0  0  0  0  0
    1.3675   -6.5431    4.8552 C   0  0  1  0  0  0  0  0  0  0  0  0
    1.1969   -8.0199    4.2780 C   0  0  1  0  0  0  0  0  0  0  0  0
   -0.3206   -8.3464    4.4281 C   0  0  0  0  0  0  0  0  0  0  0  0
    1.5229   -8.0533    2.7517 C   0  0  0  0  0  0  0  0  0  0  0  0
    1.6203   -9.4474    2.1305 C   0  0  0  0  0  0  0  0  0  0  0  0
    2.6170  -10.3350    2.8725 C   0  0  1  0  0  0  0  0  0  0  0  0
    3.9171   -9.8253    2.6452 O   0  0  0  0  0  0  0  0  0  0  0  0
    2.2693  -10.5073    4.3747 C   0  0  0  0  0  0  0  0  0  0  0  0
    1.0303  -11.4333    4.4873 C   0  0  0  0  0  0  0  0  0  0  0  0
    3.4082  -11.3352    5.0358 C   0  0  0  0  0  0  0  0  0  0  0  0
    1.9985   -9.1214    5.1072 C   0  0  1  0  0  0  0  0  0  0  0  0
    3.2443   -8.6059    5.8717 C   0  0  0  0  0  0  0  0  0  0  0  0
    3.0790   -7.2166    6.4891 C   0  0  0  0  0  0  0  0  0  0  0  0
    2.7583   -6.1130    5.4521 C   0  0  2  0  0  0  0  0  0  0  0  0
    3.8770   -6.1534    4.3754 C   0  0  0  0  0  0  0  0  0  0  0  0
    2.8257   -2.7434    4.2682 C   0  0  1  0  0  0  0  0  0  0  0  0
    2.0675   -1.6602    3.4490 C   0  0  0  0  0  0  0  0  0  0  0  0
    2.7148    0.7700    1.0455 H   0  0  0  0  0  0  0  0  0  0  0  0
    1.8069    0.9411    2.5443 H   0  0  0  0  0  0  0  0  0  0  0  0
    1.2361   -0.1479    1.2800 H   0  0  0  0  0  0  0  0  0  0  0  0
    3.9820   -2.7075    1.6045 H   0  0  0  0  0  0  0  0  0  0  0  0
    3.9337   -1.3530    0.4961 H   0  0  0  0  0  0  0  0  0  0  0  0
    2.4900   -2.3154    0.7700 H   0  0  0  0  0  0  0  0  0  0  0  0
    4.8536    0.1076    2.3584 H   0  0  0  0  0  0  0  0  0  0  0  0
    3.8855    0.4845    3.7471 H   0  0  0  0  0  0  0  0  0  0  0  0
    5.4082   -2.1070    3.2464 H   0  0  0  0  0  0  0  0  0  0  0  0
    5.7903   -0.8935    4.4185 H   0  0  0  0  0  0  0  0  0  0  0  0
    3.1243   -1.5422    6.8926 H   0  0  0  0  0  0  0  0  0  0  0  0
    3.1276   -0.2584    5.7186 H   0  0  0  0  0  0  0  0  0  0  0  0
    4.6071   -0.6922    6.5479 H   0  0  0  0  0  0  0  0  0  0  0  0
    5.2528   -3.8979    4.7592 H   0  0  0  0  0  0  0  0  0  0  0  0
    5.7833   -2.8838    6.0429 H   0  0  0  0  0  0  0  0  0  0  0  0
    4.7302   -4.9313    6.9148 H   0  0  0  0  0  0  0  0  0  0  0  0
    3.9877   -3.4958    7.4761 H   0  0  0  0  0  0  0  0  0  0  0  0
    0.9045   -5.1708    7.3801 H   0  0  0  0  0  0  0  0  0  0  0  0
    1.7487   -3.7454    7.9250 H   0  0  0  0  0  0  0  0  0  0  0  0
    2.4287   -5.3072    8.2399 H   0  0  0  0  0  0  0  0  0  0  0  0
    1.5794   -2.7847    5.9610 H   0  0  0  0  0  0  0  0  0  0  0  0
   -0.0738   -4.3153    5.5073 H   0  0  0  0  0  0  0  0  0  0  0  0
    0.1133   -3.4040    4.0682 H   0  0  0  0  0  0  0  0  0  0  0  0
   -0.1156   -5.7136    3.4928 H   0  0  0  0  0  0  0  0  0  0  0  0
    1.5041   -5.2633    3.0759 H   0  0  0  0  0  0  0  0  0  0  0  0
    0.6892   -6.5358    5.7101 H   0  0  0  0  0  0  0  0  0  0  0  0
   -0.6232   -9.2490    3.9108 H   0  0  0  0  0  0  0  0  0  0  0  0
   -0.9703   -7.5722    4.0311 H   0  0  0  0  0  0  0  0  0  0  0  0
   -0.6041   -8.4725    5.4730 H   0  0  0  0  0  0  0  0  0  0  0  0
    0.7560   -7.5145    2.1995 H   0  0  0  0  0  0  0  0  0  0  0  0
    2.4411   -7.5287    2.5194 H   0  0  0  0  0  0  0  0  0  0  0  0
    0.6356   -9.9133    2.1017 H   0  0  0  0  0  0  0  0  0  0  0  0
    1.9140   -9.3611    1.0872 H   0  0  0  0  0  0  0  0  0  0  0  0
    2.6149  -11.3273    2.4196 H   0  0  0  0  0  0  0  0  0  0  0  0
    4.2107  -10.1782    1.8176 H   0  0  0  0  0  0  0  0  0  0  0  0
    0.6571  -11.4754    5.5106 H   0  0  0  0  0  0  0  0  0  0  0  0
    1.2738  -12.4558    4.2029 H   0  0  0  0  0  0  0  0  0  0  0  0
    0.2035  -11.1501    3.8494 H   0  0  0  0  0  0  0  0  0  0  0  0
    3.1963  -11.5515    6.0839 H   0  0  0  0  0  0  0  0  0  0  0  0
    4.3790  -10.8427    4.9824 H   0  0  0  0  0  0  0  0  0  0  0  0
    3.5380  -12.2945    4.5313 H   0  0  0  0  0  0  0  0  0  0  0  0
    1.3526   -9.3750    5.9487 H   0  0  0  0  0  0  0  0  0  0  0  0
    3.4436   -9.2826    6.7018 H   0  0  0  0  0  0  0  0  0  0  0  0
    4.1354   -8.6537    5.2498 H   0  0  0  0  0  0  0  0  0  0  0  0
    2.2777   -7.2974    7.2224 H   0  0  0  0  0  0  0  0  0  0  0  0
    3.9750   -6.9765    7.0574 H   0  0  0  0  0  0  0  0  0  0  0  0
    3.9475   -7.1034    3.8624 H   0  0  0  0  0  0  0  0  0  0  0  0
    4.8600   -6.0235    4.8202 H   0  0  0  0  0  0  0  0  0  0  0  0
    3.7503   -5.4246    3.5861 H   0  0  0  0  0  0  0  0  0  0  0  0
    3.1826   -3.4524    3.5298 H   0  0  0  0  0  0  0  0  0  0  0  0
    1.6291   -0.9315    4.1306 H   0  0  0  0  0  0  0  0  0  0  0  0
    1.2321   -2.0931    2.9033 H   0  0  0  0  0  0  0  0  0  0  0  0
  1  2  1  0
  1 32  1  0
  1 33  1  0
  1 34  1  0
  2 31  1  0
  2  3  1  0
  2  4  1  0
  3 35  1  0
  3 36  1  0
  3 37  1  0
  4  5  1  0
  4 38  1  0
  4 39  1  0
  5  6  1  0
  5 40  1  0
  5 41  1  0
  6 30  1  0
  6  7  1  1
  6  8  1  0
  7 42  1  0
  7 43  1  0
  7 44  1  0
  8  9  1  0
  8 45  1  0
  8 46  1  0
  9 10  1  0
  9 47  1  0
  9 48  1  0
 10 28  1  0
 10 11  1  1
 10 12  1  0
 11 49  1  0
 11 50  1  0
 11 51  1  0
 12 13  1  0
 12 30  1  0
 12 52  1  1
 13 14  1  0
 13 53  1  0
 13 54  1  0
 14 15  1  0
 14 55  1  0
 14 56  1  0
 15 28  1  0
 15 16  1  0
 15 57  1  1
 16 25  1  0
 16 17  1  6
 16 18  1  0
 17 58  1  0
 17 59  1  0
 17 60  1  0
 18 19  1  0
 18 61  1  0
 18 62  1  0
 19 20  1  0
 19 63  1  0
 19 64  1  0
 20 21  1  0
 20 22  1  0
 20 65  1  6
 21 66  1  0
 22 23  1  0
 22 24  1  0
 22 25  1  0
 23 67  1  0
 23 68  1  0
 23 69  1  0
 24 70  1  0
 24 71  1  0
 24 72  1  0
 25 26  1  0
 25 73  1  1
 26 27  1  0
 26 74  1  0
 26 75  1  0
 27 28  1  0
 27 76  1  0
 27 77  1  0
 28 29  1  6
 29 78  1  0
 29 79  1  0
 29 80  1  0
 30 31  1  0
 30 81  1  6
 31 82  1  0
 31 83  1  0
M  END
>  <i_m_ct_stereo_status>  (353) 
1

>  <s_m_source_file>  (353) 
/var/tmp/pbs.5076255.sched01/tmpsabrbf27/138opeauupd.sdf

>  <i_m_source_file_index>  (353) 
7

>  <i_lp_mmshare_version>  (353) 
48012

>  <i_f3d_flags>  (353) 
0

>  <s_epik_input>  (353) 
W0NIMl0xW0NIMl1DKFtDSDNdKShbQ0gzXSlbQ0gyXVtDQEBIXShbQ0BdMTJbQ0gzXSlbQ0BASF0zW0NAXShbQ0gzXSkoW0NIMl1bQ0gyXTIpW0NAXTQoW0NIM10pW0NAQEhdKFtDSDJdW0NIMl0zKVtDQF01KFtDSDNdKVtDQEhdKFtDSDJdW0NIMl00KUMoW0NIM10pKFtDSDNdKVtDQEhdKFtPSF0pW0NIMl1bQ0gyXTU=

>  <s_epik_cmdline>  (353) 
J2VwaWtfcHl0aG9uJywgJy1waHQnLCAnMi4wJywgJy1waCcsICc3LjAnLCAnLXRuJywgJzgnLCAnLW1hJywgJzIwMCcsICctaW1hZScsICc8aW5maWxlLm1hZT4nLCAnLW9tYWUnLCAnPG91dGZpbGUubWFlPic=

>  <r_lp_tautomer_probability>  (353) 
1

>  <r_epik_Ionization_Penalty>  (353) 
3.18671e-06

>  <r_epik_Ionization_Penalty_Charging>  (353) 
0

>  <r_epik_Ionization_Penalty_Neutral>  (353) 
3.18671e-06

>  <r_epik_State_Penalty>  (353) 
-0

>  <r_epik_Charging_Adjusted_Penalty>  (353) 
0

>  <i_epik_Tot_Q>  (353) 
0

>  <i_epik_Tot_abs_Q>  (353) 
0

>  <s_lp_Force_Field>  (353) 
OPLS3e

>  <r_lp_Energy>  (353) 
113.805

>  <b_lp_Chiralities_Consistent>  (353) 
1

>  <s_lp_Variant>  (353) 
91:0-1

>  <s_i_glide_gridfile>  (353) 
pfpi4k_grid

>  <i_i_glide_lignum>  (353) 
7

>  <i_i_glide_rotatable_bonds>  (353) 
1

>  <r_i_docking_score>  (353) 
-2.27119

>  <r_i_glide_ligand_efficiency>  (353) 
-0.0732642

>  <r_i_glide_ligand_efficiency_sa>  (353) 
-0.230151

>  <r_i_glide_ligand_efficiency_ln>  (353) 
-0.512223

>  <r_i_glide_gscore>  (353) 
-2.27119

>  <r_i_glide_lipo>  (353) 
-0.244355

>  <r_i_glide_hbond>  (353) 
0

>  <r_i_glide_metal>  (353) 
-0

>  <r_i_glide_rewards>  (353) 
-0.485909

>  <r_i_glide_evdw>  (353) 
-26.0567

>  <r_i_glide_ecoul>  (353) 
-1.58726

>  <r_i_glide_erotb>  (353) 
0

>  <r_i_glide_esite>  (353) 
0

>  <r_i_glide_emodel>  (353) 
-31.7332

>  <r_i_glide_energy>  (353) 
-27.644

>  <r_i_glide_einternal>  (353) 
0.808605

>  <r_i_glide_intrahb_reward>  (353) 
-0

>  <i_i_glide_confnum>  (353) 
1

>  <i_i_glide_posenum>  (353) 
7

>  <r_i_glide_eff_state_penalty>  (353) 
0

>  <ligand_id>  (353) 
91

>  <original_smiles>  (353) 
CC1(C)CCC2(C)CCC3(C)C(CCC4C5(C)CCC(O)C(C)(C)C5CCC43C)C2C1

>  <smiles>  (353) 
[H]OC1([H])C([H])([H])C([H])([H])C2(C([H])([H])[H])C([H])(C([H])([H])C([H])([H])C3(C([H])([H])[H])C2([H])C([H])([H])C([H])([H])C2([H])C4([H])C([H])([H])C(C([H])([H])[H])(C([H])([H])[H])C([H])([H])C([H])([H])C4(C([H])([H])[H])C([H])([H])C([H])([H])C23C([H])([H])[H])C1(C([H])([H])[H])C([H])([H])[H]

$$$$
92:0:0
     RDKit          3D

 30 32  0  0  1  0  0  0  0  0999 V2000
    3.8132   -0.1383   -3.4718 C   0  0  0  0  0  0  0  0  0  0  0  0
    3.3634   -1.0342   -4.4395 C   0  0  0  0  0  0  0  0  0  0  0  0
    3.5003   -2.3676   -4.3192 N   0  0  0  0  0  0  0  0  0  0  0  0
    4.0587   -2.8557   -3.1923 C   0  0  0  0  0  0  0  0  0  0  0  0
    4.5707   -2.0438   -2.1451 C   0  0  0  0  0  0  0  0  0  0  0  0
    5.2355   -2.5807   -1.0099 N   0  0  0  0  0  0  0  0  0  0  0  0
    5.3752   -4.0410   -0.8783 C   0  0  0  0  0  0  0  0  0  0  0  0
    6.5244   -4.4223    0.0786 C   0  0  1  0  0  0  0  0  0  0  0  0
    7.8806   -3.8498   -0.3864 C   0  0  0  0  0  0  0  0  0  0  0  0
    7.9179   -2.4495    0.2172 C   0  0  0  0  0  0  0  0  0  0  0  0
    6.6485   -2.3153    0.9737 N   0  0  2  0  0  0  0  0  0  0  0  0
    6.3020   -3.6855    1.3777 C   0  0  0  0  0  0  0  0  0  0  0  0
    5.5577   -1.7234    0.1538 C   0  0  0  0  0  0  0  0  0  0  0  0
    4.3985   -0.6526   -2.3086 C   0  0  0  0  0  0  0  0  0  0  0  0
    3.6904    0.9279   -3.6107 H   0  0  0  0  0  0  0  0  0  0  0  0
    2.8869   -0.6549   -5.3307 H   0  0  0  0  0  0  0  0  0  0  0  0
    4.1142   -3.9292   -3.1735 H   0  0  0  0  0  0  0  0  0  0  0  0
    4.4375   -4.4832   -0.5333 H   0  0  0  0  0  0  0  0  0  0  0  0
    5.6075   -4.4815   -1.8433 H   0  0  0  0  0  0  0  0  0  0  0  0
    6.5708   -5.5028    0.2170 H   0  0  0  0  0  0  0  0  0  0  0  0
    8.7051   -4.4611   -0.0060 H   0  0  0  0  0  0  0  0  0  0  0  0
    7.9649   -3.8195   -1.4742 H   0  0  0  0  0  0  0  0  0  0  0  0
    8.7717   -2.3823    0.8819 H   0  0  0  0  0  0  0  0  0  0  0  0
    8.0522   -1.6719   -0.5291 H   0  0  0  0  0  0  0  0  0  0  0  0
    5.2917   -3.7764    1.7840 H   0  0  0  0  0  0  0  0  0  0  0  0
    7.0194   -4.0542    2.1032 H   0  0  0  0  0  0  0  0  0  0  0  0
    5.9087   -0.7387   -0.1429 H   0  0  0  0  0  0  0  0  0  0  0  0
    4.6688   -1.5874    0.7736 H   0  0  0  0  0  0  0  0  0  0  0  0
    4.7131    0.0760   -1.5778 H   0  0  0  0  0  0  0  0  0  0  0  0
    6.7900   -1.7268    1.7804 H   0  0  0  0  0  0  0  0  0  0  0  0
  1 14  2  0
  1  2  1  0
  1 15  1  0
  2  3  2  0
  2 16  1  0
  3  4  1  0
  4  5  2  0
  4 17  1  0
  5  6  1  0
  5 14  1  0
  6 13  1  0
  6  7  1  0
  7  8  1  0
  7 18  1  0
  7 19  1  0
  8 12  1  0
  8  9  1  0
  8 20  1  1
  9 10  1  0
  9 21  1  0
  9 22  1  0
 10 11  1  0
 10 23  1  0
 10 24  1  0
 11 12  1  0
 11 13  1  0
 11 30  1  1
 12 25  1  0
 12 26  1  0
 13 27  1  0
 13 28  1  0
 14 29  1  0
M  CHG  1  11   1
M  END
>  <i_m_ct_stereo_status>  (354) 
1

>  <s_m_source_file>  (354) 
/var/tmp/pbs.5076255.sched01/tmpsabrbf27/138opeauupd.sdf

>  <i_m_source_file_index>  (354) 
8

>  <i_lp_mmshare_version>  (354) 
48012

>  <i_f3d_flags>  (354) 
0

>  <s_epik_input>  (354) 
W2NIXTFbY0hdW2NIXW5bY0hdYzFOKFtDSDJdW0NAQEhdMjMpW0NIMl1OKFtDSDJdMylbQ0gyXVtDSDJdMg==

>  <s_epik_cmdline>  (354) 
J2VwaWtfcHl0aG9uJywgJy1waHQnLCAnMi4wJywgJy1waCcsICc3LjAnLCAnLXRuJywgJzgnLCAnLW1hJywgJzIwMCcsICctaW1hZScsICc8aW5maWxlLm1hZT4nLCAnLW9tYWUnLCAnPG91dGZpbGUubWFlPic=

>  <r_lp_tautomer_probability>  (354) 
1

>  <r_epik_Ionization_Penalty>  (354) 
0.0208588

>  <r_epik_Ionization_Penalty_Charging>  (354) 
0.00726628

>  <r_epik_Ionization_Penalty_Neutral>  (354) 
0.0135926

>  <r_epik_State_Penalty>  (354) 
0.0173562

>  <r_epik_Charging_Adjusted_Penalty>  (354) 
0.0246225

>  <i_epik_Tot_Q>  (354) 
1

>  <i_epik_Tot_abs_Q>  (354) 
1

>  <s_epik_Chemistry_Notes>  (354) 
This compound contains an acetal/aminal-like group ( X-CH(R)-Y where X, Y are N, S, or O) that may be acid/base labile, releasing an aldehyde.

>  <s_lp_Force_Field>  (354) 
OPLS3e

>  <r_lp_Energy>  (354) 
42.7671

>  <b_lp_Chiralities_Consistent>  (354) 
1

>  <s_lp_Variant>  (354) 
92:0-1

>  <s_i_glide_gridfile>  (354) 
pfpi4k_grid

>  <i_i_glide_lignum>  (354) 
8

>  <i_i_glide_rotatable_bonds>  (354) 
1

>  <r_i_docking_score>  (354) 
-4.30129

>  <r_i_glide_ligand_efficiency>  (354) 
-0.307235

>  <r_i_glide_ligand_efficiency_sa>  (354) 
-0.74048

>  <r_i_glide_ligand_efficiency_ln>  (354) 
-1.18198

>  <r_i_glide_gscore>  (354) 
-4.30129

>  <r_i_glide_lipo>  (354) 
-0.776419

>  <r_i_glide_hbond>  (354) 
-0.32

>  <r_i_glide_metal>  (354) 
-0

>  <r_i_glide_rewards>  (354) 
-2.14427

>  <r_i_glide_evdw>  (354) 
-18.3595

>  <r_i_glide_ecoul>  (354) 
-3.85029

>  <r_i_glide_erotb>  (354) 
0.443622

>  <r_i_glide_esite>  (354) 
-0.00870741

>  <r_i_glide_emodel>  (354) 
-29.7586

>  <r_i_glide_energy>  (354) 
-22.2097

>  <r_i_glide_einternal>  (354) 
0.080383

>  <r_i_glide_intrahb_reward>  (354) 
-0

>  <i_i_glide_confnum>  (354) 
1

>  <i_i_glide_posenum>  (354) 
3

>  <r_i_glide_eff_state_penalty>  (354) 
0

>  <ligand_id>  (354) 
92

>  <original_smiles>  (354) 
c1cncc(N2CC3CCN(C3)C2)c1

>  <smiles>  (354) 
[H]c1nc([H])c(N2C([H])([H])C3([H])C([H])([H])C([H])([H])[N+]([H])(C2([H])[H])C3([H])[H])c([H])c1[H]

$$$$
92:0:1
     RDKit          3D

 30 32  0  0  1  0  0  0  0  0999 V2000
   -1.2043    2.8914    6.5292 C   0  0  0  0  0  0  0  0  0  0  0  0
   -2.3759    3.3267    5.8982 C   0  0  0  0  0  0  0  0  0  0  0  0
   -2.5614    3.2583    4.5648 N   0  0  0  0  0  0  0  0  0  0  0  0
   -1.5766    2.7161    3.8100 C   0  0  0  0  0  0  0  0  0  0  0  0
   -0.3521    2.2224    4.3349 C   0  0  0  0  0  0  0  0  0  0  0  0
    0.6422    1.6173    3.5192 N   0  0  0  0  0  0  0  0  0  0  0  0
    2.0613    1.6990    3.9091 C   0  0  0  0  0  0  0  0  0  0  0  0
    2.8864    0.5618    3.2787 C   0  0  1  0  0  0  0  0  0  0  0  0
    2.3455   -0.8224    3.6853 C   0  0  0  0  0  0  0  0  0  0  0  0
    1.2641   -1.1109    2.6261 C   0  0  0  0  0  0  0  0  0  0  0  0
    1.2492    0.0659    1.7185 N   0  0  2  0  0  0  0  0  0  0  0  0
    2.6306    0.5708    1.7774 C   0  0  0  0  0  0  0  0  0  0  0  0
    0.2899    1.1176    2.1728 C   0  0  0  0  0  0  0  0  0  0  0  0
   -0.1803    2.3440    5.7389 C   0  0  0  0  0  0  0  0  0  0  0  0
   -1.0879    2.9677    7.6006 H   0  0  0  0  0  0  0  0  0  0  0  0
   -3.1829    3.7353    6.4855 H   0  0  0  0  0  0  0  0  0  0  0  0
   -1.7981    2.6879    2.7516 H   0  0  0  0  0  0  0  0  0  0  0  0
    2.4704    2.6682    3.6142 H   0  0  0  0  0  0  0  0  0  0  0  0
    2.2014    1.6110    4.9828 H   0  0  0  0  0  0  0  0  0  0  0  0
    3.9410    0.6729    3.5294 H   0  0  0  0  0  0  0  0  0  0  0  0
    3.1405   -1.5714    3.6304 H   0  0  0  0  0  0  0  0  0  0  0  0
    1.9437   -0.8326    4.7029 H   0  0  0  0  0  0  0  0  0  0  0  0
    1.5516   -1.9909    2.0479 H   0  0  0  0  0  0  0  0  0  0  0  0
    0.2868   -1.3019    3.0716 H   0  0  0  0  0  0  0  0  0  0  0  0
    2.7244    1.5609    1.3336 H   0  0  0  0  0  0  0  0  0  0  0  0
    3.3050   -0.1230    1.2656 H   0  0  0  0  0  0  0  0  0  0  0  0
   -0.7053    0.6744    2.1881 H   0  0  0  0  0  0  0  0  0  0  0  0
    0.2857    1.9299    1.4422 H   0  0  0  0  0  0  0  0  0  0  0  0
    0.7050    2.0029    6.2492 H   0  0  0  0  0  0  0  0  0  0  0  0
    1.0144   -0.2233    0.7683 H   0  0  0  0  0  0  0  0  0  0  0  0
  1 14  2  0
  1  2  1  0
  1 15  1  0
  2  3  2  0
  2 16  1  0
  3  4  1  0
  4  5  2  0
  4 17  1  0
  5  6  1  0
  5 14  1  0
  6 13  1  0
  6  7  1  0
  7  8  1  0
  7 18  1  0
  7 19  1  0
  8 12  1  0
  8  9  1  0
  8 20  1  6
  9 10  1  0
  9 21  1  0
  9 22  1  0
 10 11  1  0
 10 23  1  0
 10 24  1  0
 11 12  1  0
 11 13  1  0
 11 30  1  6
 12 25  1  0
 12 26  1  0
 13 27  1  0
 13 28  1  0
 14 29  1  0
M  CHG  1  11   1
M  END
>  <i_m_ct_stereo_status>  (355) 
1

>  <s_m_source_file>  (355) 
/var/tmp/pbs.5076255.sched01/tmpsabrbf27/138opeauupd.sdf

>  <i_m_source_file_index>  (355) 
8

>  <i_lp_mmshare_version>  (355) 
48012

>  <i_f3d_flags>  (355) 
0

>  <s_epik_input>  (355) 
W2NIXTFbY0hdW2NIXW5bY0hdYzFOKFtDSDJdW0NAQEhdMjMpW0NIMl1OKFtDSDJdMylbQ0gyXVtDSDJdMg==

>  <s_epik_cmdline>  (355) 
J2VwaWtfcHl0aG9uJywgJy1waHQnLCAnMi4wJywgJy1waCcsICc3LjAnLCAnLXRuJywgJzgnLCAnLW1hJywgJzIwMCcsICctaW1hZScsICc8aW5maWxlLm1hZT4nLCAnLW9tYWUnLCAnPG91dGZpbGUubWFlPic=

>  <r_lp_tautomer_probability>  (355) 
1

>  <r_epik_Ionization_Penalty>  (355) 
0.0208588

>  <r_epik_Ionization_Penalty_Charging>  (355) 
0.00726628

>  <r_epik_Ionization_Penalty_Neutral>  (355) 
0.0135926

>  <r_epik_State_Penalty>  (355) 
0.0173562

>  <r_epik_Charging_Adjusted_Penalty>  (355) 
0.0246225

>  <i_epik_Tot_Q>  (355) 
1

>  <i_epik_Tot_abs_Q>  (355) 
1

>  <s_epik_Chemistry_Notes>  (355) 
This compound contains an acetal/aminal-like group ( X-CH(R)-Y where X, Y are N, S, or O) that may be acid/base labile, releasing an aldehyde.

>  <s_lp_Force_Field>  (355) 
OPLS3e

>  <r_lp_Energy>  (355) 
42.7671

>  <b_lp_Chiralities_Consistent>  (355) 
1

>  <s_lp_Variant>  (355) 
92:0-1

>  <s_i_glide_gridfile>  (355) 
pfpi4k_grid

>  <i_i_glide_lignum>  (355) 
8

>  <i_i_glide_rotatable_bonds>  (355) 
1

>  <r_i_docking_score>  (355) 
-3.84921

>  <r_i_glide_ligand_efficiency>  (355) 
-0.274943

>  <r_i_glide_ligand_efficiency_sa>  (355) 
-0.662652

>  <r_i_glide_ligand_efficiency_ln>  (355) 
-1.05775

>  <r_i_glide_gscore>  (355) 
-3.84921

>  <r_i_glide_lipo>  (355) 
-0.066183

>  <r_i_glide_hbond>  (355) 
-0.2

>  <r_i_glide_metal>  (355) 
-0

>  <r_i_glide_rewards>  (355) 
-2.11183

>  <r_i_glide_evdw>  (355) 
-15.1279

>  <r_i_glide_ecoul>  (355) 
-6.45017

>  <r_i_glide_erotb>  (355) 
0.443622

>  <r_i_glide_esite>  (355) 
-0.190892

>  <r_i_glide_emodel>  (355) 
-28.0094

>  <r_i_glide_energy>  (355) 
-21.5781

>  <r_i_glide_einternal>  (355) 
0.656108

>  <r_i_glide_intrahb_reward>  (355) 
-0

>  <i_i_glide_confnum>  (355) 
4

>  <i_i_glide_posenum>  (355) 
15

>  <r_i_glide_eff_state_penalty>  (355) 
0

>  <ligand_id>  (355) 
92

>  <original_smiles>  (355) 
c1cncc(N2CC3CCN(C3)C2)c1

>  <smiles>  (355) 
[H]c1nc([H])c(N2C([H])([H])C3([H])C([H])([H])C([H])([H])[N+]([H])(C2([H])[H])C3([H])[H])c([H])c1[H]

$$$$
92:0:2
     RDKit          3D

 30 32  0  0  1  0  0  0  0  0999 V2000
    2.6385   -5.9149    2.1603 C   0  0  0  0  0  0  0  0  0  0  0  0
    1.5831   -6.6938    1.6645 C   0  0  0  0  0  0  0  0  0  0  0  0
    0.9897   -6.4375    0.4871 N   0  0  0  0  0  0  0  0  0  0  0  0
    1.4941   -5.4610   -0.2906 C   0  0  0  0  0  0  0  0  0  0  0  0
    2.5621   -4.6018    0.0950 C   0  0  0  0  0  0  0  0  0  0  0  0
    3.0204   -3.5490   -0.7438 N   0  0  0  0  0  0  0  0  0  0  0  0
    4.0391   -2.6076   -0.2479 C   0  0  0  0  0  0  0  0  0  0  0  0
    4.8440   -1.9771   -1.3997 C   0  0  1  0  0  0  0  0  0  0  0  0
    5.5585   -3.0490   -2.2452 C   0  0  0  0  0  0  0  0  0  0  0  0
    4.5062   -3.4417   -3.2980 C   0  0  0  0  0  0  0  0  0  0  0  0
    3.3131   -2.6138   -2.9905 N   0  0  2  0  0  0  0  0  0  0  0  0
    3.8538   -1.3839   -2.3919 C   0  0  0  0  0  0  0  0  0  0  0  0
    2.3789   -3.2862   -2.0494 C   0  0  0  0  0  0  0  0  0  0  0  0
    3.1150   -4.8472    1.3812 C   0  0  0  0  0  0  0  0  0  0  0  0
    3.0748   -6.1267    3.1231 H   0  0  0  0  0  0  0  0  0  0  0  0
    1.2070   -7.5322    2.2373 H   0  0  0  0  0  0  0  0  0  0  0  0
    0.9502   -5.3471   -1.2164 H   0  0  0  0  0  0  0  0  0  0  0  0
    3.5650   -1.8311    0.3572 H   0  0  0  0  0  0  0  0  0  0  0  0
    4.7706   -3.1187    0.3680 H   0  0  0  0  0  0  0  0  0  0  0  0
    5.5420   -1.2350   -1.0106 H   0  0  0  0  0  0  0  0  0  0  0  0
    6.4434   -2.6369   -2.7315 H   0  0  0  0  0  0  0  0  0  0  0  0
    5.8779   -3.9055   -1.6498 H   0  0  0  0  0  0  0  0  0  0  0  0
    4.8667   -3.1879   -4.2935 H   0  0  0  0  0  0  0  0  0  0  0  0
    4.2935   -4.5103   -3.3035 H   0  0  0  0  0  0  0  0  0  0  0  0
    3.0822   -0.7644   -1.9270 H   0  0  0  0  0  0  0  0  0  0  0  0
    4.3754   -0.7952   -3.1502 H   0  0  0  0  0  0  0  0  0  0  0  0
    2.0500   -4.1984   -2.5446 H   0  0  0  0  0  0  0  0  0  0  0  0
    1.4922   -2.6609   -1.9268 H   0  0  0  0  0  0  0  0  0  0  0  0
    3.8966   -4.2435    1.8062 H   0  0  0  0  0  0  0  0  0  0  0  0
    2.8019   -2.4001   -3.8349 H   0  0  0  0  0  0  0  0  0  0  0  0
  1 14  2  0
  1  2  1  0
  1 15  1  0
  2  3  2  0
  2 16  1  0
  3  4  1  0
  4  5  2  0
  4 17  1  0
  5  6  1  0
  5 14  1  0
  6 13  1  0
  6  7  1  0
  7  8  1  0
  7 18  1  0
  7 19  1  0
  8 12  1  0
  8  9  1  0
  8 20  1  1
  9 10  1  0
  9 21  1  0
  9 22  1  0
 10 11  1  0
 10 23  1  0
 10 24  1  0
 11 12  1  0
 11 13  1  0
 11 30  1  6
 12 25  1  0
 12 26  1  0
 13 27  1  0
 13 28  1  0
 14 29  1  0
M  CHG  1  11   1
M  END
>  <i_m_ct_stereo_status>  (356) 
1

>  <s_m_source_file>  (356) 
/var/tmp/pbs.5076255.sched01/tmpsabrbf27/138opeauupd.sdf

>  <i_m_source_file_index>  (356) 
8

>  <i_lp_mmshare_version>  (356) 
48012

>  <i_f3d_flags>  (356) 
0

>  <s_epik_input>  (356) 
W2NIXTFbY0hdW2NIXW5bY0hdYzFOKFtDSDJdW0NAQEhdMjMpW0NIMl1OKFtDSDJdMylbQ0gyXVtDSDJdMg==

>  <s_epik_cmdline>  (356) 
J2VwaWtfcHl0aG9uJywgJy1waHQnLCAnMi4wJywgJy1waCcsICc3LjAnLCAnLXRuJywgJzgnLCAnLW1hJywgJzIwMCcsICctaW1hZScsICc8aW5maWxlLm1hZT4nLCAnLW9tYWUnLCAnPG91dGZpbGUubWFlPic=

>  <r_lp_tautomer_probability>  (356) 
1

>  <r_epik_Ionization_Penalty>  (356) 
0.0208588

>  <r_epik_Ionization_Penalty_Charging>  (356) 
0.00726628

>  <r_epik_Ionization_Penalty_Neutral>  (356) 
0.0135926

>  <r_epik_State_Penalty>  (356) 
0.0173562

>  <r_epik_Charging_Adjusted_Penalty>  (356) 
0.0246225

>  <i_epik_Tot_Q>  (356) 
1

>  <i_epik_Tot_abs_Q>  (356) 
1

>  <s_epik_Chemistry_Notes>  (356) 
This compound contains an acetal/aminal-like group ( X-CH(R)-Y where X, Y are N, S, or O) that may be acid/base labile, releasing an aldehyde.

>  <s_lp_Force_Field>  (356) 
OPLS3e

>  <r_lp_Energy>  (356) 
42.7671

>  <b_lp_Chiralities_Consistent>  (356) 
1

>  <s_lp_Variant>  (356) 
92:0-1

>  <s_i_glide_gridfile>  (356) 
pfpi4k_grid

>  <i_i_glide_lignum>  (356) 
8

>  <i_i_glide_rotatable_bonds>  (356) 
1

>  <r_i_docking_score>  (356) 
-3.76102

>  <r_i_glide_ligand_efficiency>  (356) 
-0.268644

>  <r_i_glide_ligand_efficiency_sa>  (356) 
-0.647471

>  <r_i_glide_ligand_efficiency_ln>  (356) 
-1.03352

>  <r_i_glide_gscore>  (356) 
-3.76102

>  <r_i_glide_lipo>  (356) 
-0.293506

>  <r_i_glide_hbond>  (356) 
-0.190675

>  <r_i_glide_metal>  (356) 
-0

>  <r_i_glide_rewards>  (356) 
-2.33487

>  <r_i_glide_evdw>  (356) 
-15.0656

>  <r_i_glide_ecoul>  (356) 
-4.2154

>  <r_i_glide_erotb>  (356) 
0.443622

>  <r_i_glide_esite>  (356) 
0

>  <r_i_glide_emodel>  (356) 
-25.7831

>  <r_i_glide_energy>  (356) 
-19.281

>  <r_i_glide_einternal>  (356) 
0.149092

>  <r_i_glide_intrahb_reward>  (356) 
-0

>  <i_i_glide_confnum>  (356) 
2

>  <i_i_glide_posenum>  (356) 
2

>  <r_i_glide_eff_state_penalty>  (356) 
0

>  <ligand_id>  (356) 
92

>  <original_smiles>  (356) 
c1cncc(N2CC3CCN(C3)C2)c1

>  <smiles>  (356) 
[H]c1nc([H])c(N2C([H])([H])C3([H])C([H])([H])C([H])([H])[N+]([H])(C2([H])[H])C3([H])[H])c([H])c1[H]

$$$$
92:1:0
     RDKit          3D

 31 33  0  0  1  0  0  0  0  0999 V2000
   -6.3515   -6.0189   -5.3361 C   0  0  0  0  0  0  0  0  0  0  0  0
   -6.7513   -4.8636   -4.6484 C   0  0  0  0  0  0  0  0  0  0  0  0
   -7.8983   -4.2535   -5.0016 N   0  0  0  0  0  0  0  0  0  0  0  0
   -8.6984   -4.6857   -6.0015 C   0  0  0  0  0  0  0  0  0  0  0  0
   -8.3609   -5.8502   -6.7483 C   0  0  0  0  0  0  0  0  0  0  0  0
   -9.2016   -6.3447   -7.7874 N   0  0  0  0  0  0  0  0  0  0  0  0
   -8.7000   -7.3582   -8.7334 C   0  0  0  0  0  0  0  0  0  0  0  0
   -9.8397   -8.1652   -9.3884 C   0  0  1  0  0  0  0  0  0  0  0  0
  -10.6842   -8.9194   -8.3439 C   0  0  0  0  0  0  0  0  0  0  0  0
  -11.7599   -7.8955   -7.9317 C   0  0  0  0  0  0  0  0  0  0  0  0
  -11.4570   -6.6782   -8.7230 N   0  0  2  0  0  0  0  0  0  0  0  0
  -10.8486   -7.1809   -9.9657 C   0  0  0  0  0  0  0  0  0  0  0  0
  -10.5299   -5.7444   -8.0215 C   0  0  0  0  0  0  0  0  0  0  0  0
   -7.1534   -6.5108   -6.3834 C   0  0  0  0  0  0  0  0  0  0  0  0
   -5.4385   -6.5302   -5.0744 H   0  0  0  0  0  0  0  0  0  0  0  0
   -6.1930   -4.4073   -3.8471 H   0  0  0  0  0  0  0  0  0  0  0  0
   -9.5802   -4.0746   -6.1528 H   0  0  0  0  0  0  0  0  0  0  0  0
   -8.0971   -6.8645   -9.4973 H   0  0  0  0  0  0  0  0  0  0  0  0
   -8.0756   -8.0961   -8.2430 H   0  0  0  0  0  0  0  0  0  0  0  0
   -9.4355   -8.8446  -10.1405 H   0  0  0  0  0  0  0  0  0  0  0  0
  -11.1561   -9.7955   -8.7953 H   0  0  0  0  0  0  0  0  0  0  0  0
  -10.0908   -9.2608   -7.4954 H   0  0  0  0  0  0  0  0  0  0  0  0
  -12.7464   -8.2712   -8.2075 H   0  0  0  0  0  0  0  0  0  0  0  0
  -11.7855   -7.6980   -6.8598 H   0  0  0  0  0  0  0  0  0  0  0  0
  -10.3887   -6.3975  -10.5731 H   0  0  0  0  0  0  0  0  0  0  0  0
  -11.5904   -7.7065  -10.5731 H   0  0  0  0  0  0  0  0  0  0  0  0
  -10.9931   -5.4545   -7.0828 H   0  0  0  0  0  0  0  0  0  0  0  0
  -10.4222   -4.8420   -8.6225 H   0  0  0  0  0  0  0  0  0  0  0  0
   -6.8034   -7.4024   -6.8767 H   0  0  0  0  0  0  0  0  0  0  0  0
  -12.3344   -6.1846   -8.8917 H   0  0  0  0  0  0  0  0  0  0  0  0
   -8.1709   -3.4180   -4.4783 H   0  0  0  0  0  0  0  0  0  0  0  0
  1 14  2  0
  1  2  1  0
  1 15  1  0
  2  3  2  0
  2 16  1  0
  3  4  1  0
  3 31  1  0
  4  5  2  0
  4 17  1  0
  5  6  1  0
  5 14  1  0
  6 13  1  0
  6  7  1  0
  7  8  1  0
  7 18  1  0
  7 19  1  0
  8 12  1  0
  8  9  1  0
  8 20  1  6
  9 10  1  0
  9 21  1  0
  9 22  1  0
 10 11  1  0
 10 23  1  0
 10 24  1  0
 11 12  1  0
 11 13  1  0
 11 30  1  6
 12 25  1  0
 12 26  1  0
 13 27  1  0
 13 28  1  0
 14 29  1  0
M  CHG  2   3   1  11   1
M  END
>  <i_m_ct_stereo_status>  (357) 
1

>  <s_m_source_file>  (357) 
/var/tmp/pbs.5076255.sched01/tmpsabrbf27/138opeauupd.sdf

>  <i_m_source_file_index>  (357) 
9

>  <i_lp_mmshare_version>  (357) 
48012

>  <i_f3d_flags>  (357) 
0

>  <s_epik_input>  (357) 
W2NIXTFbY0hdW2NIXW5bY0hdYzFOKFtDSDJdW0NAQEhdMjMpW0NIMl1OKFtDSDJdMylbQ0gyXVtDSDJdMg==

>  <s_epik_cmdline>  (357) 
J2VwaWtfcHl0aG9uJywgJy1waHQnLCAnMi4wJywgJy1waCcsICc3LjAnLCAnLXRuJywgJzgnLCAnLW1hJywgJzIwMCcsICctaW1hZScsICc8aW5maWxlLm1hZT4nLCAnLW9tYWUnLCAnPG91dGZpbGUubWFlPic=

>  <r_lp_tautomer_probability>  (357) 
0.999846

>  <r_epik_Ionization_Penalty>  (357) 
2.27475

>  <r_epik_Ionization_Penalty_Charging>  (357) 
2.27475

>  <r_epik_Ionization_Penalty_Neutral>  (357) 
0

>  <r_epik_State_Penalty>  (357) 
2.31648

>  <r_epik_Charging_Adjusted_Penalty>  (357) 
4.59124

>  <i_epik_Tot_Q>  (357) 
2

>  <i_epik_Tot_abs_Q>  (357) 
2

>  <s_epik_Chemistry_Notes>  (357) 
This compound contains an acetal/aminal-like group ( X-CH(R)-Y where X, Y are N, S, or O) that may be acid/base labile, releasing an aldehyde.

>  <s_lp_Force_Field>  (357) 
OPLS3e

>  <r_lp_Energy>  (357) 
52.564

>  <b_lp_Chiralities_Consistent>  (357) 
1

>  <s_lp_Variant>  (357) 
92:0-2

>  <s_i_glide_gridfile>  (357) 
pfpi4k_grid

>  <i_i_glide_lignum>  (357) 
9

>  <i_i_glide_rotatable_bonds>  (357) 
1

>  <r_i_docking_score>  (357) 
-5.17115

>  <r_i_glide_ligand_efficiency>  (357) 
-0.369368

>  <r_i_glide_ligand_efficiency_sa>  (357) 
-0.890229

>  <r_i_glide_ligand_efficiency_ln>  (357) 
-1.42101

>  <r_i_glide_gscore>  (357) 
-5.17115

>  <r_i_glide_lipo>  (357) 
-1.49665

>  <r_i_glide_hbond>  (357) 
-0.2

>  <r_i_glide_metal>  (357) 
-0

>  <r_i_glide_rewards>  (357) 
-2.23806

>  <r_i_glide_evdw>  (357) 
-20.0477

>  <r_i_glide_ecoul>  (357) 
-3.59554

>  <r_i_glide_erotb>  (357) 
0.439757

>  <r_i_glide_esite>  (357) 
-0.134479

>  <r_i_glide_emodel>  (357) 
-33.3615

>  <r_i_glide_energy>  (357) 
-23.6432

>  <r_i_glide_einternal>  (357) 
0.245843

>  <r_i_glide_intrahb_reward>  (357) 
-0

>  <i_i_glide_confnum>  (357) 
1

>  <i_i_glide_posenum>  (357) 
35

>  <r_i_glide_eff_state_penalty>  (357) 
0

>  <ligand_id>  (357) 
92

>  <original_smiles>  (357) 
c1cncc(N2CC3CCN(C3)C2)c1

>  <smiles>  (357) 
[H]c1c([H])c([H])[n+]([H])c([H])c1N1C([H])([H])C2([H])C([H])([H])C([H])([H])[N+]([H])(C1([H])[H])C2([H])[H]

$$$$
92:1:1
     RDKit          3D

 31 33  0  0  1  0  0  0  0  0999 V2000
   -7.6737   -4.7181   -5.4056 C   0  0  0  0  0  0  0  0  0  0  0  0
   -6.5623   -5.5376   -5.1431 C   0  0  0  0  0  0  0  0  0  0  0  0
   -6.4063   -6.6780   -5.8432 N   0  0  0  0  0  0  0  0  0  0  0  0
   -7.2720   -7.0790   -6.7986 C   0  0  0  0  0  0  0  0  0  0  0  0
   -8.4259   -6.3121   -7.1216 C   0  0  0  0  0  0  0  0  0  0  0  0
   -9.3762   -6.7729   -8.0757 N   0  0  0  0  0  0  0  0  0  0  0  0
   -8.9935   -7.7799   -9.0844 C   0  0  0  0  0  0  0  0  0  0  0  0
  -10.2124   -8.5692   -9.6062 C   0  0  1  0  0  0  0  0  0  0  0  0
  -10.9360   -9.3229   -8.4748 C   0  0  0  0  0  0  0  0  0  0  0  0
  -11.9440   -8.2896   -7.9331 C   0  0  0  0  0  0  0  0  0  0  0  0
  -11.7345   -7.0650   -8.7452 N   0  0  2  0  0  0  0  0  0  0  0  0
  -11.2751   -7.5698  -10.0520 C   0  0  0  0  0  0  0  0  0  0  0  0
  -10.7134   -6.1523   -8.1536 C   0  0  0  0  0  0  0  0  0  0  0  0
   -8.6066   -5.0991   -6.3956 C   0  0  0  0  0  0  0  0  0  0  0  0
   -7.8105   -3.8109   -4.8394 H   0  0  0  0  0  0  0  0  0  0  0  0
   -5.8047   -5.3215   -4.4049 H   0  0  0  0  0  0  0  0  0  0  0  0
   -7.0034   -8.0227   -7.2457 H   0  0  0  0  0  0  0  0  0  0  0  0
   -8.4834   -7.2860   -9.9133 H   0  0  0  0  0  0  0  0  0  0  0  0
   -8.3121   -8.5222   -8.6855 H   0  0  0  0  0  0  0  0  0  0  0  0
   -9.9098   -9.2459  -10.4067 H   0  0  0  0  0  0  0  0  0  0  0  0
  -11.4667  -10.1907   -8.8754 H   0  0  0  0  0  0  0  0  0  0  0  0
  -10.2528   -9.6795   -7.7019 H   0  0  0  0  0  0  0  0  0  0  0  0
  -12.9593   -8.6580   -8.0914 H   0  0  0  0  0  0  0  0  0  0  0  0
  -11.8288   -8.1036   -6.8649 H   0  0  0  0  0  0  0  0  0  0  0  0
  -10.8810   -6.7869  -10.7036 H   0  0  0  0  0  0  0  0  0  0  0  0
  -12.0879   -8.0836  -10.5735 H   0  0  0  0  0  0  0  0  0  0  0  0
  -11.0594   -5.8690   -7.1617 H   0  0  0  0  0  0  0  0  0  0  0  0
  -10.6694   -5.2462   -8.7594 H   0  0  0  0  0  0  0  0  0  0  0  0
   -9.4542   -4.4497   -6.5690 H   0  0  0  0  0  0  0  0  0  0  0  0
  -12.6087   -6.5470   -8.8180 H   0  0  0  0  0  0  0  0  0  0  0  0
   -5.6027   -7.2737   -5.6431 H   0  0  0  0  0  0  0  0  0  0  0  0
  1 14  2  0
  1  2  1  0
  1 15  1  0
  2  3  2  0
  2 16  1  0
  3  4  1  0
  3 31  1  0
  4  5  2  0
  4 17  1  0
  5  6  1  0
  5 14  1  0
  6 13  1  0
  6  7  1  0
  7  8  1  0
  7 18  1  0
  7 19  1  0
  8 12  1  0
  8  9  1  0
  8 20  1  6
  9 10  1  0
  9 21  1  0
  9 22  1  0
 10 11  1  0
 10 23  1  0
 10 24  1  0
 11 12  1  0
 11 13  1  0
 11 30  1  6
 12 25  1  0
 12 26  1  0
 13 27  1  0
 13 28  1  0
 14 29  1  0
M  CHG  2   3   1  11   1
M  END
>  <i_m_ct_stereo_status>  (358) 
1

>  <s_m_source_file>  (358) 
/var/tmp/pbs.5076255.sched01/tmpsabrbf27/138opeauupd.sdf

>  <i_m_source_file_index>  (358) 
9

>  <i_lp_mmshare_version>  (358) 
48012

>  <i_f3d_flags>  (358) 
0

>  <s_epik_input>  (358) 
W2NIXTFbY0hdW2NIXW5bY0hdYzFOKFtDSDJdW0NAQEhdMjMpW0NIMl1OKFtDSDJdMylbQ0gyXVtDSDJdMg==

>  <s_epik_cmdline>  (358) 
J2VwaWtfcHl0aG9uJywgJy1waHQnLCAnMi4wJywgJy1waCcsICc3LjAnLCAnLXRuJywgJzgnLCAnLW1hJywgJzIwMCcsICctaW1hZScsICc8aW5maWxlLm1hZT4nLCAnLW9tYWUnLCAnPG91dGZpbGUubWFlPic=

>  <r_lp_tautomer_probability>  (358) 
0.999846

>  <r_epik_Ionization_Penalty>  (358) 
2.27475

>  <r_epik_Ionization_Penalty_Charging>  (358) 
2.27475

>  <r_epik_Ionization_Penalty_Neutral>  (358) 
0

>  <r_epik_State_Penalty>  (358) 
2.31648

>  <r_epik_Charging_Adjusted_Penalty>  (358) 
4.59124

>  <i_epik_Tot_Q>  (358) 
2

>  <i_epik_Tot_abs_Q>  (358) 
2

>  <s_epik_Chemistry_Notes>  (358) 
This compound contains an acetal/aminal-like group ( X-CH(R)-Y where X, Y are N, S, or O) that may be acid/base labile, releasing an aldehyde.

>  <s_lp_Force_Field>  (358) 
OPLS3e

>  <r_lp_Energy>  (358) 
52.564

>  <b_lp_Chiralities_Consistent>  (358) 
1

>  <s_lp_Variant>  (358) 
92:0-2

>  <s_i_glide_gridfile>  (358) 
pfpi4k_grid

>  <i_i_glide_lignum>  (358) 
9

>  <i_i_glide_rotatable_bonds>  (358) 
1

>  <r_i_docking_score>  (358) 
-4.98826

>  <r_i_glide_ligand_efficiency>  (358) 
-0.356304

>  <r_i_glide_ligand_efficiency_sa>  (358) 
-0.858744

>  <r_i_glide_ligand_efficiency_ln>  (358) 
-1.37076

>  <r_i_glide_gscore>  (358) 
-4.98826

>  <r_i_glide_lipo>  (358) 
-1.35795

>  <r_i_glide_hbond>  (358) 
-0.2

>  <r_i_glide_metal>  (358) 
-0

>  <r_i_glide_rewards>  (358) 
-2.19066

>  <r_i_glide_evdw>  (358) 
-18.6123

>  <r_i_glide_ecoul>  (358) 
-4.095

>  <r_i_glide_erotb>  (358) 
0.439757

>  <r_i_glide_esite>  (358) 
-0.134539

>  <r_i_glide_emodel>  (358) 
-32.0189

>  <r_i_glide_energy>  (358) 
-22.7073

>  <r_i_glide_einternal>  (358) 
0.35674

>  <r_i_glide_intrahb_reward>  (358) 
-0

>  <i_i_glide_confnum>  (358) 
2

>  <i_i_glide_posenum>  (358) 
22

>  <r_i_glide_eff_state_penalty>  (358) 
0

>  <ligand_id>  (358) 
92

>  <original_smiles>  (358) 
c1cncc(N2CC3CCN(C3)C2)c1

>  <smiles>  (358) 
[H]c1c([H])c([H])[n+]([H])c([H])c1N1C([H])([H])C2([H])C([H])([H])C([H])([H])[N+]([H])(C1([H])[H])C2([H])[H]

$$$$
92:1:2
     RDKit          3D

 31 33  0  0  1  0  0  0  0  0999 V2000
    4.0291   -0.5153   -2.9320 C   0  0  0  0  0  0  0  0  0  0  0  0
    3.2200   -1.0963   -3.9184 C   0  0  0  0  0  0  0  0  0  0  0  0
    2.6147   -2.2725   -3.6673 N   0  0  0  0  0  0  0  0  0  0  0  0
    2.7484   -2.9305   -2.4967 C   0  0  0  0  0  0  0  0  0  0  0  0
    3.5720   -2.4228   -1.4529 C   0  0  0  0  0  0  0  0  0  0  0  0
    3.7713   -3.1389   -0.2397 N   0  0  0  0  0  0  0  0  0  0  0  0
    2.8706   -4.2503    0.1212 C   0  0  0  0  0  0  0  0  0  0  0  0
    3.5375   -5.2534    1.0824 C   0  0  1  0  0  0  0  0  0  0  0  0
    4.8118   -5.8642    0.4691 C   0  0  0  0  0  0  0  0  0  0  0  0
    5.9173   -4.8643    0.8533 C   0  0  0  0  0  0  0  0  0  0  0  0
    5.2312   -3.7954    1.6217 N   0  0  2  0  0  0  0  0  0  0  0  0
    4.0905   -4.4716    2.2627 C   0  0  0  0  0  0  0  0  0  0  0  0
    4.7622   -2.6777    0.7525 C   0  0  0  0  0  0  0  0  0  0  0  0
    4.2022   -1.1675   -1.6937 C   0  0  0  0  0  0  0  0  0  0  0  0
    4.4807    0.4461   -3.1179 H   0  0  0  0  0  0  0  0  0  0  0  0
    3.0143   -0.6484   -4.8808 H   0  0  0  0  0  0  0  0  0  0  0  0
    2.1828   -3.8485   -2.4619 H   0  0  0  0  0  0  0  0  0  0  0  0
    1.9608   -3.8524    0.5721 H   0  0  0  0  0  0  0  0  0  0  0  0
    2.5750   -4.8335   -0.7403 H   0  0  0  0  0  0  0  0  0  0  0  0
    2.8294   -6.0254    1.3846 H   0  0  0  0  0  0  0  0  0  0  0  0
    5.0160   -6.8411    0.9132 H   0  0  0  0  0  0  0  0  0  0  0  0
    4.7330   -5.9950   -0.6131 H   0  0  0  0  0  0  0  0  0  0  0  0
    6.6432   -5.3580    1.5016 H   0  0  0  0  0  0  0  0  0  0  0  0
    6.4561   -4.4745   -0.0120 H   0  0  0  0  0  0  0  0  0  0  0  0
    3.3724   -3.7742    2.7011 H   0  0  0  0  0  0  0  0  0  0  0  0
    4.4453   -5.1500    3.0440 H   0  0  0  0  0  0  0  0  0  0  0  0
    5.6428   -2.2635    0.2632 H   0  0  0  0  0  0  0  0  0  0  0  0
    4.3320   -1.8952    1.3820 H   0  0  0  0  0  0  0  0  0  0  0  0
    4.8051   -0.6726   -0.9477 H   0  0  0  0  0  0  0  0  0  0  0  0
    5.8546   -3.4255    2.3245 H   0  0  0  0  0  0  0  0  0  0  0  0
    2.0138   -2.6721   -4.3880 H   0  0  0  0  0  0  0  0  0  0  0  0
  1 14  2  0
  1  2  1  0
  1 15  1  0
  2  3  2  0
  2 16  1  0
  3  4  1  0
  3 31  1  0
  4  5  2  0
  4 17  1  0
  5  6  1  0
  5 14  1  0
  6 13  1  0
  6  7  1  0
  7  8  1  0
  7 18  1  0
  7 19  1  0
  8 12  1  0
  8  9  1  0
  8 20  1  1
  9 10  1  0
  9 21  1  0
  9 22  1  0
 10 11  1  0
 10 23  1  0
 10 24  1  0
 11 12  1  0
 11 13  1  0
 11 30  1  1
 12 25  1  0
 12 26  1  0
 13 27  1  0
 13 28  1  0
 14 29  1  0
M  CHG  2   3   1  11   1
M  END
>  <i_m_ct_stereo_status>  (359) 
1

>  <s_m_source_file>  (359) 
/var/tmp/pbs.5076255.sched01/tmpsabrbf27/138opeauupd.sdf

>  <i_m_source_file_index>  (359) 
9

>  <i_lp_mmshare_version>  (359) 
48012

>  <i_f3d_flags>  (359) 
0

>  <s_epik_input>  (359) 
W2NIXTFbY0hdW2NIXW5bY0hdYzFOKFtDSDJdW0NAQEhdMjMpW0NIMl1OKFtDSDJdMylbQ0gyXVtDSDJdMg==

>  <s_epik_cmdline>  (359) 
J2VwaWtfcHl0aG9uJywgJy1waHQnLCAnMi4wJywgJy1waCcsICc3LjAnLCAnLXRuJywgJzgnLCAnLW1hJywgJzIwMCcsICctaW1hZScsICc8aW5maWxlLm1hZT4nLCAnLW9tYWUnLCAnPG91dGZpbGUubWFlPic=

>  <r_lp_tautomer_probability>  (359) 
0.999846

>  <r_epik_Ionization_Penalty>  (359) 
2.27475

>  <r_epik_Ionization_Penalty_Charging>  (359) 
2.27475

>  <r_epik_Ionization_Penalty_Neutral>  (359) 
0

>  <r_epik_State_Penalty>  (359) 
2.31648

>  <r_epik_Charging_Adjusted_Penalty>  (359) 
4.59124

>  <i_epik_Tot_Q>  (359) 
2

>  <i_epik_Tot_abs_Q>  (359) 
2

>  <s_epik_Chemistry_Notes>  (359) 
This compound contains an acetal/aminal-like group ( X-CH(R)-Y where X, Y are N, S, or O) that may be acid/base labile, releasing an aldehyde.

>  <s_lp_Force_Field>  (359) 
OPLS3e

>  <r_lp_Energy>  (359) 
52.564

>  <b_lp_Chiralities_Consistent>  (359) 
1

>  <s_lp_Variant>  (359) 
92:0-2

>  <s_i_glide_gridfile>  (359) 
pfpi4k_grid

>  <i_i_glide_lignum>  (359) 
9

>  <i_i_glide_rotatable_bonds>  (359) 
1

>  <r_i_docking_score>  (359) 
-4.02742

>  <r_i_glide_ligand_efficiency>  (359) 
-0.287673

>  <r_i_glide_ligand_efficiency_sa>  (359) 
-0.693332

>  <r_i_glide_ligand_efficiency_ln>  (359) 
-1.10672

>  <r_i_glide_gscore>  (359) 
-4.02742

>  <r_i_glide_lipo>  (359) 
-0.543785

>  <r_i_glide_hbond>  (359) 
0

>  <r_i_glide_metal>  (359) 
-0

>  <r_i_glide_rewards>  (359) 
-2.13554

>  <r_i_glide_evdw>  (359) 
-17.932

>  <r_i_glide_ecoul>  (359) 
-5.94167

>  <r_i_glide_erotb>  (359) 
0.439757

>  <r_i_glide_esite>  (359) 
0

>  <r_i_glide_emodel>  (359) 
-31.4328

>  <r_i_glide_energy>  (359) 
-23.8736

>  <r_i_glide_einternal>  (359) 
0.183994

>  <r_i_glide_intrahb_reward>  (359) 
-0

>  <i_i_glide_confnum>  (359) 
4

>  <i_i_glide_posenum>  (359) 
4

>  <r_i_glide_eff_state_penalty>  (359) 
0

>  <ligand_id>  (359) 
92

>  <original_smiles>  (359) 
c1cncc(N2CC3CCN(C3)C2)c1

>  <smiles>  (359) 
[H]c1c([H])c([H])[n+]([H])c([H])c1N1C([H])([H])C2([H])C([H])([H])C([H])([H])[N+]([H])(C1([H])[H])C2([H])[H]

$$$$
93:0:0
     RDKit          3D

 58 63  0  0  1  0  0  0  0  0999 V2000
    3.6640    0.3870   -4.3965 C   0  0  0  0  0  0  0  0  0  0  0  0
    4.1568   -0.0068   -3.1192 O   0  0  0  0  0  0  0  0  0  0  0  0
    3.6025   -1.1077   -2.5173 C   0  0  0  0  0  0  0  0  0  0  0  0
    2.6920   -1.9937   -3.1752 C   0  0  0  0  0  0  0  0  0  0  0  0
    2.2057   -3.1597   -2.5488 C   0  0  0  0  0  0  0  0  0  0  0  0
    2.5591   -3.4620   -1.2297 C   0  0  0  0  0  0  0  0  0  0  0  0
    3.4452   -2.5273   -0.6306 C   0  0  0  0  0  0  0  0  0  0  0  0
    4.0176   -1.3898   -1.1885 C   0  0  0  0  0  0  0  0  0  0  0  0
    4.9884   -0.6665   -0.5013 O   0  0  0  0  0  0  0  0  0  0  0  0
    5.8169   -1.3688    0.4663 C   0  0  2  0  0  0  0  0  0  0  0  0
    6.8083   -2.2202   -0.3078 C   0  0  0  0  0  0  0  0  0  0  0  0
    8.0013   -1.9439   -0.3098 O   0  0  0  0  0  0  0  0  0  0  0  0
    6.2765   -3.4165   -1.0788 C   0  0  0  0  0  0  0  0  0  0  0  0
    5.6630   -4.4992   -0.1613 C   0  0  0  0  0  0  0  0  0  0  0  0
    4.2353   -4.2414    0.6490 C   0  0  1  0  0  0  0  0  0  0  0  0
    3.4324   -4.5903    2.0669 C   0  0  0  0  0  0  0  0  0  0  0  0
    4.2308   -5.6833    1.8855 C   0  0  2  0  0  0  0  0  0  0  0  0
    3.8261   -6.9485    2.5763 N   0  0  0  0  0  0  0  0  0  0  0  0
    2.4042   -7.3735    2.4379 C   0  0  0  0  0  0  0  0  0  0  0  0
    4.7331   -8.0778    2.2385 C   0  0  0  0  0  0  0  0  0  0  0  0
    5.5637   -5.0012    2.5995 C   0  0  0  0  0  0  0  0  0  0  0  0
    5.8898   -3.3669    2.3945 C   0  0  0  0  0  0  0  0  0  0  0  0
    5.0388   -2.2351    1.5119 C   0  0  1  0  0  0  0  0  0  0  0  0
    4.5732   -1.3862    2.5707 O   0  0  0  0  0  0  0  0  0  0  0  0
    3.8227   -0.2166    2.2657 C   0  0  0  0  0  0  0  0  0  0  0  0
    3.8610   -2.8514    0.7350 C   0  0  1  0  0  0  0  0  0  0  0  0
    3.5085   -5.4461    0.3677 C   0  0  1  0  0  0  0  0  0  0  0  0
    2.2489   -4.7669   -0.3622 C   0  0  0  0  0  0  0  0  0  0  0  0
    4.1940    1.2852   -4.7057 H   0  0  0  0  0  0  0  0  0  0  0  0
    2.6015    0.6294   -4.3650 H   0  0  0  0  0  0  0  0  0  0  0  0
    3.8392   -0.3749   -5.1560 H   0  0  0  0  0  0  0  0  0  0  0  0
    2.3625   -1.8103   -4.1879 H   0  0  0  0  0  0  0  0  0  0  0  0
    1.5630   -3.8353   -3.0944 H   0  0  0  0  0  0  0  0  0  0  0  0
    6.4062   -0.6109    0.9844 H   0  0  0  0  0  0  0  0  0  0  0  0
    5.6028   -3.1321   -1.8867 H   0  0  0  0  0  0  0  0  0  0  0  0
    7.1501   -3.8076   -1.5926 H   0  0  0  0  0  0  0  0  0  0  0  0
    5.5652   -5.3172   -0.8631 H   0  0  0  0  0  0  0  0  0  0  0  0
    6.4998   -4.8578    0.4241 H   0  0  0  0  0  0  0  0  0  0  0  0
    3.6080   -3.9877    2.9618 H   0  0  0  0  0  0  0  0  0  0  0  0
    2.3451   -4.7348    2.1047 H   0  0  0  0  0  0  0  0  0  0  0  0
    2.1277   -7.5721    1.4030 H   0  0  0  0  0  0  0  0  0  0  0  0
    1.7116   -6.6521    2.8681 H   0  0  0  0  0  0  0  0  0  0  0  0
    2.2443   -8.2997    2.9884 H   0  0  0  0  0  0  0  0  0  0  0  0
    4.6472   -8.3456    1.1861 H   0  0  0  0  0  0  0  0  0  0  0  0
    4.4835   -8.9636    2.8240 H   0  0  0  0  0  0  0  0  0  0  0  0
    5.7717   -7.8333    2.4547 H   0  0  0  0  0  0  0  0  0  0  0  0
    5.4767   -5.1415    3.6779 H   0  0  0  0  0  0  0  0  0  0  0  0
    6.4589   -5.5841    2.3827 H   0  0  0  0  0  0  0  0  0  0  0  0
    5.9504   -2.9601    3.3988 H   0  0  0  0  0  0  0  0  0  0  0  0
    6.9099   -3.3276    2.0264 H   0  0  0  0  0  0  0  0  0  0  0  0
    3.4715    0.2184    3.2015 H   0  0  0  0  0  0  0  0  0  0  0  0
    2.9433   -0.4233    1.6578 H   0  0  0  0  0  0  0  0  0  0  0  0
    4.4273    0.5389    1.7673 H   0  0  0  0  0  0  0  0  0  0  0  0
    2.9440   -2.6314    1.2764 H   0  0  0  0  0  0  0  0  0  0  0  0
    3.9334   -6.2006   -0.2705 H   0  0  0  0  0  0  0  0  0  0  0  0
    1.4252   -4.6114    0.3097 H   0  0  0  0  0  0  0  0  0  0  0  0
    1.8014   -5.4681   -1.0493 H   0  0  0  0  0  0  0  0  0  0  0  0
    3.9598   -6.7835    3.5627 H   0  0  0  0  0  0  0  0  0  0  0  0
  1  2  1  0
  1 29  1  0
  1 30  1  0
  1 31  1  0
  2  3  1  0
  3  8  2  0
  3  4  1  0
  4  5  2  0
  4 32  1  0
  5  6  1  0
  5 33  1  0
  6 28  1  0
  6  7  2  0
  7 26  1  0
  7  8  1  0
  8  9  1  0
  9 10  1  0
 10 23  1  0
 10 11  1  0
 10 34  1  1
 11 12  2  0
 11 13  1  0
 13 14  1  0
 13 35  1  0
 13 36  1  0
 15 14  1  1
 14 37  1  0
 14 38  1  0
 15 26  1  0
 15 27  1  0
 15 16  1  0
 16 17  1  0
 16 39  1  0
 16 40  1  0
 17 18  1  1
 17 21  1  0
 17 27  1  0
 18 19  1  0
 18 20  1  0
 18 58  1  0
 19 41  1  0
 19 42  1  0
 19 43  1  0
 20 44  1  0
 20 45  1  0
 20 46  1  0
 21 22  1  0
 21 47  1  0
 21 48  1  0
 22 23  1  0
 22 49  1  0
 22 50  1  0
 23 24  1  1
 23 26  1  0
 24 25  1  0
 25 51  1  0
 25 52  1  0
 25 53  1  0
 26 54  1  1
 27 28  1  0
 27 55  1  6
 28 56  1  0
 28 57  1  0
M  CHG  1  18   1
M  END
>  <i_m_ct_stereo_status>  (360) 
1

>  <s_m_source_file>  (360) 
/var/tmp/pbs.5076255.sched01/tmpsabrbf27/138opeauupd.sdf

>  <i_m_source_file_index>  (360) 
10

>  <i_lp_mmshare_version>  (360) 
48012

>  <i_f3d_flags>  (360) 
0

>  <s_epik_input>  (360) 
W0NAXTEyM1tDSF00YzVjNltjSF1bY0hdYyhPW0NIM10pYzVPW0NASF0oQyg9TylbQ0gyXVtDSDJdMSlbQ0BdNChPW0NIM10pW0NIMl1bQ0gyXVtDQF0oW0NIMl0yKShOKFtDSDNdKVtDSDNdKVtDQEhdM1tDSDJdNg==

>  <s_epik_cmdline>  (360) 
J2VwaWtfcHl0aG9uJywgJy1waHQnLCAnMi4wJywgJy1waCcsICc3LjAnLCAnLXRuJywgJzgnLCAnLW1hJywgJzIwMCcsICctaW1hZScsICc8aW5maWxlLm1hZT4nLCAnLW9tYWUnLCAnPG91dGZpbGUubWFlPic=

>  <r_lp_tautomer_probability>  (360) 
1

>  <r_epik_Ionization_Penalty>  (360) 
0.00243295

>  <r_epik_Ionization_Penalty_Charging>  (360) 
0.00243295

>  <r_epik_Ionization_Penalty_Neutral>  (360) 
9.66713e-11

>  <r_epik_State_Penalty>  (360) 
0.00168414

>  <r_epik_Charging_Adjusted_Penalty>  (360) 
0.00411708

>  <i_epik_Tot_Q>  (360) 
1

>  <i_epik_Tot_abs_Q>  (360) 
1

>  <s_lp_Force_Field>  (360) 
OPLS3e

>  <r_lp_Energy>  (360) 
300.278

>  <b_lp_Chiralities_Consistent>  (360) 
1

>  <s_lp_Variant>  (360) 
93:0-1

>  <s_i_glide_gridfile>  (360) 
pfpi4k_grid

>  <i_i_glide_lignum>  (360) 
10

>  <i_i_glide_rotatable_bonds>  (360) 
3

>  <r_i_docking_score>  (360) 
-3.16047

>  <r_i_glide_ligand_efficiency>  (360) 
-0.112874

>  <r_i_glide_ligand_efficiency_sa>  (360) 
-0.342752

>  <r_i_glide_ligand_efficiency_ln>  (360) 
-0.72953

>  <r_i_glide_gscore>  (360) 
-3.16047

>  <r_i_glide_lipo>  (360) 
-0.73807

>  <r_i_glide_hbond>  (360) 
-0.132413

>  <r_i_glide_metal>  (360) 
-0

>  <r_i_glide_rewards>  (360) 
-0.787578

>  <r_i_glide_evdw>  (360) 
-22.8594

>  <r_i_glide_ecoul>  (360) 
-2.20456

>  <r_i_glide_erotb>  (360) 
0

>  <r_i_glide_esite>  (360) 
-0.0287576

>  <r_i_glide_emodel>  (360) 
-28.9678

>  <r_i_glide_energy>  (360) 
-25.0639

>  <r_i_glide_einternal>  (360) 
0.212358

>  <r_i_glide_intrahb_reward>  (360) 
-0

>  <i_i_glide_confnum>  (360) 
2

>  <i_i_glide_posenum>  (360) 
24

>  <r_i_glide_eff_state_penalty>  (360) 
0

>  <ligand_id>  (360) 
93

>  <original_smiles>  (360) 
COc1ccc2c3c1OC1C(=O)CCC45CC(N(C)C)(CCC1(OC)C34)C5C2

>  <smiles>  (360) 
[H]c1c([H])c2c3c(c1OC([H])([H])[H])OC1([H])C(=O)C([H])([H])C([H])([H])C45C([H])([H])C([N+]([H])(C([H])([H])[H])C([H])([H])[H])(C([H])([H])C([H])([H])C1(OC([H])([H])[H])C34[H])C5([H])C2([H])[H]

$$$$
93:0:1
     RDKit          3D

 58 63  0  0  1  0  0  0  0  0999 V2000
    3.6719    0.3638   -4.4127 C   0  0  0  0  0  0  0  0  0  0  0  0
    4.1486   -0.0057   -3.1268 O   0  0  0  0  0  0  0  0  0  0  0  0
    3.6062   -1.1177   -2.5176 C   0  0  0  0  0  0  0  0  0  0  0  0
    2.7050   -2.0064   -3.1873 C   0  0  0  0  0  0  0  0  0  0  0  0
    2.2204   -3.1734   -2.5565 C   0  0  0  0  0  0  0  0  0  0  0  0
    2.5767   -3.4628   -1.2326 C   0  0  0  0  0  0  0  0  0  0  0  0
    3.4484   -2.5176   -0.6280 C   0  0  0  0  0  0  0  0  0  0  0  0
    4.0111   -1.3843   -1.2005 C   0  0  0  0  0  0  0  0  0  0  0  0
    4.9666   -0.6535   -0.5070 O   0  0  0  0  0  0  0  0  0  0  0  0
    5.8116   -1.3546    0.4365 C   0  0  2  0  0  0  0  0  0  0  0  0
    6.7982   -2.2133   -0.3207 C   0  0  0  0  0  0  0  0  0  0  0  0
    7.9847   -1.9054   -0.3350 O   0  0  0  0  0  0  0  0  0  0  0  0
    6.2779   -3.4215   -1.0679 C   0  0  0  0  0  0  0  0  0  0  0  0
    5.6714   -4.4821   -0.1366 C   0  0  0  0  0  0  0  0  0  0  0  0
    4.2551   -4.2181    0.6534 C   0  0  1  0  0  0  0  0  0  0  0  0
    3.4317   -4.5536    2.0533 C   0  0  0  0  0  0  0  0  0  0  0  0
    4.2528   -5.6344    1.9396 C   0  0  2  0  0  0  0  0  0  0  0  0
    3.7931   -6.8647    2.6666 N   0  0  0  0  0  0  0  0  0  0  0  0
    4.8421   -7.9230    2.7268 C   0  0  0  0  0  0  0  0  0  0  0  0
    3.2043   -6.6272    4.0254 C   0  0  0  0  0  0  0  0  0  0  0  0
    5.5873   -4.9359    2.6267 C   0  0  0  0  0  0  0  0  0  0  0  0
    5.8764   -3.3046    2.4226 C   0  0  0  0  0  0  0  0  0  0  0  0
    5.0399   -2.1767    1.5177 C   0  0  1  0  0  0  0  0  0  0  0  0
    4.4578   -1.2167    2.4252 O   0  0  0  0  0  0  0  0  0  0  0  0
    5.3291   -0.3234    3.1454 C   0  0  0  0  0  0  0  0  0  0  0  0
    3.8755   -2.8244    0.7363 C   0  0  1  0  0  0  0  0  0  0  0  0
    3.5338   -5.4311    0.4000 C   0  0  1  0  0  0  0  0  0  0  0  0
    2.2710   -4.7556   -0.3451 C   0  0  0  0  0  0  0  0  0  0  0  0
    4.1890    1.2674   -4.7294 H   0  0  0  0  0  0  0  0  0  0  0  0
    2.6049    0.5938   -4.4040 H   0  0  0  0  0  0  0  0  0  0  0  0
    3.8666   -0.4009   -5.1678 H   0  0  0  0  0  0  0  0  0  0  0  0
    2.3871   -1.8328   -4.1975 H   0  0  0  0  0  0  0  0  0  0  0  0
    1.5963   -3.8545   -3.1155 H   0  0  0  0  0  0  0  0  0  0  0  0
    6.4665   -0.6015    0.8684 H   0  0  0  0  0  0  0  0  0  0  0  0
    5.6108   -3.1277   -1.8786 H   0  0  0  0  0  0  0  0  0  0  0  0
    7.1500   -3.8483   -1.5526 H   0  0  0  0  0  0  0  0  0  0  0  0
    5.5740   -5.3067   -0.8280 H   0  0  0  0  0  0  0  0  0  0  0  0
    6.5109   -4.8157    0.4566 H   0  0  0  0  0  0  0  0  0  0  0  0
    3.5914   -3.9335    2.9345 H   0  0  0  0  0  0  0  0  0  0  0  0
    2.3499   -4.7504    2.0984 H   0  0  0  0  0  0  0  0  0  0  0  0
    5.7279   -7.6016    3.2826 H   0  0  0  0  0  0  0  0  0  0  0  0
    5.1492   -8.2717    1.7359 H   0  0  0  0  0  0  0  0  0  0  0  0
    4.4461   -8.7793    3.2728 H   0  0  0  0  0  0  0  0  0  0  0  0
    3.9362   -6.2062    4.7196 H   0  0  0  0  0  0  0  0  0  0  0  0
    2.8715   -7.5707    4.4648 H   0  0  0  0  0  0  0  0  0  0  0  0
    2.3339   -5.9665    3.9972 H   0  0  0  0  0  0  0  0  0  0  0  0
    5.5311   -5.0331    3.7106 H   0  0  0  0  0  0  0  0  0  0  0  0
    6.4900   -5.5205    2.4131 H   0  0  0  0  0  0  0  0  0  0  0  0
    5.8866   -2.9447    3.4434 H   0  0  0  0  0  0  0  0  0  0  0  0
    6.8954   -3.2727    2.0544 H   0  0  0  0  0  0  0  0  0  0  0  0
    4.7678    0.2330    3.8976 H   0  0  0  0  0  0  0  0  0  0  0  0
    5.7560    0.4405    2.5025 H   0  0  0  0  0  0  0  0  0  0  0  0
    6.1659   -0.7949    3.6627 H   0  0  0  0  0  0  0  0  0  0  0  0
    2.9624   -2.5873    1.2754 H   0  0  0  0  0  0  0  0  0  0  0  0
    3.9629   -6.2050   -0.2195 H   0  0  0  0  0  0  0  0  0  0  0  0
    1.4399   -4.5841    0.3381 H   0  0  0  0  0  0  0  0  0  0  0  0
    1.8159   -5.4661   -1.0134 H   0  0  0  0  0  0  0  0  0  0  0  0
    3.0459   -7.2464    2.0976 H   0  0  0  0  0  0  0  0  0  0  0  0
  1  2  1  0
  1 29  1  0
  1 30  1  0
  1 31  1  0
  2  3  1  0
  3  8  2  0
  3  4  1  0
  4  5  2  0
  4 32  1  0
  5  6  1  0
  5 33  1  0
  6 28  1  0
  6  7  2  0
  7 26  1  0
  7  8  1  0
  8  9  1  0
  9 10  1  0
 10 23  1  0
 10 11  1  0
 10 34  1  1
 11 12  2  0
 11 13  1  0
 13 14  1  0
 13 35  1  0
 13 36  1  0
 15 14  1  1
 14 37  1  0
 14 38  1  0
 15 26  1  0
 15 27  1  0
 15 16  1  0
 16 17  1  0
 16 39  1  0
 16 40  1  0
 17 18  1  1
 17 21  1  0
 17 27  1  0
 18 19  1  0
 18 20  1  0
 18 58  1  0
 19 41  1  0
 19 42  1  0
 19 43  1  0
 20 44  1  0
 20 45  1  0
 20 46  1  0
 21 22  1  0
 21 47  1  0
 21 48  1  0
 22 23  1  0
 22 49  1  0
 22 50  1  0
 23 24  1  1
 23 26  1  0
 24 25  1  0
 25 51  1  0
 25 52  1  0
 25 53  1  0
 26 54  1  1
 27 28  1  0
 27 55  1  6
 28 56  1  0
 28 57  1  0
M  CHG  1  18   1
M  END
>  <i_m_ct_stereo_status>  (361) 
1

>  <s_m_source_file>  (361) 
/var/tmp/pbs.5076255.sched01/tmpsabrbf27/138opeauupd.sdf

>  <i_m_source_file_index>  (361) 
10

>  <i_lp_mmshare_version>  (361) 
48012

>  <i_f3d_flags>  (361) 
0

>  <s_epik_input>  (361) 
W0NAXTEyM1tDSF00YzVjNltjSF1bY0hdYyhPW0NIM10pYzVPW0NASF0oQyg9TylbQ0gyXVtDSDJdMSlbQ0BdNChPW0NIM10pW0NIMl1bQ0gyXVtDQF0oW0NIMl0yKShOKFtDSDNdKVtDSDNdKVtDQEhdM1tDSDJdNg==

>  <s_epik_cmdline>  (361) 
J2VwaWtfcHl0aG9uJywgJy1waHQnLCAnMi4wJywgJy1waCcsICc3LjAnLCAnLXRuJywgJzgnLCAnLW1hJywgJzIwMCcsICctaW1hZScsICc8aW5maWxlLm1hZT4nLCAnLW9tYWUnLCAnPG91dGZpbGUubWFlPic=

>  <r_lp_tautomer_probability>  (361) 
1

>  <r_epik_Ionization_Penalty>  (361) 
0.00243295

>  <r_epik_Ionization_Penalty_Charging>  (361) 
0.00243295

>  <r_epik_Ionization_Penalty_Neutral>  (361) 
9.66713e-11

>  <r_epik_State_Penalty>  (361) 
0.00168414

>  <r_epik_Charging_Adjusted_Penalty>  (361) 
0.00411708

>  <i_epik_Tot_Q>  (361) 
1

>  <i_epik_Tot_abs_Q>  (361) 
1

>  <s_lp_Force_Field>  (361) 
OPLS3e

>  <r_lp_Energy>  (361) 
300.278

>  <b_lp_Chiralities_Consistent>  (361) 
1

>  <s_lp_Variant>  (361) 
93:0-1

>  <s_i_glide_gridfile>  (361) 
pfpi4k_grid

>  <i_i_glide_lignum>  (361) 
10

>  <i_i_glide_rotatable_bonds>  (361) 
3

>  <r_i_docking_score>  (361) 
-3.14597

>  <r_i_glide_ligand_efficiency>  (361) 
-0.112356

>  <r_i_glide_ligand_efficiency_sa>  (361) 
-0.341179

>  <r_i_glide_ligand_efficiency_ln>  (361) 
-0.726182

>  <r_i_glide_gscore>  (361) 
-3.14597

>  <r_i_glide_lipo>  (361) 
-0.870886

>  <r_i_glide_hbond>  (361) 
-0.132273

>  <r_i_glide_metal>  (361) 
-0

>  <r_i_glide_rewards>  (361) 
-0.787578

>  <r_i_glide_evdw>  (361) 
-22.0018

>  <r_i_glide_ecoul>  (361) 
-1.50039

>  <r_i_glide_erotb>  (361) 
0

>  <r_i_glide_esite>  (361) 
-0.0300832

>  <r_i_glide_emodel>  (361) 
-24.0987

>  <r_i_glide_energy>  (361) 
-23.5022

>  <r_i_glide_einternal>  (361) 
4.75334

>  <r_i_glide_intrahb_reward>  (361) 
-0

>  <i_i_glide_confnum>  (361) 
2

>  <i_i_glide_posenum>  (361) 
1

>  <r_i_glide_eff_state_penalty>  (361) 
0

>  <ligand_id>  (361) 
93

>  <original_smiles>  (361) 
COc1ccc2c3c1OC1C(=O)CCC45CC(N(C)C)(CCC1(OC)C34)C5C2

>  <smiles>  (361) 
[H]c1c([H])c2c3c(c1OC([H])([H])[H])OC1([H])C(=O)C([H])([H])C([H])([H])C45C([H])([H])C([N+]([H])(C([H])([H])[H])C([H])([H])[H])(C([H])([H])C([H])([H])C1(OC([H])([H])[H])C34[H])C5([H])C2([H])[H]

$$$$
96:0:0
     RDKit          3D

 34 36  0  0  1  0  0  0  0  0999 V2000
   -2.4730    2.3072    7.1298 C   0  0  0  0  0  0  0  0  0  0  0  0
   -1.7752    2.1265    5.7993 C   0  0  0  0  0  0  0  0  0  0  0  0
   -2.1004    2.9534    4.7086 C   0  0  0  0  0  0  0  0  0  0  0  0
   -1.4643    2.7575    3.4723 C   0  0  0  0  0  0  0  0  0  0  0  0
   -0.5146    1.7372    3.2939 C   0  0  0  0  0  0  0  0  0  0  0  0
    0.0419    1.5826    2.0825 N   0  0  0  0  0  0  0  0  0  0  0  0
    0.9544    0.6214    1.8983 C   0  0  0  0  0  0  0  0  0  0  0  0
    1.3858   -0.2644    2.9070 C   0  0  0  0  0  0  0  0  0  0  0  0
    2.4013   -1.3208    2.5388 C   0  0  0  0  0  0  0  0  0  0  0  0
    2.3315   -1.8062    1.2882 N   0  0  0  0  0  0  0  0  0  0  0  0
    3.2456   -1.7350    3.3273 O   0  0  0  0  0  0  0  0  0  0  0  0
    0.8465   -0.0750    4.2172 C   0  0  0  0  0  0  0  0  0  0  0  0
    1.3093   -0.8129    5.3260 N   0  0  0  0  0  0  0  0  0  0  0  0
    0.6412   -1.8479    5.9965 C   0  0  0  0  0  0  0  0  0  0  0  0
    1.2924   -2.5924    7.0009 C   0  0  0  0  0  0  0  0  0  0  0  0
    0.5285   -3.5493    7.7020 C   0  0  0  0  0  0  0  0  0  0  0  0
   -0.7864   -3.7576    7.4536 N   0  0  0  0  0  0  0  0  0  0  0  0
   -1.3861   -3.0756    6.4770 N   0  0  0  0  0  0  0  0  0  0  0  0
   -0.7038   -2.1721    5.7372 C   0  0  0  0  0  0  0  0  0  0  0  0
   -0.1586    0.9153    4.3990 C   0  0  0  0  0  0  0  0  0  0  0  0
   -0.7981    1.1262    5.6450 C   0  0  0  0  0  0  0  0  0  0  0  0
   -3.2125    3.1040    7.0816 H   0  0  0  0  0  0  0  0  0  0  0  0
   -1.7539    2.5547    7.9086 H   0  0  0  0  0  0  0  0  0  0  0  0
   -2.9827    1.3848    7.4035 H   0  0  0  0  0  0  0  0  0  0  0  0
   -2.8436    3.7312    4.8148 H   0  0  0  0  0  0  0  0  0  0  0  0
   -1.6914    3.3940    2.6286 H   0  0  0  0  0  0  0  0  0  0  0  0
    1.3420    0.5728    0.8867 H   0  0  0  0  0  0  0  0  0  0  0  0
    1.6682   -1.4457    0.5929 H   0  0  0  0  0  0  0  0  0  0  0  0
    3.0023   -2.5090    1.0077 H   0  0  0  0  0  0  0  0  0  0  0  0
    2.3278   -2.4321    7.2542 H   0  0  0  0  0  0  0  0  0  0  0  0
    0.9563   -4.1353    8.5000 H   0  0  0  0  0  0  0  0  0  0  0  0
   -1.2895   -1.6583    4.9924 H   0  0  0  0  0  0  0  0  0  0  0  0
   -0.5413    0.5186    6.4951 H   0  0  0  0  0  0  0  0  0  0  0  0
    2.2869   -0.6635    5.5623 H   0  0  0  0  0  0  0  0  0  0  0  0
  1  2  1  0
  1 22  1  0
  1 23  1  0
  1 24  1  0
  2 21  2  0
  2  3  1  0
  3  4  2  0
  3 25  1  0
  4  5  1  0
  4 26  1  0
  5 20  2  0
  5  6  1  0
  6  7  2  0
  7  8  1  0
  7 27  1  0
  8  9  1  0
  8 12  2  0
  9 10  1  0
  9 11  2  0
 10 28  1  0
 10 29  1  0
 12 13  1  0
 12 20  1  0
 13 14  1  0
 13 34  1  0
 14 19  1  0
 14 15  2  0
 15 16  1  0
 15 30  1  0
 16 17  2  0
 16 31  1  0
 17 18  1  0
 18 19  2  0
 19 32  1  0
 20 21  1  0
 21 33  1  0
M  END
>  <i_m_ct_stereo_status>  (362) 
1

>  <s_m_source_file>  (362) 
/var/tmp/pbs.5076255.sched01/tmpsabrbf27/138opeauupd.sdf

>  <i_m_source_file_index>  (362) 
14

>  <i_lp_mmshare_version>  (362) 
48012

>  <i_f3d_flags>  (362) 
0

>  <s_epik_input>  (362) 
W2NIXTFbY0hdYyhbQ0gzXSlbY0hdYyhjMTIpYyhcYyhbY0hdW25IXTIpQyg9TylbTkgyXSk9TlxjM1tjSF1bY0hdbm5bY0hdMw==

>  <s_epik_cmdline>  (362) 
J2VwaWtfcHl0aG9uJywgJy1waHQnLCAnMi4wJywgJy1waCcsICc3LjAnLCAnLXRuJywgJzgnLCAnLW1hJywgJzIwMCcsICctaW1hZScsICc8aW5maWxlLm1hZT4nLCAnLW9tYWUnLCAnPG91dGZpbGUubWFlPic=

>  <r_lp_tautomer_probability>  (362) 
0.999997

>  <r_epik_Ionization_Penalty>  (362) 
0.267995

>  <r_epik_Ionization_Penalty_Charging>  (362) 
0

>  <r_epik_Ionization_Penalty_Neutral>  (362) 
0.267995

>  <r_epik_State_Penalty>  (362) 
0.432609

>  <r_epik_Charging_Adjusted_Penalty>  (362) 
0.432609

>  <i_epik_Tot_Q>  (362) 
0

>  <i_epik_Tot_abs_Q>  (362) 
0

>  <s_lp_Force_Field>  (362) 
OPLS3e

>  <r_lp_Energy>  (362) 
42.195

>  <b_lp_Chiralities_Consistent>  (362) 
1

>  <s_lp_Variant>  (362) 
96:0-1

>  <s_i_glide_gridfile>  (362) 
pfpi4k_grid

>  <i_i_glide_lignum>  (362) 
14

>  <i_i_glide_rotatable_bonds>  (362) 
3

>  <r_i_docking_score>  (362) 
-3.08184

>  <r_i_glide_ligand_efficiency>  (362) 
-0.146755

>  <r_i_glide_ligand_efficiency_sa>  (362) 
-0.404885

>  <r_i_glide_ligand_efficiency_ln>  (362) 
-0.76198

>  <r_i_glide_gscore>  (362) 
-3.08184

>  <r_i_glide_lipo>  (362) 
-0.0467364

>  <r_i_glide_hbond>  (362) 
-0.16

>  <r_i_glide_metal>  (362) 
-0

>  <r_i_glide_rewards>  (362) 
-1.5048

>  <r_i_glide_evdw>  (362) 
-20.5907

>  <r_i_glide_ecoul>  (362) 
-4.21559

>  <r_i_glide_erotb>  (362) 
0.462542

>  <r_i_glide_esite>  (362) 
-0.170985

>  <r_i_glide_emodel>  (362) 
-27.3144

>  <r_i_glide_energy>  (362) 
-24.8062

>  <r_i_glide_einternal>  (362) 
4.51525

>  <r_i_glide_intrahb_reward>  (362) 
-0

>  <i_i_glide_confnum>  (362) 
6

>  <i_i_glide_posenum>  (362) 
3

>  <r_i_glide_eff_state_penalty>  (362) 
0

>  <ligand_id>  (362) 
96

>  <original_smiles>  (362) 
Cc1ccc2[nH]cc(C(N)=O)c(=Nc3ccnnc3)c2c1

>  <smiles>  (362) 
[H]c1nnc([H])c(N([H])c2c(C(=O)N([H])[H])c([H])nc3c([H])c([H])c(C([H])([H])[H])c([H])c23)c1[H]

$$$$
96:0:1
     RDKit          3D

 34 36  0  0  1  0  0  0  0  0999 V2000
    4.6205   -6.8959    0.2987 C   0  0  0  0  0  0  0  0  0  0  0  0
    3.8818   -5.8987    1.1782 C   0  0  0  0  0  0  0  0  0  0  0  0
    3.1686   -6.3334    2.3071 C   0  0  0  0  0  0  0  0  0  0  0  0
    2.4488   -5.4136    3.0824 C   0  0  0  0  0  0  0  0  0  0  0  0
    2.4333   -4.0408    2.7448 C   0  0  0  0  0  0  0  0  0  0  0  0
    1.6985   -3.2114    3.5066 N   0  0  0  0  0  0  0  0  0  0  0  0
    1.6673   -1.9084    3.1793 C   0  0  0  0  0  0  0  0  0  0  0  0
    2.3640   -1.3551    2.0907 C   0  0  0  0  0  0  0  0  0  0  0  0
    2.2198    0.1288    1.8537 C   0  0  0  0  0  0  0  0  0  0  0  0
    1.0015    0.6640    2.0668 N   0  0  0  0  0  0  0  0  0  0  0  0
    3.1553    0.8225    1.4906 O   0  0  0  0  0  0  0  0  0  0  0  0
    3.1700   -2.2165    1.2971 C   0  0  0  0  0  0  0  0  0  0  0  0
    3.9819   -1.7449    0.2486 N   0  0  0  0  0  0  0  0  0  0  0  0
    3.7540   -1.8975   -1.1442 C   0  0  0  0  0  0  0  0  0  0  0  0
    4.4169   -1.0541   -2.0567 C   0  0  0  0  0  0  0  0  0  0  0  0
    4.1885   -1.2492   -3.4342 C   0  0  0  0  0  0  0  0  0  0  0  0
    3.4232   -2.2618   -3.9201 N   0  0  0  0  0  0  0  0  0  0  0  0
    2.7419   -3.0333   -3.0559 N   0  0  0  0  0  0  0  0  0  0  0  0
    2.8940   -2.8617   -1.7163 C   0  0  0  0  0  0  0  0  0  0  0  0
    3.1802   -3.5996    1.6172 C   0  0  0  0  0  0  0  0  0  0  0  0
    3.9203   -4.5372    0.8625 C   0  0  0  0  0  0  0  0  0  0  0  0
    4.5113   -7.9150    0.6831 H   0  0  0  0  0  0  0  0  0  0  0  0
    5.6889   -6.6442    0.2785 H   0  0  0  0  0  0  0  0  0  0  0  0
    4.2222   -6.8656   -0.7146 H   0  0  0  0  0  0  0  0  0  0  0  0
    3.1556   -7.3906    2.5743 H   0  0  0  0  0  0  0  0  0  0  0  0
    1.9233   -5.7410    3.9671 H   0  0  0  0  0  0  0  0  0  0  0  0
    1.0847   -1.2967    3.8569 H   0  0  0  0  0  0  0  0  0  0  0  0
    0.2092    0.0832    2.3317 H   0  0  0  0  0  0  0  0  0  0  0  0
    0.8384    1.6465    1.8636 H   0  0  0  0  0  0  0  0  0  0  0  0
    5.0538   -0.2520   -1.7141 H   0  0  0  0  0  0  0  0  0  0  0  0
    4.6557   -0.6229   -4.2006 H   0  0  0  0  0  0  0  0  0  0  0  0
    2.2715   -3.5210   -1.1450 H   0  0  0  0  0  0  0  0  0  0  0  0
    4.5175   -4.2206    0.0321 H   0  0  0  0  0  0  0  0  0  0  0  0
    4.6208   -0.9932    0.5283 H   0  0  0  0  0  0  0  0  0  0  0  0
  1  2  1  0
  1 22  1  0
  1 23  1  0
  1 24  1  0
  2 21  2  0
  2  3  1  0
  3  4  2  0
  3 25  1  0
  4  5  1  0
  4 26  1  0
  5 20  2  0
  5  6  1  0
  6  7  2  0
  7  8  1  0
  7 27  1  0
  8  9  1  0
  8 12  2  0
  9 10  1  0
  9 11  2  0
 10 28  1  0
 10 29  1  0
 12 13  1  0
 12 20  1  0
 13 14  1  0
 13 34  1  0
 14 19  1  0
 14 15  2  0
 15 16  1  0
 15 30  1  0
 16 17  2  0
 16 31  1  0
 17 18  1  0
 18 19  2  0
 19 32  1  0
 20 21  1  0
 21 33  1  0
M  END
>  <i_m_ct_stereo_status>  (363) 
1

>  <s_m_source_file>  (363) 
/var/tmp/pbs.5076255.sched01/tmpsabrbf27/138opeauupd.sdf

>  <i_m_source_file_index>  (363) 
14

>  <i_lp_mmshare_version>  (363) 
48012

>  <i_f3d_flags>  (363) 
0

>  <s_epik_input>  (363) 
W2NIXTFbY0hdYyhbQ0gzXSlbY0hdYyhjMTIpYyhcYyhbY0hdW25IXTIpQyg9TylbTkgyXSk9TlxjM1tjSF1bY0hdbm5bY0hdMw==

>  <s_epik_cmdline>  (363) 
J2VwaWtfcHl0aG9uJywgJy1waHQnLCAnMi4wJywgJy1waCcsICc3LjAnLCAnLXRuJywgJzgnLCAnLW1hJywgJzIwMCcsICctaW1hZScsICc8aW5maWxlLm1hZT4nLCAnLW9tYWUnLCAnPG91dGZpbGUubWFlPic=

>  <r_lp_tautomer_probability>  (363) 
0.999997

>  <r_epik_Ionization_Penalty>  (363) 
0.267995

>  <r_epik_Ionization_Penalty_Charging>  (363) 
0

>  <r_epik_Ionization_Penalty_Neutral>  (363) 
0.267995

>  <r_epik_State_Penalty>  (363) 
0.432609

>  <r_epik_Charging_Adjusted_Penalty>  (363) 
0.432609

>  <i_epik_Tot_Q>  (363) 
0

>  <i_epik_Tot_abs_Q>  (363) 
0

>  <s_lp_Force_Field>  (363) 
OPLS3e

>  <r_lp_Energy>  (363) 
42.195

>  <b_lp_Chiralities_Consistent>  (363) 
1

>  <s_lp_Variant>  (363) 
96:0-1

>  <s_i_glide_gridfile>  (363) 
pfpi4k_grid

>  <i_i_glide_lignum>  (363) 
14

>  <i_i_glide_rotatable_bonds>  (363) 
3

>  <r_i_docking_score>  (363) 
-3.03065

>  <r_i_glide_ligand_efficiency>  (363) 
-0.144316

>  <r_i_glide_ligand_efficiency_sa>  (363) 
-0.398158

>  <r_i_glide_ligand_efficiency_ln>  (363) 
-0.749321

>  <r_i_glide_gscore>  (363) 
-3.03065

>  <r_i_glide_lipo>  (363) 
-0.341736

>  <r_i_glide_hbond>  (363) 
0

>  <r_i_glide_metal>  (363) 
-0

>  <r_i_glide_rewards>  (363) 
-1.5048

>  <r_i_glide_evdw>  (363) 
-27.6894

>  <r_i_glide_ecoul>  (363) 
-0.877307

>  <r_i_glide_erotb>  (363) 
0.462542

>  <r_i_glide_esite>  (363) 
-0.130592

>  <r_i_glide_emodel>  (363) 
-30.8339

>  <r_i_glide_energy>  (363) 
-28.5667

>  <r_i_glide_einternal>  (363) 
4.85857

>  <r_i_glide_intrahb_reward>  (363) 
-0

>  <i_i_glide_confnum>  (363) 
6

>  <i_i_glide_posenum>  (363) 
4

>  <r_i_glide_eff_state_penalty>  (363) 
0

>  <ligand_id>  (363) 
96

>  <original_smiles>  (363) 
Cc1ccc2[nH]cc(C(N)=O)c(=Nc3ccnnc3)c2c1

>  <smiles>  (363) 
[H]c1nnc([H])c(N([H])c2c(C(=O)N([H])[H])c([H])nc3c([H])c([H])c(C([H])([H])[H])c([H])c23)c1[H]

$$$$
96:0:2
     RDKit          3D

 34 36  0  0  1  0  0  0  0  0999 V2000
   -2.4886    2.3152    7.1482 C   0  0  0  0  0  0  0  0  0  0  0  0
   -1.7895    2.1584    5.8157 C   0  0  0  0  0  0  0  0  0  0  0  0
   -2.1838    2.9429    4.7161 C   0  0  0  0  0  0  0  0  0  0  0  0
   -1.5606    2.7654    3.4697 C   0  0  0  0  0  0  0  0  0  0  0  0
   -0.5463    1.8080    3.2935 C   0  0  0  0  0  0  0  0  0  0  0  0
    0.0011    1.6767    2.0803 N   0  0  0  0  0  0  0  0  0  0  0  0
    0.9772    0.7821    1.8922 C   0  0  0  0  0  0  0  0  0  0  0  0
    1.4885   -0.0578    2.9054 C   0  0  0  0  0  0  0  0  0  0  0  0
    2.5921   -1.0295    2.5486 C   0  0  0  0  0  0  0  0  0  0  0  0
    2.6125   -1.4661    1.2813 N   0  0  0  0  0  0  0  0  0  0  0  0
    3.4213   -1.4337    3.3624 O   0  0  0  0  0  0  0  0  0  0  0  0
    0.9398    0.0986    4.2135 C   0  0  0  0  0  0  0  0  0  0  0  0
    1.4877   -0.5687    5.3220 N   0  0  0  0  0  0  0  0  0  0  0  0
    0.9300   -1.5983    6.0890 C   0  0  0  0  0  0  0  0  0  0  0  0
   -0.1027   -2.4399    5.6279 C   0  0  0  0  0  0  0  0  0  0  0  0
   -0.5851   -3.4126    6.5256 C   0  0  0  0  0  0  0  0  0  0  0  0
   -0.1153   -3.5407    7.7869 N   0  0  0  0  0  0  0  0  0  0  0  0
    0.8863   -2.7638    8.2157 N   0  0  0  0  0  0  0  0  0  0  0  0
    1.4104   -1.8238    7.3947 C   0  0  0  0  0  0  0  0  0  0  0  0
   -0.1261    1.0269    4.4030 C   0  0  0  0  0  0  0  0  0  0  0  0
   -0.7578    1.2120    5.6593 C   0  0  0  0  0  0  0  0  0  0  0  0
   -3.2831    3.0592    7.0948 H   0  0  0  0  0  0  0  0  0  0  0  0
   -1.7801    2.6305    7.9144 H   0  0  0  0  0  0  0  0  0  0  0  0
   -2.9402    1.3715    7.4495 H   0  0  0  0  0  0  0  0  0  0  0  0
   -2.9750    3.6683    4.8189 H   0  0  0  0  0  0  0  0  0  0  0  0
   -1.8571    3.3661    2.6228 H   0  0  0  0  0  0  0  0  0  0  0  0
    1.3518    0.7464    0.8800 H   0  0  0  0  0  0  0  0  0  0  0  0
    1.9304   -1.1428    0.5923 H   0  0  0  0  0  0  0  0  0  0  0  0
    3.3146   -2.1340    1.0055 H   0  0  0  0  0  0  0  0  0  0  0  0
   -0.5066   -2.3602    4.6301 H   0  0  0  0  0  0  0  0  0  0  0  0
   -1.3757   -4.0934    6.2553 H   0  0  0  0  0  0  0  0  0  0  0  0
    2.2121   -1.2266    7.7981 H   0  0  0  0  0  0  0  0  0  0  0  0
   -0.4537    0.6317    6.5140 H   0  0  0  0  0  0  0  0  0  0  0  0
    2.4026   -0.2437    5.6075 H   0  0  0  0  0  0  0  0  0  0  0  0
  1  2  1  0
  1 22  1  0
  1 23  1  0
  1 24  1  0
  2 21  2  0
  2  3  1  0
  3  4  2  0
  3 25  1  0
  4  5  1  0
  4 26  1  0
  5 20  2  0
  5  6  1  0
  6  7  2  0
  7  8  1  0
  7 27  1  0
  8  9  1  0
  8 12  2  0
  9 10  1  0
  9 11  2  0
 10 28  1  0
 10 29  1  0
 12 13  1  0
 12 20  1  0
 13 14  1  0
 13 34  1  0
 14 19  1  0
 14 15  2  0
 15 16  1  0
 15 30  1  0
 16 17  2  0
 16 31  1  0
 17 18  1  0
 18 19  2  0
 19 32  1  0
 20 21  1  0
 21 33  1  0
M  END
>  <i_m_ct_stereo_status>  (364) 
1

>  <s_m_source_file>  (364) 
/var/tmp/pbs.5076255.sched01/tmpsabrbf27/138opeauupd.sdf

>  <i_m_source_file_index>  (364) 
14

>  <i_lp_mmshare_version>  (364) 
48012

>  <i_f3d_flags>  (364) 
0

>  <s_epik_input>  (364) 
W2NIXTFbY0hdYyhbQ0gzXSlbY0hdYyhjMTIpYyhcYyhbY0hdW25IXTIpQyg9TylbTkgyXSk9TlxjM1tjSF1bY0hdbm5bY0hdMw==

>  <s_epik_cmdline>  (364) 
J2VwaWtfcHl0aG9uJywgJy1waHQnLCAnMi4wJywgJy1waCcsICc3LjAnLCAnLXRuJywgJzgnLCAnLW1hJywgJzIwMCcsICctaW1hZScsICc8aW5maWxlLm1hZT4nLCAnLW9tYWUnLCAnPG91dGZpbGUubWFlPic=

>  <r_lp_tautomer_probability>  (364) 
0.999997

>  <r_epik_Ionization_Penalty>  (364) 
0.267995

>  <r_epik_Ionization_Penalty_Charging>  (364) 
0

>  <r_epik_Ionization_Penalty_Neutral>  (364) 
0.267995

>  <r_epik_State_Penalty>  (364) 
0.432609

>  <r_epik_Charging_Adjusted_Penalty>  (364) 
0.432609

>  <i_epik_Tot_Q>  (364) 
0

>  <i_epik_Tot_abs_Q>  (364) 
0

>  <s_lp_Force_Field>  (364) 
OPLS3e

>  <r_lp_Energy>  (364) 
42.195

>  <b_lp_Chiralities_Consistent>  (364) 
1

>  <s_lp_Variant>  (364) 
96:0-1

>  <s_i_glide_gridfile>  (364) 
pfpi4k_grid

>  <i_i_glide_lignum>  (364) 
14

>  <i_i_glide_rotatable_bonds>  (364) 
3

>  <r_i_docking_score>  (364) 
-2.90651

>  <r_i_glide_ligand_efficiency>  (364) 
-0.138405

>  <r_i_glide_ligand_efficiency_sa>  (364) 
-0.381849

>  <r_i_glide_ligand_efficiency_ln>  (364) 
-0.718628

>  <r_i_glide_gscore>  (364) 
-2.90651

>  <r_i_glide_lipo>  (364) 
-0.0496736

>  <r_i_glide_hbond>  (364) 
-0.16

>  <r_i_glide_metal>  (364) 
-0

>  <r_i_glide_rewards>  (364) 
-1.5048

>  <r_i_glide_evdw>  (364) 
-21.1131

>  <r_i_glide_ecoul>  (364) 
-3.154

>  <r_i_glide_erotb>  (364) 
0.462542

>  <r_i_glide_esite>  (364) 
-0.125828

>  <r_i_glide_emodel>  (364) 
-26.5857

>  <r_i_glide_energy>  (364) 
-24.2671

>  <r_i_glide_einternal>  (364) 
4.9654

>  <r_i_glide_intrahb_reward>  (364) 
-0

>  <i_i_glide_confnum>  (364) 
1

>  <i_i_glide_posenum>  (364) 
13

>  <r_i_glide_eff_state_penalty>  (364) 
0

>  <ligand_id>  (364) 
96

>  <original_smiles>  (364) 
Cc1ccc2[nH]cc(C(N)=O)c(=Nc3ccnnc3)c2c1

>  <smiles>  (364) 
[H]c1nnc([H])c(N([H])c2c(C(=O)N([H])[H])c([H])nc3c([H])c([H])c(C([H])([H])[H])c([H])c23)c1[H]

$$$$
96:1:0
     RDKit          3D

 35 37  0  0  1  0  0  0  0  0999 V2000
   -6.9270   -4.2828   -4.1970 C   0  0  0  0  0  0  0  0  0  0  0  0
   -6.7395   -5.6030   -4.9070 C   0  0  0  0  0  0  0  0  0  0  0  0
   -5.7367   -6.4941   -4.4864 C   0  0  0  0  0  0  0  0  0  0  0  0
   -5.5504   -7.7235   -5.1408 C   0  0  0  0  0  0  0  0  0  0  0  0
   -6.3797   -8.0638   -6.2212 C   0  0  0  0  0  0  0  0  0  0  0  0
   -6.1727   -9.2685   -6.8902 N   0  0  0  0  0  0  0  0  0  0  0  0
   -6.8114   -9.5227   -8.0839 C   0  0  0  0  0  0  0  0  0  0  0  0
   -7.7804   -8.7297   -8.6098 C   0  0  0  0  0  0  0  0  0  0  0  0
   -8.3107   -9.0784   -9.9292 C   0  0  0  0  0  0  0  0  0  0  0  0
   -8.4239  -10.3895  -10.1657 N   0  0  0  0  0  0  0  0  0  0  0  0
   -8.5783   -8.2802  -10.8198 O   0  0  0  0  0  0  0  0  0  0  0  0
   -8.2414   -7.5809   -7.8516 C   0  0  0  0  0  0  0  0  0  0  0  0
   -9.3029   -6.8458   -8.0536 N   0  0  0  0  0  0  0  0  0  0  0  0
  -10.4810   -7.0535   -8.8688 C   0  0  0  0  0  0  0  0  0  0  0  0
  -11.5389   -7.8774   -8.4341 C   0  0  0  0  0  0  0  0  0  0  0  0
  -12.5999   -8.0638   -9.3451 C   0  0  0  0  0  0  0  0  0  0  0  0
  -12.6214   -7.4924  -10.5747 N   0  0  0  0  0  0  0  0  0  0  0  0
  -11.6346   -6.6696  -10.9561 N   0  0  0  0  0  0  0  0  0  0  0  0
  -10.5898   -6.4412  -10.1327 C   0  0  0  0  0  0  0  0  0  0  0  0
   -7.4093   -7.1888   -6.6652 C   0  0  0  0  0  0  0  0  0  0  0  0
   -7.5722   -5.9463   -5.9917 C   0  0  0  0  0  0  0  0  0  0  0  0
   -5.4393   -9.8882   -6.5685 H   0  0  0  0  0  0  0  0  0  0  0  0
   -6.1865   -4.1284   -3.4128 H   0  0  0  0  0  0  0  0  0  0  0  0
   -7.9175   -4.2555   -3.7417 H   0  0  0  0  0  0  0  0  0  0  0  0
   -6.8440   -3.4564   -4.8980 H   0  0  0  0  0  0  0  0  0  0  0  0
   -5.1085   -6.2519   -3.6470 H   0  0  0  0  0  0  0  0  0  0  0  0
   -4.7627   -8.3963   -4.8110 H   0  0  0  0  0  0  0  0  0  0  0  0
   -6.4117  -10.3873   -8.5924 H   0  0  0  0  0  0  0  0  0  0  0  0
   -8.1182  -11.0668   -9.4821 H   0  0  0  0  0  0  0  0  0  0  0  0
   -8.7161  -10.6684  -11.0915 H   0  0  0  0  0  0  0  0  0  0  0  0
  -11.5513   -8.3692   -7.4780 H   0  0  0  0  0  0  0  0  0  0  0  0
  -13.4441   -8.6887   -9.1041 H   0  0  0  0  0  0  0  0  0  0  0  0
   -9.7993   -5.8135  -10.5123 H   0  0  0  0  0  0  0  0  0  0  0  0
   -8.3147   -5.2219   -6.2899 H   0  0  0  0  0  0  0  0  0  0  0  0
   -9.4361   -6.0768   -7.4013 H   0  0  0  0  0  0  0  0  0  0  0  0
  1  2  1  0
  1 23  1  0
  1 24  1  0
  1 25  1  0
  2 21  2  0
  2  3  1  0
  3  4  2  0
  3 26  1  0
  4  5  1  0
  4 27  1  0
  5 20  2  0
  5  6  1  0
  6 22  1  0
  6  7  1  0
  7  8  2  0
  7 28  1  0
  8  9  1  0
  8 12  1  0
  9 10  1  0
  9 11  2  0
 10 29  1  0
 10 30  1  0
 12 13  2  3
 12 20  1  0
 13 14  1  0
 13 35  1  0
 14 19  1  0
 14 15  2  0
 15 16  1  0
 15 31  1  0
 16 17  2  0
 16 32  1  0
 17 18  1  0
 18 19  2  0
 19 33  1  0
 20 21  1  0
 21 34  1  0
M  CHG  1  13   1
M  END
>  <i_m_ct_stereo_status>  (365) 
1

>  <s_m_source_file>  (365) 
/var/tmp/pbs.5076255.sched01/tmpsabrbf27/138opeauupd.sdf

>  <i_m_source_file_index>  (365) 
15

>  <i_lp_mmshare_version>  (365) 
48012

>  <i_f3d_flags>  (365) 
0

>  <s_epik_input>  (365) 
W2NIXTFbY0hdYyhbQ0gzXSlbY0hdYyhjMTIpYyhcYyhbY0hdW25IXTIpQyg9TylbTkgyXSk9TlxjM1tjSF1bY0hdbm5bY0hdMw==

>  <s_epik_cmdline>  (365) 
J2VwaWtfcHl0aG9uJywgJy1waHQnLCAnMi4wJywgJy1waCcsICc3LjAnLCAnLXRuJywgJzgnLCAnLW1hJywgJzIwMCcsICctaW1hZScsICc8aW5maWxlLm1hZT4nLCAnLW9tYWUnLCAnPG91dGZpbGUubWFlPic=

>  <r_epik_Ionization_Penalty>  (365) 
0.295537

>  <r_epik_Ionization_Penalty_Charging>  (365) 
7.92292e-05

>  <r_epik_Ionization_Penalty_Neutral>  (365) 
0.295458

>  <r_epik_State_Penalty>  (365) 
0.714499

>  <r_epik_Charging_Adjusted_Penalty>  (365) 
0.714578

>  <i_epik_Tot_Q>  (365) 
1

>  <i_epik_Tot_abs_Q>  (365) 
1

>  <s_epik_Chemistry_Notes>  (365) 
This compound has an imine and may undergo hydrolysis.

>  <s_lp_Force_Field>  (365) 
OPLS3e

>  <r_lp_Energy>  (365) 
53.9606

>  <b_lp_Chiralities_Consistent>  (365) 
1

>  <s_lp_Variant>  (365) 
96:0-2

>  <s_i_glide_gridfile>  (365) 
pfpi4k_grid

>  <i_i_glide_lignum>  (365) 
15

>  <i_i_glide_rotatable_bonds>  (365) 
2

>  <r_i_docking_score>  (365) 
-5.91108

>  <r_i_glide_ligand_efficiency>  (365) 
-0.28148

>  <r_i_glide_ligand_efficiency_sa>  (365) 
-0.776581

>  <r_i_glide_ligand_efficiency_ln>  (365) 
-1.4615

>  <r_i_glide_gscore>  (365) 
-5.91108

>  <r_i_glide_lipo>  (365) 
-2.33725

>  <r_i_glide_hbond>  (365) 
0

>  <r_i_glide_metal>  (365) 
-0

>  <r_i_glide_rewards>  (365) 
-1.9614

>  <r_i_glide_evdw>  (365) 
-28.4976

>  <r_i_glide_ecoul>  (365) 
-0.843471

>  <r_i_glide_erotb>  (365) 
0

>  <r_i_glide_esite>  (365) 
-0.0610272

>  <r_i_glide_emodel>  (365) 
-35.4719

>  <r_i_glide_energy>  (365) 
-29.3411

>  <r_i_glide_einternal>  (365) 
6.88177

>  <r_i_glide_intrahb_reward>  (365) 
-0

>  <i_i_glide_confnum>  (365) 
2

>  <i_i_glide_posenum>  (365) 
5

>  <r_i_glide_eff_state_penalty>  (365) 
0

>  <ligand_id>  (365) 
96

>  <original_smiles>  (365) 
Cc1ccc2[nH]cc(C(N)=O)c(=Nc3ccnnc3)c2c1

>  <smiles>  (365) 
[H]c1nnc([H])c([N+]([H])=c2c(C(=O)N([H])[H])c([H])n([H])c3c([H])c([H])c(C([H])([H])[H])c([H])c23)c1[H]

$$$$
96:1:1
     RDKit          3D

 35 37  0  0  1  0  0  0  0  0999 V2000
    1.1105   -4.9568    4.2314 C   0  0  0  0  0  0  0  0  0  0  0  0
    1.6142   -3.7234    3.5231 C   0  0  0  0  0  0  0  0  0  0  0  0
    2.5440   -3.8466    2.4752 C   0  0  0  0  0  0  0  0  0  0  0  0
    3.0107   -2.7021    1.8102 C   0  0  0  0  0  0  0  0  0  0  0  0
    2.5621   -1.4329    2.2044 C   0  0  0  0  0  0  0  0  0  0  0  0
    3.0739   -0.2974    1.5895 N   0  0  0  0  0  0  0  0  0  0  0  0
    2.8515    0.9475    2.1409 C   0  0  0  0  0  0  0  0  0  0  0  0
    1.9994    1.2033    3.1664 C   0  0  0  0  0  0  0  0  0  0  0  0
    1.9577    2.5718    3.6944 C   0  0  0  0  0  0  0  0  0  0  0  0
    2.2221    3.5338    2.8041 N   0  0  0  0  0  0  0  0  0  0  0  0
    1.6984    2.8516    4.8666 O   0  0  0  0  0  0  0  0  0  0  0  0
    1.1992    0.1089    3.6713 C   0  0  0  0  0  0  0  0  0  0  0  0
    0.1369    0.1623    4.4353 N   0  0  0  0  0  0  0  0  0  0  0  0
   -0.7375    1.2399    4.8523 C   0  0  0  0  0  0  0  0  0  0  0  0
   -1.3948    1.1537    6.0962 C   0  0  0  0  0  0  0  0  0  0  0  0
   -2.1959    2.2497    6.4772 C   0  0  0  0  0  0  0  0  0  0  0  0
   -2.3716    3.3350    5.6886 N   0  0  0  0  0  0  0  0  0  0  0  0
   -1.8041    3.3739    4.4703 N   0  0  0  0  0  0  0  0  0  0  0  0
   -1.0004    2.3712    4.0494 C   0  0  0  0  0  0  0  0  0  0  0  0
    1.6245   -1.2764    3.2583 C   0  0  0  0  0  0  0  0  0  0  0  0
    1.1632   -2.4466    3.9122 C   0  0  0  0  0  0  0  0  0  0  0  0
    3.7393   -0.4009    0.8306 H   0  0  0  0  0  0  0  0  0  0  0  0
    1.5766   -5.8663    3.8539 H   0  0  0  0  0  0  0  0  0  0  0  0
    0.0326   -5.0510    4.0914 H   0  0  0  0  0  0  0  0  0  0  0  0
    1.3068   -4.8991    5.3036 H   0  0  0  0  0  0  0  0  0  0  0  0
    2.9005   -4.8193    2.1603 H   0  0  0  0  0  0  0  0  0  0  0  0
    3.7432   -2.7988    1.0195 H   0  0  0  0  0  0  0  0  0  0  0  0
    3.4542    1.7129    1.6880 H   0  0  0  0  0  0  0  0  0  0  0  0
    2.4177    3.3046    1.8343 H   0  0  0  0  0  0  0  0  0  0  0  0
    2.1709    4.5048    3.0781 H   0  0  0  0  0  0  0  0  0  0  0  0
   -1.2582    0.3288    6.7622 H   0  0  0  0  0  0  0  0  0  0  0  0
   -2.7207    2.2660    7.4218 H   0  0  0  0  0  0  0  0  0  0  0  0
   -0.5889    2.4669    3.0490 H   0  0  0  0  0  0  0  0  0  0  0  0
    0.4780   -2.4004    4.7404 H   0  0  0  0  0  0  0  0  0  0  0  0
   -0.1603   -0.7368    4.7980 H   0  0  0  0  0  0  0  0  0  0  0  0
  1  2  1  0
  1 23  1  0
  1 24  1  0
  1 25  1  0
  2 21  2  0
  2  3  1  0
  3  4  2  0
  3 26  1  0
  4  5  1  0
  4 27  1  0
  5 20  2  0
  5  6  1  0
  6 22  1  0
  6  7  1  0
  7  8  2  0
  7 28  1  0
  8  9  1  0
  8 12  1  0
  9 10  1  0
  9 11  2  0
 10 29  1  0
 10 30  1  0
 12 13  2  3
 12 20  1  0
 13 14  1  0
 13 35  1  0
 14 19  1  0
 14 15  2  0
 15 16  1  0
 15 31  1  0
 16 17  2  0
 16 32  1  0
 17 18  1  0
 18 19  2  0
 19 33  1  0
 20 21  1  0
 21 34  1  0
M  CHG  1  13   1
M  END
>  <i_m_ct_stereo_status>  (366) 
1

>  <s_m_source_file>  (366) 
/var/tmp/pbs.5076255.sched01/tmpsabrbf27/138opeauupd.sdf

>  <i_m_source_file_index>  (366) 
15

>  <i_lp_mmshare_version>  (366) 
48012

>  <i_f3d_flags>  (366) 
0

>  <s_epik_input>  (366) 
W2NIXTFbY0hdYyhbQ0gzXSlbY0hdYyhjMTIpYyhcYyhbY0hdW25IXTIpQyg9TylbTkgyXSk9TlxjM1tjSF1bY0hdbm5bY0hdMw==

>  <s_epik_cmdline>  (366) 
J2VwaWtfcHl0aG9uJywgJy1waHQnLCAnMi4wJywgJy1waCcsICc3LjAnLCAnLXRuJywgJzgnLCAnLW1hJywgJzIwMCcsICctaW1hZScsICc8aW5maWxlLm1hZT4nLCAnLW9tYWUnLCAnPG91dGZpbGUubWFlPic=

>  <r_epik_Ionization_Penalty>  (366) 
0.295537

>  <r_epik_Ionization_Penalty_Charging>  (366) 
7.92292e-05

>  <r_epik_Ionization_Penalty_Neutral>  (366) 
0.295458

>  <r_epik_State_Penalty>  (366) 
0.714499

>  <r_epik_Charging_Adjusted_Penalty>  (366) 
0.714578

>  <i_epik_Tot_Q>  (366) 
1

>  <i_epik_Tot_abs_Q>  (366) 
1

>  <s_epik_Chemistry_Notes>  (366) 
This compound has an imine and may undergo hydrolysis.

>  <s_lp_Force_Field>  (366) 
OPLS3e

>  <r_lp_Energy>  (366) 
53.9606

>  <b_lp_Chiralities_Consistent>  (366) 
1

>  <s_lp_Variant>  (366) 
96:0-2

>  <s_i_glide_gridfile>  (366) 
pfpi4k_grid

>  <i_i_glide_lignum>  (366) 
15

>  <i_i_glide_rotatable_bonds>  (366) 
2

>  <r_i_docking_score>  (366) 
-3.46512

>  <r_i_glide_ligand_efficiency>  (366) 
-0.165006

>  <r_i_glide_ligand_efficiency_sa>  (366) 
-0.455239

>  <r_i_glide_ligand_efficiency_ln>  (366) 
-0.856744

>  <r_i_glide_gscore>  (366) 
-3.46512

>  <r_i_glide_lipo>  (366) 
-0.124529

>  <r_i_glide_hbond>  (366) 
0

>  <r_i_glide_metal>  (366) 
-0

>  <r_i_glide_rewards>  (366) 
-1.49792

>  <r_i_glide_evdw>  (366) 
-21.3653

>  <r_i_glide_ecoul>  (366) 
-4.05836

>  <r_i_glide_erotb>  (366) 
0

>  <r_i_glide_esite>  (366) 
-0.165651

>  <r_i_glide_emodel>  (366) 
-29.8206

>  <r_i_glide_energy>  (366) 
-25.4236

>  <r_i_glide_einternal>  (366) 
1.59388

>  <r_i_glide_intrahb_reward>  (366) 
-0

>  <i_i_glide_confnum>  (366) 
2

>  <i_i_glide_posenum>  (366) 
16

>  <r_i_glide_eff_state_penalty>  (366) 
0

>  <ligand_id>  (366) 
96

>  <original_smiles>  (366) 
Cc1ccc2[nH]cc(C(N)=O)c(=Nc3ccnnc3)c2c1

>  <smiles>  (366) 
[H]c1nnc([H])c([N+]([H])=c2c(C(=O)N([H])[H])c([H])n([H])c3c([H])c([H])c(C([H])([H])[H])c([H])c23)c1[H]

$$$$
96:2:0
     RDKit          3D

 35 37  0  0  1  0  0  0  0  0999 V2000
   -1.8990    1.6884    7.0818 C   0  0  0  0  0  0  0  0  0  0  0  0
   -1.2300    1.7726    5.7358 C   0  0  0  0  0  0  0  0  0  0  0  0
   -1.5195    2.8235    4.8422 C   0  0  0  0  0  0  0  0  0  0  0  0
   -0.8690    2.8829    3.6023 C   0  0  0  0  0  0  0  0  0  0  0  0
    0.0388    1.8772    3.2309 C   0  0  0  0  0  0  0  0  0  0  0  0
    0.7660    1.9893    2.0459 N   0  0  0  0  0  0  0  0  0  0  0  0
    1.8112    1.1278    1.7674 C   0  0  0  0  0  0  0  0  0  0  0  0
    2.0842    0.0222    2.5031 C   0  0  0  0  0  0  0  0  0  0  0  0
    3.2195   -0.8266    2.1265 C   0  0  0  0  0  0  0  0  0  0  0  0
    3.4041   -1.0076    0.8179 N   0  0  0  0  0  0  0  0  0  0  0  0
    3.9702   -1.3648    2.9415 O   0  0  0  0  0  0  0  0  0  0  0  0
    1.2172   -0.3220    3.5937 C   0  0  0  0  0  0  0  0  0  0  0  0
    1.2197   -1.5433    4.0909 N   0  0  0  0  0  0  0  0  0  0  0  0
    0.3198   -2.2769    4.9679 C   0  0  0  0  0  0  0  0  0  0  0  0
    0.7885   -3.3869    5.7051 C   0  0  0  0  0  0  0  0  0  0  0  0
   -0.1078   -3.9712    6.6236 C   0  0  0  0  0  0  0  0  0  0  0  0
   -1.3585   -3.5016    6.8204 N   0  0  0  0  0  0  0  0  0  0  0  0
   -1.8108   -2.4794    6.0763 N   0  0  0  0  0  0  0  0  0  0  0  0
   -1.0257   -1.9103    5.1456 C   0  0  0  0  0  0  0  0  0  0  0  0
    0.2814    0.7563    4.0771 C   0  0  0  0  0  0  0  0  0  0  0  0
   -0.2759    0.7989    5.3804 C   0  0  0  0  0  0  0  0  0  0  0  0
    0.6143    2.8226    1.4649 H   0  0  0  0  0  0  0  0  0  0  0  0
   -2.4373    2.5987    7.3301 H   0  0  0  0  0  0  0  0  0  0  0  0
   -1.1661    1.5013    7.8643 H   0  0  0  0  0  0  0  0  0  0  0  0
   -2.6157    0.8738    7.0904 H   0  0  0  0  0  0  0  0  0  0  0  0
   -2.2316    3.5807    5.1159 H   0  0  0  0  0  0  0  0  0  0  0  0
   -1.0440    3.7207    2.9371 H   0  0  0  0  0  0  0  0  0  0  0  0
    2.4245    1.4357    0.9337 H   0  0  0  0  0  0  0  0  0  0  0  0
    2.7253   -0.6533    0.1501 H   0  0  0  0  0  0  0  0  0  0  0  0
    4.1808   -1.5737    0.5041 H   0  0  0  0  0  0  0  0  0  0  0  0
    1.7914   -3.7725    5.6161 H   0  0  0  0  0  0  0  0  0  0  0  0
    0.1630   -4.8223    7.2329 H   0  0  0  0  0  0  0  0  0  0  0  0
   -1.4828   -1.1497    4.5322 H   0  0  0  0  0  0  0  0  0  0  0  0
   -0.0054    0.0577    6.1184 H   0  0  0  0  0  0  0  0  0  0  0  0
    1.9858   -2.1178    3.7330 H   0  0  0  0  0  0  0  0  0  0  0  0
  1  2  1  0
  1 23  1  0
  1 24  1  0
  1 25  1  0
  2 21  2  0
  2  3  1  0
  3  4  2  0
  3 26  1  0
  4  5  1  0
  4 27  1  0
  5 20  2  0
  5  6  1  0
  6 22  1  0
  6  7  1  0
  7  8  2  0
  7 28  1  0
  8  9  1  0
  8 12  1  0
  9 10  1  0
  9 11  2  0
 10 29  1  0
 10 30  1  0
 12 13  2  3
 12 20  1  0
 13 14  1  0
 13 35  1  0
 14 19  1  0
 14 15  2  0
 15 16  1  0
 15 31  1  0
 16 17  2  0
 16 32  1  0
 17 18  1  0
 18 19  2  0
 19 33  1  0
 20 21  1  0
 21 34  1  0
M  CHG  1  13   1
M  END
>  <i_m_ct_stereo_status>  (367) 
1

>  <s_m_source_file>  (367) 
/var/tmp/pbs.5076255.sched01/tmpsabrbf27/138opeauupd.sdf

>  <i_m_source_file_index>  (367) 
16

>  <i_lp_mmshare_version>  (367) 
48012

>  <i_f3d_flags>  (367) 
0

>  <s_epik_input>  (367) 
W2NIXTFbY0hdYyhbQ0gzXSlbY0hdYyhjMTIpYyhcYyhbY0hdW25IXTIpQyg9TylbTkgyXSk9TlxjM1tjSF1bY0hdbm5bY0hdMw==

>  <s_epik_cmdline>  (367) 
J2VwaWtfcHl0aG9uJywgJy1waHQnLCAnMi4wJywgJy1waCcsICc3LjAnLCAnLXRuJywgJzgnLCAnLW1hJywgJzIwMCcsICctaW1hZScsICc8aW5maWxlLm1hZT4nLCAnLW9tYWUnLCAnPG91dGZpbGUubWFlPic=

>  <r_epik_Ionization_Penalty>  (367) 
0.295537

>  <r_epik_Ionization_Penalty_Charging>  (367) 
7.92292e-05

>  <r_epik_Ionization_Penalty_Neutral>  (367) 
0.295458

>  <r_epik_State_Penalty>  (367) 
0.714499

>  <r_epik_Charging_Adjusted_Penalty>  (367) 
0.714578

>  <i_epik_Tot_Q>  (367) 
1

>  <i_epik_Tot_abs_Q>  (367) 
1

>  <s_epik_Chemistry_Notes>  (367) 
This compound has an imine and may undergo hydrolysis.

>  <s_lp_Force_Field>  (367) 
OPLS3e

>  <r_lp_Energy>  (367) 
53.8882

>  <b_lp_Chiralities_Consistent>  (367) 
1

>  <s_lp_Variant>  (367) 
96:0-3

>  <s_i_glide_gridfile>  (367) 
pfpi4k_grid

>  <i_i_glide_lignum>  (367) 
16

>  <i_i_glide_rotatable_bonds>  (367) 
2

>  <r_i_docking_score>  (367) 
-3.94482

>  <r_i_glide_ligand_efficiency>  (367) 
-0.187849

>  <r_i_glide_ligand_efficiency_sa>  (367) 
-0.51826

>  <r_i_glide_ligand_efficiency_ln>  (367) 
-0.975349

>  <r_i_glide_gscore>  (367) 
-3.94482

>  <r_i_glide_lipo>  (367) 
-0.00988811

>  <r_i_glide_hbond>  (367) 
-0.231463

>  <r_i_glide_metal>  (367) 
-0

>  <r_i_glide_rewards>  (367) 
-1.49792

>  <r_i_glide_evdw>  (367) 
-17.8561

>  <r_i_glide_ecoul>  (367) 
-7.14859

>  <r_i_glide_erotb>  (367) 
0

>  <r_i_glide_esite>  (367) 
-0.240454

>  <r_i_glide_emodel>  (367) 
-30.096

>  <r_i_glide_energy>  (367) 
-25.0047

>  <r_i_glide_einternal>  (367) 
2.43518

>  <r_i_glide_intrahb_reward>  (367) 
-0

>  <i_i_glide_confnum>  (367) 
2

>  <i_i_glide_posenum>  (367) 
16

>  <r_i_glide_eff_state_penalty>  (367) 
0

>  <ligand_id>  (367) 
96

>  <original_smiles>  (367) 
Cc1ccc2[nH]cc(C(N)=O)c(=Nc3ccnnc3)c2c1

>  <smiles>  (367) 
[H]c1nnc([H])c([N+]([H])=c2c(C(=O)N([H])[H])c([H])n([H])c3c([H])c([H])c(C([H])([H])[H])c([H])c23)c1[H]

$$$$
96:2:1
     RDKit          3D

 35 37  0  0  1  0  0  0  0  0999 V2000
   -1.4664    2.6914    7.1556 C   0  0  0  0  0  0  0  0  0  0  0  0
   -1.1059    2.2516    5.7576 C   0  0  0  0  0  0  0  0  0  0  0  0
   -1.9470    2.5498    4.6728 C   0  0  0  0  0  0  0  0  0  0  0  0
   -1.5940    2.1426    3.3751 C   0  0  0  0  0  0  0  0  0  0  0  0
   -0.4114    1.3992    3.1851 C   0  0  0  0  0  0  0  0  0  0  0  0
   -0.0030    1.0596    1.8950 N   0  0  0  0  0  0  0  0  0  0  0  0
    1.2607    0.5602    1.6835 C   0  0  0  0  0  0  0  0  0  0  0  0
    2.1028    0.1467    2.6530 C   0  0  0  0  0  0  0  0  0  0  0  0
    3.4222   -0.4158    2.2936 C   0  0  0  0  0  0  0  0  0  0  0  0
    3.5809   -0.7520    1.0052 N   0  0  0  0  0  0  0  0  0  0  0  0
    4.3443   -0.5853    3.0886 O   0  0  0  0  0  0  0  0  0  0  0  0
    1.6409    0.1790    4.0156 C   0  0  0  0  0  0  0  0  0  0  0  0
    2.2240   -0.5349    4.9361 N   0  0  0  0  0  0  0  0  0  0  0  0
    1.8784   -0.9373    6.2922 C   0  0  0  0  0  0  0  0  0  0  0  0
    2.8840   -1.2393    7.2313 C   0  0  0  0  0  0  0  0  0  0  0  0
    2.4779   -1.4902    8.5628 C   0  0  0  0  0  0  0  0  0  0  0  0
    1.1779   -1.4393    8.9355 N   0  0  0  0  0  0  0  0  0  0  0  0
    0.2245   -1.2386    8.0213 N   0  0  0  0  0  0  0  0  0  0  0  0
    0.5461   -0.9784    6.7389 C   0  0  0  0  0  0  0  0  0  0  0  0
    0.4119    1.0208    4.2809 C   0  0  0  0  0  0  0  0  0  0  0  0
    0.0774    1.5252    5.5589 C   0  0  0  0  0  0  0  0  0  0  0  0
   -0.5471    1.3691    1.0908 H   0  0  0  0  0  0  0  0  0  0  0  0
   -2.3027    3.3909    7.1650 H   0  0  0  0  0  0  0  0  0  0  0  0
   -0.6170    3.1728    7.6322 H   0  0  0  0  0  0  0  0  0  0  0  0
   -1.7445    1.8352    7.7683 H   0  0  0  0  0  0  0  0  0  0  0  0
   -2.8756    3.0885    4.8191 H   0  0  0  0  0  0  0  0  0  0  0  0
   -2.2088    2.4059    2.5301 H   0  0  0  0  0  0  0  0  0  0  0  0
    1.5124    0.5636    0.6225 H   0  0  0  0  0  0  0  0  0  0  0  0
    2.8087   -0.6670    0.3558 H   0  0  0  0  0  0  0  0  0  0  0  0
    4.4778   -1.0969    0.6902 H   0  0  0  0  0  0  0  0  0  0  0  0
    3.9316   -1.2497    6.9821 H   0  0  0  0  0  0  0  0  0  0  0  0
    3.1825   -1.7303    9.3415 H   0  0  0  0  0  0  0  0  0  0  0  0
   -0.2894   -0.8227    6.0421 H   0  0  0  0  0  0  0  0  0  0  0  0
    0.7629    1.3964    6.3982 H   0  0  0  0  0  0  0  0  0  0  0  0
    3.1089   -0.9436    4.6157 H   0  0  0  0  0  0  0  0  0  0  0  0
  1  2  1  0
  1 23  1  0
  1 24  1  0
  1 25  1  0
  2 21  2  0
  2  3  1  0
  3  4  2  0
  3 26  1  0
  4  5  1  0
  4 27  1  0
  5 20  2  0
  5  6  1  0
  6 22  1  0
  6  7  1  0
  7  8  2  0
  7 28  1  0
  8  9  1  0
  8 12  1  0
  9 10  1  0
  9 11  2  0
 10 29  1  0
 10 30  1  0
 12 13  2  3
 12 20  1  0
 13 14  1  0
 13 35  1  0
 14 19  1  0
 14 15  2  0
 15 16  1  0
 15 31  1  0
 16 17  2  0
 16 32  1  0
 17 18  1  0
 18 19  2  0
 19 33  1  0
 20 21  1  0
 21 34  1  0
M  CHG  1  13   1
M  END
>  <i_m_ct_stereo_status>  (368) 
1

>  <s_m_source_file>  (368) 
/var/tmp/pbs.5076255.sched01/tmpsabrbf27/138opeauupd.sdf

>  <i_m_source_file_index>  (368) 
16

>  <i_lp_mmshare_version>  (368) 
48012

>  <i_f3d_flags>  (368) 
0

>  <s_epik_input>  (368) 
W2NIXTFbY0hdYyhbQ0gzXSlbY0hdYyhjMTIpYyhcYyhbY0hdW25IXTIpQyg9TylbTkgyXSk9TlxjM1tjSF1bY0hdbm5bY0hdMw==

>  <s_epik_cmdline>  (368) 
J2VwaWtfcHl0aG9uJywgJy1waHQnLCAnMi4wJywgJy1waCcsICc3LjAnLCAnLXRuJywgJzgnLCAnLW1hJywgJzIwMCcsICctaW1hZScsICc8aW5maWxlLm1hZT4nLCAnLW9tYWUnLCAnPG91dGZpbGUubWFlPic=

>  <r_epik_Ionization_Penalty>  (368) 
0.295537

>  <r_epik_Ionization_Penalty_Charging>  (368) 
7.92292e-05

>  <r_epik_Ionization_Penalty_Neutral>  (368) 
0.295458

>  <r_epik_State_Penalty>  (368) 
0.714499

>  <r_epik_Charging_Adjusted_Penalty>  (368) 
0.714578

>  <i_epik_Tot_Q>  (368) 
1

>  <i_epik_Tot_abs_Q>  (368) 
1

>  <s_epik_Chemistry_Notes>  (368) 
This compound has an imine and may undergo hydrolysis.

>  <s_lp_Force_Field>  (368) 
OPLS3e

>  <r_lp_Energy>  (368) 
53.8882

>  <b_lp_Chiralities_Consistent>  (368) 
1

>  <s_lp_Variant>  (368) 
96:0-3

>  <s_i_glide_gridfile>  (368) 
pfpi4k_grid

>  <i_i_glide_lignum>  (368) 
16

>  <i_i_glide_rotatable_bonds>  (368) 
2

>  <r_i_docking_score>  (368) 
-3.91634

>  <r_i_glide_ligand_efficiency>  (368) 
-0.186492

>  <r_i_glide_ligand_efficiency_sa>  (368) 
-0.514518

>  <r_i_glide_ligand_efficiency_ln>  (368) 
-0.968307

>  <r_i_glide_gscore>  (368) 
-3.91634

>  <r_i_glide_lipo>  (368) 
-0.0250122

>  <r_i_glide_hbond>  (368) 
-0.0662932

>  <r_i_glide_metal>  (368) 
-0

>  <r_i_glide_rewards>  (368) 
-1.99792

>  <r_i_glide_evdw>  (368) 
-18.0334

>  <r_i_glide_ecoul>  (368) 
-4.97209

>  <r_i_glide_erotb>  (368) 
0

>  <r_i_glide_esite>  (368) 
-0.179624

>  <r_i_glide_emodel>  (368) 
-34.1595

>  <r_i_glide_energy>  (368) 
-23.0055

>  <r_i_glide_einternal>  (368) 
1.03207

>  <r_i_glide_intrahb_reward>  (368) 
-0.5

>  <i_i_glide_confnum>  (368) 
2

>  <i_i_glide_posenum>  (368) 
38

>  <r_i_glide_eff_state_penalty>  (368) 
0

>  <ligand_id>  (368) 
96

>  <original_smiles>  (368) 
Cc1ccc2[nH]cc(C(N)=O)c(=Nc3ccnnc3)c2c1

>  <smiles>  (368) 
[H]c1nnc([H])c([N+]([H])=c2c(C(=O)N([H])[H])c([H])n([H])c3c([H])c([H])c(C([H])([H])[H])c([H])c23)c1[H]

$$$$
96:2:2
     RDKit          3D

 35 37  0  0  1  0  0  0  0  0999 V2000
   -0.1960    2.1340    8.1648 C   0  0  0  0  0  0  0  0  0  0  0  0
    1.0794    1.8722    7.4090 C   0  0  0  0  0  0  0  0  0  0  0  0
    2.3290    1.8887    8.0538 C   0  0  0  0  0  0  0  0  0  0  0  0
    3.5046    1.6297    7.3296 C   0  0  0  0  0  0  0  0  0  0  0  0
    3.4369    1.3842    5.9478 C   0  0  0  0  0  0  0  0  0  0  0  0
    4.5775    0.9820    5.2384 N   0  0  0  0  0  0  0  0  0  0  0  0
    4.4789    0.4642    3.9539 C   0  0  0  0  0  0  0  0  0  0  0  0
    3.3433    0.5026    3.2167 C   0  0  0  0  0  0  0  0  0  0  0  0
    3.4298   -0.0158    1.8326 C   0  0  0  0  0  0  0  0  0  0  0  0
    2.2425   -0.3391    1.2878 N   0  0  0  0  0  0  0  0  0  0  0  0
    4.4745   -0.2033    1.2096 O   0  0  0  0  0  0  0  0  0  0  0  0
    2.1810    1.1765    3.7838 C   0  0  0  0  0  0  0  0  0  0  0  0
    1.2183    1.6416    3.0298 N   0  0  0  0  0  0  0  0  0  0  0  0
    0.0473    2.4749    3.2282 C   0  0  0  0  0  0  0  0  0  0  0  0
   -1.1675    2.1348    2.6070 C   0  0  0  0  0  0  0  0  0  0  0  0
   -2.2853    2.9467    2.8959 C   0  0  0  0  0  0  0  0  0  0  0  0
   -2.2071    4.0215    3.7235 N   0  0  0  0  0  0  0  0  0  0  0  0
   -1.0325    4.3939    4.2369 N   0  0  0  0  0  0  0  0  0  0  0  0
    0.0750    3.6425    4.0240 C   0  0  0  0  0  0  0  0  0  0  0  0
    2.1926    1.4179    5.2681 C   0  0  0  0  0  0  0  0  0  0  0  0
    1.0152    1.6109    6.0272 C   0  0  0  0  0  0  0  0  0  0  0  0
    5.4479    0.8919    5.7361 H   0  0  0  0  0  0  0  0  0  0  0  0
   -0.0327    2.1510    9.2386 H   0  0  0  0  0  0  0  0  0  0  0  0
   -0.9416    1.3701    7.9396 H   0  0  0  0  0  0  0  0  0  0  0  0
   -0.6142    3.1000    7.8809 H   0  0  0  0  0  0  0  0  0  0  0  0
    2.3890    2.0895    9.1113 H   0  0  0  0  0  0  0  0  0  0  0  0
    4.4562    1.5666    7.8372 H   0  0  0  0  0  0  0  0  0  0  0  0
    5.4064    0.0348    3.5779 H   0  0  0  0  0  0  0  0  0  0  0  0
    1.4083   -0.3429    1.8612 H   0  0  0  0  0  0  0  0  0  0  0  0
    2.1668   -0.6386    0.3210 H   0  0  0  0  0  0  0  0  0  0  0  0
   -1.2622    1.2953    1.9378 H   0  0  0  0  0  0  0  0  0  0  0  0
   -3.2423    2.7572    2.4433 H   0  0  0  0  0  0  0  0  0  0  0  0
    0.9942    3.9915    4.4635 H   0  0  0  0  0  0  0  0  0  0  0  0
    0.0363    1.5265    5.5833 H   0  0  0  0  0  0  0  0  0  0  0  0
    1.3696    1.4992    2.0343 H   0  0  0  0  0  0  0  0  0  0  0  0
  1  2  1  0
  1 23  1  0
  1 24  1  0
  1 25  1  0
  2 21  2  0
  2  3  1  0
  3  4  2  0
  3 26  1  0
  4  5  1  0
  4 27  1  0
  5 20  2  0
  5  6  1  0
  6 22  1  0
  6  7  1  0
  7  8  2  0
  7 28  1  0
  8  9  1  0
  8 12  1  0
  9 10  1  0
  9 11  2  0
 10 29  1  0
 10 30  1  0
 12 13  2  3
 12 20  1  0
 13 14  1  0
 13 35  1  0
 14 19  1  0
 14 15  2  0
 15 16  1  0
 15 31  1  0
 16 17  2  0
 16 32  1  0
 17 18  1  0
 18 19  2  0
 19 33  1  0
 20 21  1  0
 21 34  1  0
M  CHG  1  13   1
M  END
>  <i_m_ct_stereo_status>  (369) 
1

>  <s_m_source_file>  (369) 
/var/tmp/pbs.5076255.sched01/tmpsabrbf27/138opeauupd.sdf

>  <i_m_source_file_index>  (369) 
16

>  <i_lp_mmshare_version>  (369) 
48012

>  <i_f3d_flags>  (369) 
0

>  <s_epik_input>  (369) 
W2NIXTFbY0hdYyhbQ0gzXSlbY0hdYyhjMTIpYyhcYyhbY0hdW25IXTIpQyg9TylbTkgyXSk9TlxjM1tjSF1bY0hdbm5bY0hdMw==

>  <s_epik_cmdline>  (369) 
J2VwaWtfcHl0aG9uJywgJy1waHQnLCAnMi4wJywgJy1waCcsICc3LjAnLCAnLXRuJywgJzgnLCAnLW1hJywgJzIwMCcsICctaW1hZScsICc8aW5maWxlLm1hZT4nLCAnLW9tYWUnLCAnPG91dGZpbGUubWFlPic=

>  <r_epik_Ionization_Penalty>  (369) 
0.295537

>  <r_epik_Ionization_Penalty_Charging>  (369) 
7.92292e-05

>  <r_epik_Ionization_Penalty_Neutral>  (369) 
0.295458

>  <r_epik_State_Penalty>  (369) 
0.714499

>  <r_epik_Charging_Adjusted_Penalty>  (369) 
0.714578

>  <i_epik_Tot_Q>  (369) 
1

>  <i_epik_Tot_abs_Q>  (369) 
1

>  <s_epik_Chemistry_Notes>  (369) 
This compound has an imine and may undergo hydrolysis.

>  <s_lp_Force_Field>  (369) 
OPLS3e

>  <r_lp_Energy>  (369) 
53.8882

>  <b_lp_Chiralities_Consistent>  (369) 
1

>  <s_lp_Variant>  (369) 
96:0-3

>  <s_i_glide_gridfile>  (369) 
pfpi4k_grid

>  <i_i_glide_lignum>  (369) 
16

>  <i_i_glide_rotatable_bonds>  (369) 
2

>  <r_i_docking_score>  (369) 
-3.86354

>  <r_i_glide_ligand_efficiency>  (369) 
-0.183978

>  <r_i_glide_ligand_efficiency_sa>  (369) 
-0.507582

>  <r_i_glide_ligand_efficiency_ln>  (369) 
-0.955252

>  <r_i_glide_gscore>  (369) 
-3.86354

>  <r_i_glide_lipo>  (369) 
-0.0209187

>  <r_i_glide_hbond>  (369) 
-0.104739

>  <r_i_glide_metal>  (369) 
-0

>  <r_i_glide_rewards>  (369) 
-1.51792

>  <r_i_glide_evdw>  (369) 
-16.725

>  <r_i_glide_ecoul>  (369) 
-7.36965

>  <r_i_glide_erotb>  (369) 
0

>  <r_i_glide_esite>  (369) 
-0.278262

>  <r_i_glide_emodel>  (369) 
-29.4752

>  <r_i_glide_energy>  (369) 
-24.0946

>  <r_i_glide_einternal>  (369) 
3.07054

>  <r_i_glide_intrahb_reward>  (369) 
-0

>  <i_i_glide_confnum>  (369) 
2

>  <i_i_glide_posenum>  (369) 
2

>  <r_i_glide_eff_state_penalty>  (369) 
0

>  <ligand_id>  (369) 
96

>  <original_smiles>  (369) 
Cc1ccc2[nH]cc(C(N)=O)c(=Nc3ccnnc3)c2c1

>  <smiles>  (369) 
[H]c1nnc([H])c([N+]([H])=c2c(C(=O)N([H])[H])c([H])n([H])c3c([H])c([H])c(C([H])([H])[H])c([H])c23)c1[H]

$$$$
96:3:0
     RDKit          3D

 35 37  0  0  1  0  0  0  0  0999 V2000
    0.3898   -2.6263    4.7111 C   0  0  0  0  0  0  0  0  0  0  0  0
    0.9243   -1.3266    4.1435 C   0  0  0  0  0  0  0  0  0  0  0  0
    2.0841   -1.3307    3.3513 C   0  0  0  0  0  0  0  0  0  0  0  0
    2.6078   -0.1234    2.8537 C   0  0  0  0  0  0  0  0  0  0  0  0
    1.9702    1.0912    3.1544 C   0  0  0  0  0  0  0  0  0  0  0  0
    2.4894    2.2426    2.6927 N   0  0  0  0  0  0  0  0  0  0  0  0
    1.9352    3.4552    2.9408 C   0  0  0  0  0  0  0  0  0  0  0  0
    0.7455    3.5678    3.6928 C   0  0  0  0  0  0  0  0  0  0  0  0
    0.1943    4.9525    3.9488 C   0  0  0  0  0  0  0  0  0  0  0  0
    0.0381    5.7389    2.8837 N   0  0  0  0  0  0  0  0  0  0  0  0
   -0.0913    5.3337    5.0800 O   0  0  0  0  0  0  0  0  0  0  0  0
    0.1397    2.3664    4.1874 C   0  0  0  0  0  0  0  0  0  0  0  0
   -1.1031    2.3692    4.8402 N   0  0  0  0  0  0  0  0  0  0  0  0
   -1.3583    2.5485    6.2109 C   0  0  0  0  0  0  0  0  0  0  0  0
   -0.3644    2.4202    7.2038 C   0  0  0  0  0  0  0  0  0  0  0  0
   -0.7791    2.5444    8.5458 C   0  0  0  0  0  0  0  0  0  0  0  0
   -2.0596    2.7741    8.8911 N   0  0  0  0  0  0  0  0  0  0  0  0
   -2.9935    2.9500    7.9559 N   0  0  0  0  0  0  0  0  0  0  0  0
   -2.6656    2.8499    6.6527 C   0  0  0  0  0  0  0  0  0  0  0  0
    0.7854    1.1234    3.9293 C   0  0  0  0  0  0  0  0  0  0  0  0
    0.2719   -0.1058    4.4269 C   0  0  0  0  0  0  0  0  0  0  0  0
    1.0080   -3.4760    4.4279 H   0  0  0  0  0  0  0  0  0  0  0  0
   -0.6078   -2.8129    4.3299 H   0  0  0  0  0  0  0  0  0  0  0  0
    0.3516   -2.5863    5.7970 H   0  0  0  0  0  0  0  0  0  0  0  0
    2.5963   -2.2541    3.1299 H   0  0  0  0  0  0  0  0  0  0  0  0
    3.5005   -0.1427    2.2524 H   0  0  0  0  0  0  0  0  0  0  0  0
    2.4725    4.3048    2.5138 H   0  0  0  0  0  0  0  0  0  0  0  0
    0.1667    5.3172    1.9355 H   0  0  0  0  0  0  0  0  0  0  0  0
   -0.1898    6.7328    2.9300 H   0  0  0  0  0  0  0  0  0  0  0  0
    0.6661    2.2003    6.9619 H   0  0  0  0  0  0  0  0  0  0  0  0
   -0.0854    2.4108    9.3575 H   0  0  0  0  0  0  0  0  0  0  0  0
   -3.4754    2.9834    5.9497 H   0  0  0  0  0  0  0  0  0  0  0  0
   -0.6245   -0.1106    5.0304 H   0  0  0  0  0  0  0  0  0  0  0  0
   -1.9080    2.2422    4.2382 H   0  0  0  0  0  0  0  0  0  0  0  0
    3.3554    2.2015    2.1496 H   0  0  0  0  0  0  0  0  0  0  0  0
  1  2  1  0
  1 22  1  0
  1 23  1  0
  1 24  1  0
  2 21  2  0
  2  3  1  0
  3  4  2  0
  3 25  1  0
  4  5  1  0
  4 26  1  0
  5 20  2  0
  5  6  1  0
  6  7  2  0
  6 35  1  0
  7  8  1  0
  7 27  1  0
  8  9  1  0
  8 12  2  0
  9 10  1  0
  9 11  2  0
 10 28  1  0
 10 29  1  0
 12 13  1  0
 12 20  1  0
 13 14  1  0
 13 34  1  0
 14 19  1  0
 14 15  2  0
 15 16  1  0
 15 30  1  0
 16 17  2  0
 16 31  1  0
 17 18  1  0
 18 19  2  0
 19 32  1  0
 20 21  1  0
 21 33  1  0
M  CHG  1   6   1
M  END
>  <i_m_ct_stereo_status>  (370) 
1

>  <s_m_source_file>  (370) 
/var/tmp/pbs.5076255.sched01/tmpsabrbf27/138opeauupd.sdf

>  <i_m_source_file_index>  (370) 
17

>  <i_lp_mmshare_version>  (370) 
48012

>  <i_f3d_flags>  (370) 
0

>  <s_epik_input>  (370) 
W2NIXTFbY0hdYyhbQ0gzXSlbY0hdYyhjMTIpYyhcYyhbY0hdW25IXTIpQyg9TylbTkgyXSk9TlxjM1tjSF1bY0hdbm5bY0hdMw==

>  <s_epik_cmdline>  (370) 
J2VwaWtfcHl0aG9uJywgJy1waHQnLCAnMi4wJywgJy1waCcsICc3LjAnLCAnLXRuJywgJzgnLCAnLW1hJywgJzIwMCcsICctaW1hZScsICc8aW5maWxlLm1hZT4nLCAnLW9tYWUnLCAnPG91dGZpbGUubWFlPic=

>  <r_epik_Ionization_Penalty>  (370) 
0.972745

>  <r_epik_Ionization_Penalty_Charging>  (370) 
0.926157

>  <r_epik_Ionization_Penalty_Neutral>  (370) 
0.0465875

>  <r_epik_State_Penalty>  (370) 
1.27229

>  <r_epik_Charging_Adjusted_Penalty>  (370) 
2.19844

>  <i_epik_Tot_Q>  (370) 
1

>  <i_epik_Tot_abs_Q>  (370) 
1

>  <s_lp_Force_Field>  (370) 
OPLS3e

>  <r_lp_Energy>  (370) 
44.7726

>  <b_lp_Chiralities_Consistent>  (370) 
1

>  <s_lp_Variant>  (370) 
96:0-4

>  <s_i_glide_gridfile>  (370) 
pfpi4k_grid

>  <i_i_glide_lignum>  (370) 
17

>  <i_i_glide_rotatable_bonds>  (370) 
3

>  <r_i_docking_score>  (370) 
-4.62371

>  <r_i_glide_ligand_efficiency>  (370) 
-0.220177

>  <r_i_glide_ligand_efficiency_sa>  (370) 
-0.607451

>  <r_i_glide_ligand_efficiency_ln>  (370) 
-1.1432

>  <r_i_glide_gscore>  (370) 
-4.62371

>  <r_i_glide_lipo>  (370) 
-0.215666

>  <r_i_glide_hbond>  (370) 
-0.289709

>  <r_i_glide_metal>  (370) 
-0

>  <r_i_glide_rewards>  (370) 
-1.49792

>  <r_i_glide_evdw>  (370) 
-17.1647

>  <r_i_glide_ecoul>  (370) 
-13.1499

>  <r_i_glide_erotb>  (370) 
0.459658

>  <r_i_glide_esite>  (370) 
-0.249354

>  <r_i_glide_emodel>  (370) 
-38.5571

>  <r_i_glide_energy>  (370) 
-30.3146

>  <r_i_glide_einternal>  (370) 
4.81259

>  <r_i_glide_intrahb_reward>  (370) 
-0

>  <i_i_glide_confnum>  (370) 
4

>  <i_i_glide_posenum>  (370) 
15

>  <r_i_glide_eff_state_penalty>  (370) 
0

>  <ligand_id>  (370) 
96

>  <original_smiles>  (370) 
Cc1ccc2[nH]cc(C(N)=O)c(=Nc3ccnnc3)c2c1

>  <smiles>  (370) 
[H]c1nnc([H])c(N([H])c2c(C(=O)N([H])[H])c([H])[n+]([H])c3c([H])c([H])c(C([H])([H])[H])c([H])c23)c1[H]

$$$$
96:3:1
     RDKit          3D

 35 37  0  0  1  0  0  0  0  0999 V2000
   -2.5146    2.3176    6.9126 C   0  0  0  0  0  0  0  0  0  0  0  0
   -1.7831    2.1810    5.5948 C   0  0  0  0  0  0  0  0  0  0  0  0
   -2.1277    3.0011    4.5046 C   0  0  0  0  0  0  0  0  0  0  0  0
   -1.4644    2.8591    3.2766 C   0  0  0  0  0  0  0  0  0  0  0  0
   -0.4722    1.8804    3.1283 C   0  0  0  0  0  0  0  0  0  0  0  0
    0.1441    1.7408    1.9444 N   0  0  0  0  0  0  0  0  0  0  0  0
    1.0984    0.8245    1.7068 C   0  0  0  0  0  0  0  0  0  0  0  0
    1.5472   -0.0360    2.7372 C   0  0  0  0  0  0  0  0  0  0  0  0
    2.6406   -1.0288    2.4088 C   0  0  0  0  0  0  0  0  0  0  0  0
    2.6156   -1.5446    1.1772 N   0  0  0  0  0  0  0  0  0  0  0  0
    3.4949   -1.3672    3.2258 O   0  0  0  0  0  0  0  0  0  0  0  0
    0.9622    0.1108    4.0326 C   0  0  0  0  0  0  0  0  0  0  0  0
    1.4568   -0.5991    5.1434 N   0  0  0  0  0  0  0  0  0  0  0  0
    0.8223   -1.5928    5.9045 C   0  0  0  0  0  0  0  0  0  0  0  0
   -0.4300   -2.1527    5.5733 C   0  0  0  0  0  0  0  0  0  0  0  0
   -0.9754   -3.0855    6.4781 C   0  0  0  0  0  0  0  0  0  0  0  0
   -0.3537   -3.4529    7.6178 N   0  0  0  0  0  0  0  0  0  0  0  0
    0.8498   -2.9545    7.9139 N   0  0  0  0  0  0  0  0  0  0  0  0
    1.4346   -2.0577    7.0870 C   0  0  0  0  0  0  0  0  0  0  0  0
   -0.0957    1.0495    4.2107 C   0  0  0  0  0  0  0  0  0  0  0  0
   -0.7631    1.2233    5.4480 C   0  0  0  0  0  0  0  0  0  0  0  0
   -3.2919    3.0770    6.8605 H   0  0  0  0  0  0  0  0  0  0  0  0
   -1.8253    2.5981    7.7062 H   0  0  0  0  0  0  0  0  0  0  0  0
   -2.9847    1.3732    7.1751 H   0  0  0  0  0  0  0  0  0  0  0  0
   -2.9132    3.7310    4.6019 H   0  0  0  0  0  0  0  0  0  0  0  0
   -1.7129    3.5004    2.4415 H   0  0  0  0  0  0  0  0  0  0  0  0
    1.4916    0.8161    0.6968 H   0  0  0  0  0  0  0  0  0  0  0  0
    1.9097   -1.2713    0.4919 H   0  0  0  0  0  0  0  0  0  0  0  0
    3.3127   -2.2299    0.9212 H   0  0  0  0  0  0  0  0  0  0  0  0
   -0.9692   -1.8669    4.6795 H   0  0  0  0  0  0  0  0  0  0  0  0
   -1.9489   -3.5169    6.3167 H   0  0  0  0  0  0  0  0  0  0  0  0
    2.4021   -1.6883    7.3875 H   0  0  0  0  0  0  0  0  0  0  0  0
   -0.4930    0.6244    6.3024 H   0  0  0  0  0  0  0  0  0  0  0  0
    2.4242   -0.4086    5.3823 H   0  0  0  0  0  0  0  0  0  0  0  0
   -0.1145    2.3971    1.1978 H   0  0  0  0  0  0  0  0  0  0  0  0
  1  2  1  0
  1 22  1  0
  1 23  1  0
  1 24  1  0
  2 21  2  0
  2  3  1  0
  3  4  2  0
  3 25  1  0
  4  5  1  0
  4 26  1  0
  5 20  2  0
  5  6  1  0
  6  7  2  0
  6 35  1  0
  7  8  1  0
  7 27  1  0
  8  9  1  0
  8 12  2  0
  9 10  1  0
  9 11  2  0
 10 28  1  0
 10 29  1  0
 12 13  1  0
 12 20  1  0
 13 14  1  0
 13 34  1  0
 14 19  1  0
 14 15  2  0
 15 16  1  0
 15 30  1  0
 16 17  2  0
 16 31  1  0
 17 18  1  0
 18 19  2  0
 19 32  1  0
 20 21  1  0
 21 33  1  0
M  CHG  1   6   1
M  END
>  <i_m_ct_stereo_status>  (371) 
1

>  <s_m_source_file>  (371) 
/var/tmp/pbs.5076255.sched01/tmpsabrbf27/138opeauupd.sdf

>  <i_m_source_file_index>  (371) 
17

>  <i_lp_mmshare_version>  (371) 
48012

>  <i_f3d_flags>  (371) 
0

>  <s_epik_input>  (371) 
W2NIXTFbY0hdYyhbQ0gzXSlbY0hdYyhjMTIpYyhcYyhbY0hdW25IXTIpQyg9TylbTkgyXSk9TlxjM1tjSF1bY0hdbm5bY0hdMw==

>  <s_epik_cmdline>  (371) 
J2VwaWtfcHl0aG9uJywgJy1waHQnLCAnMi4wJywgJy1waCcsICc3LjAnLCAnLXRuJywgJzgnLCAnLW1hJywgJzIwMCcsICctaW1hZScsICc8aW5maWxlLm1hZT4nLCAnLW9tYWUnLCAnPG91dGZpbGUubWFlPic=

>  <r_epik_Ionization_Penalty>  (371) 
0.972745

>  <r_epik_Ionization_Penalty_Charging>  (371) 
0.926157

>  <r_epik_Ionization_Penalty_Neutral>  (371) 
0.0465875

>  <r_epik_State_Penalty>  (371) 
1.27229

>  <r_epik_Charging_Adjusted_Penalty>  (371) 
2.19844

>  <i_epik_Tot_Q>  (371) 
1

>  <i_epik_Tot_abs_Q>  (371) 
1

>  <s_lp_Force_Field>  (371) 
OPLS3e

>  <r_lp_Energy>  (371) 
44.7726

>  <b_lp_Chiralities_Consistent>  (371) 
1

>  <s_lp_Variant>  (371) 
96:0-4

>  <s_i_glide_gridfile>  (371) 
pfpi4k_grid

>  <i_i_glide_lignum>  (371) 
17

>  <i_i_glide_rotatable_bonds>  (371) 
3

>  <r_i_docking_score>  (371) 
-3.42154

>  <r_i_glide_ligand_efficiency>  (371) 
-0.16293

>  <r_i_glide_ligand_efficiency_sa>  (371) 
-0.449512

>  <r_i_glide_ligand_efficiency_ln>  (371) 
-0.845968

>  <r_i_glide_gscore>  (371) 
-3.42154

>  <r_i_glide_lipo>  (371) 
-0.0671736

>  <r_i_glide_hbond>  (371) 
-0.322025

>  <r_i_glide_metal>  (371) 
-0

>  <r_i_glide_rewards>  (371) 
-1.49792

>  <r_i_glide_evdw>  (371) 
-19.0784

>  <r_i_glide_ecoul>  (371) 
-5.53954

>  <r_i_glide_erotb>  (371) 
0.459658

>  <r_i_glide_esite>  (371) 
-0.20922

>  <r_i_glide_emodel>  (371) 
-30.5214

>  <r_i_glide_energy>  (371) 
-24.618

>  <r_i_glide_einternal>  (371) 
3.91458

>  <r_i_glide_intrahb_reward>  (371) 
-0

>  <i_i_glide_confnum>  (371) 
4

>  <i_i_glide_posenum>  (371) 
31

>  <r_i_glide_eff_state_penalty>  (371) 
0

>  <ligand_id>  (371) 
96

>  <original_smiles>  (371) 
Cc1ccc2[nH]cc(C(N)=O)c(=Nc3ccnnc3)c2c1

>  <smiles>  (371) 
[H]c1nnc([H])c(N([H])c2c(C(=O)N([H])[H])c([H])[n+]([H])c3c([H])c([H])c(C([H])([H])[H])c([H])c23)c1[H]

$$$$
96:3:2
     RDKit          3D

 35 37  0  0  1  0  0  0  0  0999 V2000
   -0.7337   -3.0989    6.1416 C   0  0  0  0  0  0  0  0  0  0  0  0
   -0.2884   -2.0082    5.1910 C   0  0  0  0  0  0  0  0  0  0  0  0
    0.6159   -2.3032    4.1476 C   0  0  0  0  0  0  0  0  0  0  0  0
    1.0582   -1.2819    3.2874 C   0  0  0  0  0  0  0  0  0  0  0  0
    0.6005    0.0299    3.4752 C   0  0  0  0  0  0  0  0  0  0  0  0
    1.0529    1.0044    2.6642 N   0  0  0  0  0  0  0  0  0  0  0  0
    0.6861    2.2871    2.7988 C   0  0  0  0  0  0  0  0  0  0  0  0
   -0.2429    2.6903    3.7863 C   0  0  0  0  0  0  0  0  0  0  0  0
   -0.6210    4.1562    3.8631 C   0  0  0  0  0  0  0  0  0  0  0  0
    0.3850    5.0284    3.6969 N   0  0  0  0  0  0  0  0  0  0  0  0
   -1.7685    4.5417    4.0779 O   0  0  0  0  0  0  0  0  0  0  0  0
   -0.8019    1.6813    4.6320 C   0  0  0  0  0  0  0  0  0  0  0  0
   -1.8186    1.9752    5.5614 N   0  0  0  0  0  0  0  0  0  0  0  0
   -1.6755    2.1198    6.9510 C   0  0  0  0  0  0  0  0  0  0  0  0
   -2.7456    2.5969    7.7379 C   0  0  0  0  0  0  0  0  0  0  0  0
   -2.5608    2.6333    9.1363 C   0  0  0  0  0  0  0  0  0  0  0  0
   -1.4191    2.2075    9.7300 N   0  0  0  0  0  0  0  0  0  0  0  0
   -0.3934    1.7879    8.9808 N   0  0  0  0  0  0  0  0  0  0  0  0
   -0.4967    1.7601    7.6344 C   0  0  0  0  0  0  0  0  0  0  0  0
   -0.3334    0.3454    4.4938 C   0  0  0  0  0  0  0  0  0  0  0  0
   -0.7719   -0.6975    5.3455 C   0  0  0  0  0  0  0  0  0  0  0  0
   -0.2733   -4.0543    5.8925 H   0  0  0  0  0  0  0  0  0  0  0  0
   -1.8145   -3.2204    6.0938 H   0  0  0  0  0  0  0  0  0  0  0  0
   -0.4524   -2.8521    7.1647 H   0  0  0  0  0  0  0  0  0  0  0  0
    0.9873   -3.3094    4.0066 H   0  0  0  0  0  0  0  0  0  0  0  0
    1.7503   -1.5170    2.4885 H   0  0  0  0  0  0  0  0  0  0  0  0
    1.1275    2.9568    2.0792 H   0  0  0  0  0  0  0  0  0  0  0  0
    1.3142    4.7089    3.4732 H   0  0  0  0  0  0  0  0  0  0  0  0
    0.2069    6.0243    3.6955 H   0  0  0  0  0  0  0  0  0  0  0  0
   -3.6869    2.9095    7.3068 H   0  0  0  0  0  0  0  0  0  0  0  0
   -3.3515    2.9595    9.8007 H   0  0  0  0  0  0  0  0  0  0  0  0
    0.3698    1.3861    7.1196 H   0  0  0  0  0  0  0  0  0  0  0  0
   -1.4646   -0.4823    6.1326 H   0  0  0  0  0  0  0  0  0  0  0  0
   -2.7122    2.2237    5.1575 H   0  0  0  0  0  0  0  0  0  0  0  0
    1.6904    0.7464    1.9094 H   0  0  0  0  0  0  0  0  0  0  0  0
  1  2  1  0
  1 22  1  0
  1 23  1  0
  1 24  1  0
  2 21  2  0
  2  3  1  0
  3  4  2  0
  3 25  1  0
  4  5  1  0
  4 26  1  0
  5 20  2  0
  5  6  1  0
  6  7  2  0
  6 35  1  0
  7  8  1  0
  7 27  1  0
  8  9  1  0
  8 12  2  0
  9 10  1  0
  9 11  2  0
 10 28  1  0
 10 29  1  0
 12 13  1  0
 12 20  1  0
 13 14  1  0
 13 34  1  0
 14 19  1  0
 14 15  2  0
 15 16  1  0
 15 30  1  0
 16 17  2  0
 16 31  1  0
 17 18  1  0
 18 19  2  0
 19 32  1  0
 20 21  1  0
 21 33  1  0
M  CHG  1   6   1
M  END
>  <i_m_ct_stereo_status>  (372) 
1

>  <s_m_source_file>  (372) 
/var/tmp/pbs.5076255.sched01/tmpsabrbf27/138opeauupd.sdf

>  <i_m_source_file_index>  (372) 
17

>  <i_lp_mmshare_version>  (372) 
48012

>  <i_f3d_flags>  (372) 
0

>  <s_epik_input>  (372) 
W2NIXTFbY0hdYyhbQ0gzXSlbY0hdYyhjMTIpYyhcYyhbY0hdW25IXTIpQyg9TylbTkgyXSk9TlxjM1tjSF1bY0hdbm5bY0hdMw==

>  <s_epik_cmdline>  (372) 
J2VwaWtfcHl0aG9uJywgJy1waHQnLCAnMi4wJywgJy1waCcsICc3LjAnLCAnLXRuJywgJzgnLCAnLW1hJywgJzIwMCcsICctaW1hZScsICc8aW5maWxlLm1hZT4nLCAnLW9tYWUnLCAnPG91dGZpbGUubWFlPic=

>  <r_epik_Ionization_Penalty>  (372) 
0.972745

>  <r_epik_Ionization_Penalty_Charging>  (372) 
0.926157

>  <r_epik_Ionization_Penalty_Neutral>  (372) 
0.0465875

>  <r_epik_State_Penalty>  (372) 
1.27229

>  <r_epik_Charging_Adjusted_Penalty>  (372) 
2.19844

>  <i_epik_Tot_Q>  (372) 
1

>  <i_epik_Tot_abs_Q>  (372) 
1

>  <s_lp_Force_Field>  (372) 
OPLS3e

>  <r_lp_Energy>  (372) 
44.7726

>  <b_lp_Chiralities_Consistent>  (372) 
1

>  <s_lp_Variant>  (372) 
96:0-4

>  <s_i_glide_gridfile>  (372) 
pfpi4k_grid

>  <i_i_glide_lignum>  (372) 
17

>  <i_i_glide_rotatable_bonds>  (372) 
3

>  <r_i_docking_score>  (372) 
-3.39622

>  <r_i_glide_ligand_efficiency>  (372) 
-0.161725

>  <r_i_glide_ligand_efficiency_sa>  (372) 
-0.446186

>  <r_i_glide_ligand_efficiency_ln>  (372) 
-0.839708

>  <r_i_glide_gscore>  (372) 
-3.39622

>  <r_i_glide_lipo>  (372) 
-0.171697

>  <r_i_glide_hbond>  (372) 
-0.134407

>  <r_i_glide_metal>  (372) 
-0

>  <r_i_glide_rewards>  (372) 
-1.49792

>  <r_i_glide_evdw>  (372) 
-20.8961

>  <r_i_glide_ecoul>  (372) 
-4.6957

>  <r_i_glide_erotb>  (372) 
0.459658

>  <r_i_glide_esite>  (372) 
-0.302687

>  <r_i_glide_emodel>  (372) 
-31.0332

>  <r_i_glide_energy>  (372) 
-25.5918

>  <r_i_glide_einternal>  (372) 
4.50152

>  <r_i_glide_intrahb_reward>  (372) 
-0

>  <i_i_glide_confnum>  (372) 
6

>  <i_i_glide_posenum>  (372) 
17

>  <r_i_glide_eff_state_penalty>  (372) 
0

>  <ligand_id>  (372) 
96

>  <original_smiles>  (372) 
Cc1ccc2[nH]cc(C(N)=O)c(=Nc3ccnnc3)c2c1

>  <smiles>  (372) 
[H]c1nnc([H])c(N([H])c2c(C(=O)N([H])[H])c([H])[n+]([H])c3c([H])c([H])c(C([H])([H])[H])c([H])c23)c1[H]

$$$$
96:4:0
     RDKit          3D

 35 37  0  0  1  0  0  0  0  0999 V2000
    4.7014   -6.9195    0.2345 C   0  0  0  0  0  0  0  0  0  0  0  0
    4.0119   -5.9132    1.1256 C   0  0  0  0  0  0  0  0  0  0  0  0
    3.4327   -6.3307    2.3307 C   0  0  0  0  0  0  0  0  0  0  0  0
    2.7603   -5.4020    3.1411 C   0  0  0  0  0  0  0  0  0  0  0  0
    2.6537   -4.0460    2.7665 C   0  0  0  0  0  0  0  0  0  0  0  0
    1.9689   -3.2133    3.5710 N   0  0  0  0  0  0  0  0  0  0  0  0
    1.8660   -1.9258    3.2129 C   0  0  0  0  0  0  0  0  0  0  0  0
    2.4429   -1.3827    2.0414 C   0  0  0  0  0  0  0  0  0  0  0  0
    2.2404    0.0850    1.7846 C   0  0  0  0  0  0  0  0  0  0  0  0
    1.0301    0.5933    2.0766 N   0  0  0  0  0  0  0  0  0  0  0  0
    3.1245    0.7792    1.2983 O   0  0  0  0  0  0  0  0  0  0  0  0
    3.2116   -2.2428    1.2018 C   0  0  0  0  0  0  0  0  0  0  0  0
    3.9301   -1.7980    0.0859 N   0  0  0  0  0  0  0  0  0  0  0  0
    3.5422   -1.9357   -1.2655 C   0  0  0  0  0  0  0  0  0  0  0  0
    4.0494   -1.0793   -2.2540 C   0  0  0  0  0  0  0  0  0  0  0  0
    3.6562   -1.2504   -3.5830 C   0  0  0  0  0  0  0  0  0  0  0  0
    2.7806   -2.2294   -3.9160 N   0  0  0  0  0  0  0  0  0  0  0  0
    2.2336   -3.0529   -3.0157 N   0  0  0  0  0  0  0  0  0  0  0  0
    2.6102   -2.9018   -1.7237 C   0  0  0  0  0  0  0  0  0  0  0  0
    3.2785   -3.6180    1.5578 C   0  0  0  0  0  0  0  0  0  0  0  0
    3.9621   -4.5579    0.7574 C   0  0  0  0  0  0  0  0  0  0  0  0
    4.6625   -7.9237    0.6591 H   0  0  0  0  0  0  0  0  0  0  0  0
    5.7453   -6.6368    0.1052 H   0  0  0  0  0  0  0  0  0  0  0  0
    4.2163   -6.9516   -0.7330 H   0  0  0  0  0  0  0  0  0  0  0  0
    3.4889   -7.3705    2.6391 H   0  0  0  0  0  0  0  0  0  0  0  0
    2.3297   -5.7193    4.0797 H   0  0  0  0  0  0  0  0  0  0  0  0
    1.3212   -1.3097    3.9214 H   0  0  0  0  0  0  0  0  0  0  0  0
    0.2856    0.0005    2.4305 H   0  0  0  0  0  0  0  0  0  0  0  0
    0.8264    1.5583    1.8546 H   0  0  0  0  0  0  0  0  0  0  0  0
    4.7164   -0.2549   -1.9927 H   0  0  0  0  0  0  0  0  0  0  0  0
    3.9885   -0.6416   -4.4167 H   0  0  0  0  0  0  0  0  0  0  0  0
    2.1098   -3.5630   -1.0545 H   0  0  0  0  0  0  0  0  0  0  0  0
    4.4493   -4.2567   -0.1521 H   0  0  0  0  0  0  0  0  0  0  0  0
    4.6689   -1.1179    0.3091 H   0  0  0  0  0  0  0  0  0  0  0  0
    2.4894   -2.3172   -4.9046 H   0  0  0  0  0  0  0  0  0  0  0  0
  1  2  1  0
  1 22  1  0
  1 23  1  0
  1 24  1  0
  2 21  2  0
  2  3  1  0
  3  4  2  0
  3 25  1  0
  4  5  1  0
  4 26  1  0
  5 20  2  0
  5  6  1  0
  6  7  2  0
  7  8  1  0
  7 27  1  0
  8  9  1  0
  8 12  2  0
  9 10  1  0
  9 11  2  0
 10 28  1  0
 10 29  1  0
 12 13  1  0
 12 20  1  0
 13 14  1  0
 13 34  1  0
 14 19  1  0
 14 15  2  0
 15 16  1  0
 15 30  1  0
 16 17  2  0
 16 31  1  0
 17 18  1  0
 17 35  1  0
 18 19  2  0
 19 32  1  0
 20 21  1  0
 21 33  1  0
M  CHG  1  17   1
M  END
>  <i_m_ct_stereo_status>  (373) 
1

>  <s_m_source_file>  (373) 
/var/tmp/pbs.5076255.sched01/tmpsabrbf27/138opeauupd.sdf

>  <i_m_source_file_index>  (373) 
18

>  <i_lp_mmshare_version>  (373) 
48012

>  <i_f3d_flags>  (373) 
0

>  <s_epik_input>  (373) 
W2NIXTFbY0hdYyhbQ0gzXSlbY0hdYyhjMTIpYyhcYyhbY0hdW25IXTIpQyg9TylbTkgyXSk9TlxjM1tjSF1bY0hdbm5bY0hdMw==

>  <s_epik_cmdline>  (373) 
J2VwaWtfcHl0aG9uJywgJy1waHQnLCAnMi4wJywgJy1waCcsICc3LjAnLCAnLXRuJywgJzgnLCAnLW1hJywgJzIwMCcsICctaW1hZScsICc8aW5maWxlLm1hZT4nLCAnLW9tYWUnLCAnPG91dGZpbGUubWFlPic=

>  <r_epik_Ionization_Penalty>  (373) 
1.12579

>  <r_epik_Ionization_Penalty_Charging>  (373) 
0.986523

>  <r_epik_Ionization_Penalty_Neutral>  (373) 
0.139268

>  <r_epik_State_Penalty>  (373) 
1.35272

>  <r_epik_Charging_Adjusted_Penalty>  (373) 
2.33925

>  <i_epik_Tot_Q>  (373) 
1

>  <i_epik_Tot_abs_Q>  (373) 
1

>  <s_lp_Force_Field>  (373) 
OPLS3e

>  <r_lp_Energy>  (373) 
46.8707

>  <b_lp_Chiralities_Consistent>  (373) 
1

>  <s_lp_Variant>  (373) 
96:0-5

>  <s_i_glide_gridfile>  (373) 
pfpi4k_grid

>  <i_i_glide_lignum>  (373) 
18

>  <i_i_glide_rotatable_bonds>  (373) 
3

>  <r_i_docking_score>  (373) 
-3.32816

>  <r_i_glide_ligand_efficiency>  (373) 
-0.158484

>  <r_i_glide_ligand_efficiency_sa>  (373) 
-0.437245

>  <r_i_glide_ligand_efficiency_ln>  (373) 
-0.822881

>  <r_i_glide_gscore>  (373) 
-3.32816

>  <r_i_glide_lipo>  (373) 
-0.400075

>  <r_i_glide_hbond>  (373) 
0

>  <r_i_glide_metal>  (373) 
-0

>  <r_i_glide_rewards>  (373) 
-1.49792

>  <r_i_glide_evdw>  (373) 
-24.1677

>  <r_i_glide_ecoul>  (373) 
-3.60688

>  <r_i_glide_erotb>  (373) 
0.459658

>  <r_i_glide_esite>  (373) 
-0.140406

>  <r_i_glide_emodel>  (373) 
-31.4545

>  <r_i_glide_energy>  (373) 
-27.7746

>  <r_i_glide_einternal>  (373) 
5.03728

>  <r_i_glide_intrahb_reward>  (373) 
-0

>  <i_i_glide_confnum>  (373) 
6

>  <i_i_glide_posenum>  (373) 
22

>  <r_i_glide_eff_state_penalty>  (373) 
0

>  <ligand_id>  (373) 
96

>  <original_smiles>  (373) 
Cc1ccc2[nH]cc(C(N)=O)c(=Nc3ccnnc3)c2c1

>  <smiles>  (373) 
[H]c1nc2c([H])c([H])c(C([H])([H])[H])c([H])c2c(N([H])c2c([H])n[n+]([H])c([H])c2[H])c1C(=O)N([H])[H]

$$$$
96:4:1
     RDKit          3D

 35 37  0  0  1  0  0  0  0  0999 V2000
    7.0006   -5.8309    0.9573 C   0  0  0  0  0  0  0  0  0  0  0  0
    6.0460   -5.0792    1.8605 C   0  0  0  0  0  0  0  0  0  0  0  0
    5.8384   -5.5058    3.1837 C   0  0  0  0  0  0  0  0  0  0  0  0
    4.9289   -4.8219    4.0071 C   0  0  0  0  0  0  0  0  0  0  0  0
    4.2086   -3.7071    3.5357 C   0  0  0  0  0  0  0  0  0  0  0  0
    3.3283   -3.1033    4.3578 N   0  0  0  0  0  0  0  0  0  0  0  0
    2.6289   -2.0506    3.9018 C   0  0  0  0  0  0  0  0  0  0  0  0
    2.8006   -1.4871    2.6187 C   0  0  0  0  0  0  0  0  0  0  0  0
    1.9236   -0.3201    2.2481 C   0  0  0  0  0  0  0  0  0  0  0  0
    2.5184    0.7342    1.6888 N   0  0  0  0  0  0  0  0  0  0  0  0
    0.7266   -0.3138    2.5275 O   0  0  0  0  0  0  0  0  0  0  0  0
    3.7469   -2.1004    1.7441 C   0  0  0  0  0  0  0  0  0  0  0  0
    4.0647   -1.5478    0.4884 N   0  0  0  0  0  0  0  0  0  0  0  0
    3.5628   -1.9162   -0.7717 C   0  0  0  0  0  0  0  0  0  0  0  0
    2.7772   -3.0665   -0.9928 C   0  0  0  0  0  0  0  0  0  0  0  0
    2.3727   -3.3503   -2.3109 C   0  0  0  0  0  0  0  0  0  0  0  0
    2.7377   -2.5414   -3.3336 N   0  0  0  0  0  0  0  0  0  0  0  0
    3.4682   -1.4259   -3.1621 N   0  0  0  0  0  0  0  0  0  0  0  0
    3.8513   -1.1221   -1.9007 C   0  0  0  0  0  0  0  0  0  0  0  0
    4.4416   -3.2520    2.2048 C   0  0  0  0  0  0  0  0  0  0  0  0
    5.3532   -3.9522    1.3782 C   0  0  0  0  0  0  0  0  0  0  0  0
    7.4400   -6.6896    1.4667 H   0  0  0  0  0  0  0  0  0  0  0  0
    7.8130   -5.1817    0.6329 H   0  0  0  0  0  0  0  0  0  0  0  0
    6.4668   -6.1971    0.0818 H   0  0  0  0  0  0  0  0  0  0  0  0
    6.3646   -6.3687    3.5683 H   0  0  0  0  0  0  0  0  0  0  0  0
    4.7724   -5.1617    5.0200 H   0  0  0  0  0  0  0  0  0  0  0  0
    1.9253   -1.6262    4.6078 H   0  0  0  0  0  0  0  0  0  0  0  0
    3.5118    0.7228    1.5217 H   0  0  0  0  0  0  0  0  0  0  0  0
    1.9572    1.5360    1.4397 H   0  0  0  0  0  0  0  0  0  0  0  0
    2.4973   -3.7221   -0.1804 H   0  0  0  0  0  0  0  0  0  0  0  0
    1.8011   -4.2217   -2.5961 H   0  0  0  0  0  0  0  0  0  0  0  0
    4.4173   -0.2147   -1.7829 H   0  0  0  0  0  0  0  0  0  0  0  0
    5.5251   -3.6327    0.3632 H   0  0  0  0  0  0  0  0  0  0  0  0
    4.7219   -0.7854    0.5106 H   0  0  0  0  0  0  0  0  0  0  0  0
    2.4425   -2.7897   -4.2784 H   0  0  0  0  0  0  0  0  0  0  0  0
  1  2  1  0
  1 22  1  0
  1 23  1  0
  1 24  1  0
  2 21  2  0
  2  3  1  0
  3  4  2  0
  3 25  1  0
  4  5  1  0
  4 26  1  0
  5 20  2  0
  5  6  1  0
  6  7  2  0
  7  8  1  0
  7 27  1  0
  8  9  1  0
  8 12  2  0
  9 10  1  0
  9 11  2  0
 10 28  1  0
 10 29  1  0
 12 13  1  0
 12 20  1  0
 13 14  1  0
 13 34  1  0
 14 19  1  0
 14 15  2  0
 15 16  1  0
 15 30  1  0
 16 17  2  0
 16 31  1  0
 17 18  1  0
 17 35  1  0
 18 19  2  0
 19 32  1  0
 20 21  1  0
 21 33  1  0
M  CHG  1  17   1
M  END
>  <i_m_ct_stereo_status>  (374) 
1

>  <s_m_source_file>  (374) 
/var/tmp/pbs.5076255.sched01/tmpsabrbf27/138opeauupd.sdf

>  <i_m_source_file_index>  (374) 
18

>  <i_lp_mmshare_version>  (374) 
48012

>  <i_f3d_flags>  (374) 
0

>  <s_epik_input>  (374) 
W2NIXTFbY0hdYyhbQ0gzXSlbY0hdYyhjMTIpYyhcYyhbY0hdW25IXTIpQyg9TylbTkgyXSk9TlxjM1tjSF1bY0hdbm5bY0hdMw==

>  <s_epik_cmdline>  (374) 
J2VwaWtfcHl0aG9uJywgJy1waHQnLCAnMi4wJywgJy1waCcsICc3LjAnLCAnLXRuJywgJzgnLCAnLW1hJywgJzIwMCcsICctaW1hZScsICc8aW5maWxlLm1hZT4nLCAnLW9tYWUnLCAnPG91dGZpbGUubWFlPic=

>  <r_epik_Ionization_Penalty>  (374) 
1.12579

>  <r_epik_Ionization_Penalty_Charging>  (374) 
0.986523

>  <r_epik_Ionization_Penalty_Neutral>  (374) 
0.139268

>  <r_epik_State_Penalty>  (374) 
1.35272

>  <r_epik_Charging_Adjusted_Penalty>  (374) 
2.33925

>  <i_epik_Tot_Q>  (374) 
1

>  <i_epik_Tot_abs_Q>  (374) 
1

>  <s_lp_Force_Field>  (374) 
OPLS3e

>  <r_lp_Energy>  (374) 
46.8707

>  <b_lp_Chiralities_Consistent>  (374) 
1

>  <s_lp_Variant>  (374) 
96:0-5

>  <s_i_glide_gridfile>  (374) 
pfpi4k_grid

>  <i_i_glide_lignum>  (374) 
18

>  <i_i_glide_rotatable_bonds>  (374) 
3

>  <r_i_docking_score>  (374) 
-3.24331

>  <r_i_glide_ligand_efficiency>  (374) 
-0.154444

>  <r_i_glide_ligand_efficiency_sa>  (374) 
-0.426098

>  <r_i_glide_ligand_efficiency_ln>  (374) 
-0.801903

>  <r_i_glide_gscore>  (374) 
-3.24331

>  <r_i_glide_lipo>  (374) 
-0.393365

>  <r_i_glide_hbond>  (374) 
0

>  <r_i_glide_metal>  (374) 
-0

>  <r_i_glide_rewards>  (374) 
-1.49792

>  <r_i_glide_evdw>  (374) 
-20.0577

>  <r_i_glide_ecoul>  (374) 
-4.93952

>  <r_i_glide_erotb>  (374) 
0.459658

>  <r_i_glide_esite>  (374) 
-0.0678708

>  <r_i_glide_emodel>  (374) 
-29.0008

>  <r_i_glide_energy>  (374) 
-24.9972

>  <r_i_glide_einternal>  (374) 
4.72944

>  <r_i_glide_intrahb_reward>  (374) 
-0

>  <i_i_glide_confnum>  (374) 
1

>  <i_i_glide_posenum>  (374) 
3

>  <r_i_glide_eff_state_penalty>  (374) 
0

>  <ligand_id>  (374) 
96

>  <original_smiles>  (374) 
Cc1ccc2[nH]cc(C(N)=O)c(=Nc3ccnnc3)c2c1

>  <smiles>  (374) 
[H]c1nc2c([H])c([H])c(C([H])([H])[H])c([H])c2c(N([H])c2c([H])n[n+]([H])c([H])c2[H])c1C(=O)N([H])[H]

$$$$
96:4:2
     RDKit          3D

 35 37  0  0  1  0  0  0  0  0999 V2000
   -0.3877    1.4049   10.6445 C   0  0  0  0  0  0  0  0  0  0  0  0
   -0.9378    1.8323    9.3020 C   0  0  0  0  0  0  0  0  0  0  0  0
   -2.1478    2.5364    9.2419 C   0  0  0  0  0  0  0  0  0  0  0  0
   -2.6806    2.9020    7.9951 C   0  0  0  0  0  0  0  0  0  0  0  0
   -2.0160    2.5936    6.7922 C   0  0  0  0  0  0  0  0  0  0  0  0
   -2.5881    2.9496    5.6288 N   0  0  0  0  0  0  0  0  0  0  0  0
   -1.9690    2.6704    4.4736 C   0  0  0  0  0  0  0  0  0  0  0  0
   -0.7189    2.0041    4.3902 C   0  0  0  0  0  0  0  0  0  0  0  0
   -0.1499    1.7575    3.0096 C   0  0  0  0  0  0  0  0  0  0  0  0
   -1.0303    1.3625    2.0769 N   0  0  0  0  0  0  0  0  0  0  0  0
    1.0386    1.9346    2.7444 O   0  0  0  0  0  0  0  0  0  0  0  0
   -0.0802    1.6319    5.6191 C   0  0  0  0  0  0  0  0  0  0  0  0
    1.1622    0.9596    5.6680 N   0  0  0  0  0  0  0  0  0  0  0  0
    1.6001   -0.1688    4.9369 C   0  0  0  0  0  0  0  0  0  0  0  0
    2.9503   -0.5995    4.9920 C   0  0  0  0  0  0  0  0  0  0  0  0
    3.3319   -1.7004    4.2115 C   0  0  0  0  0  0  0  0  0  0  0  0
    2.4271   -2.3209    3.4138 N   0  0  0  0  0  0  0  0  0  0  0  0
    1.1409   -1.9624    3.3450 N   0  0  0  0  0  0  0  0  0  0  0  0
    0.7417   -0.9083    4.0885 C   0  0  0  0  0  0  0  0  0  0  0  0
   -0.7626    1.9158    6.8450 C   0  0  0  0  0  0  0  0  0  0  0  0
   -0.2514    1.5223    8.1070 C   0  0  0  0  0  0  0  0  0  0  0  0
   -1.0477    1.6991   11.4600 H   0  0  0  0  0  0  0  0  0  0  0  0
    0.5821    1.8654   10.8270 H   0  0  0  0  0  0  0  0  0  0  0  0
   -0.2777    0.3221   10.6952 H   0  0  0  0  0  0  0  0  0  0  0  0
   -2.6853    2.7791   10.1404 H   0  0  0  0  0  0  0  0  0  0  0  0
   -3.6240    3.4180    7.9603 H   0  0  0  0  0  0  0  0  0  0  0  0
   -2.5322    2.9638    3.5917 H   0  0  0  0  0  0  0  0  0  0  0  0
   -2.0181    1.2947    2.2787 H   0  0  0  0  0  0  0  0  0  0  0  0
   -0.6991    1.1585    1.1454 H   0  0  0  0  0  0  0  0  0  0  0  0
    3.6763   -0.0878    5.6034 H   0  0  0  0  0  0  0  0  0  0  0  0
    4.3240   -2.1360    4.2070 H   0  0  0  0  0  0  0  0  0  0  0  0
   -0.3067   -0.6571    4.0077 H   0  0  0  0  0  0  0  0  0  0  0  0
    0.6796    0.9857    8.1778 H   0  0  0  0  0  0  0  0  0  0  0  0
    1.7794    1.3205    6.3756 H   0  0  0  0  0  0  0  0  0  0  0  0
    2.7371   -3.1170    2.8508 H   0  0  0  0  0  0  0  0  0  0  0  0
  1  2  1  0
  1 22  1  0
  1 23  1  0
  1 24  1  0
  2 21  2  0
  2  3  1  0
  3  4  2  0
  3 25  1  0
  4  5  1  0
  4 26  1  0
  5 20  2  0
  5  6  1  0
  6  7  2  0
  7  8  1  0
  7 27  1  0
  8  9  1  0
  8 12  2  0
  9 10  1  0
  9 11  2  0
 10 28  1  0
 10 29  1  0
 12 13  1  0
 12 20  1  0
 13 14  1  0
 13 34  1  0
 14 19  1  0
 14 15  2  0
 15 16  1  0
 15 30  1  0
 16 17  2  0
 16 31  1  0
 17 18  1  0
 17 35  1  0
 18 19  2  0
 19 32  1  0
 20 21  1  0
 21 33  1  0
M  CHG  1  17   1
M  END
>  <i_m_ct_stereo_status>  (375) 
1

>  <s_m_source_file>  (375) 
/var/tmp/pbs.5076255.sched01/tmpsabrbf27/138opeauupd.sdf

>  <i_m_source_file_index>  (375) 
18

>  <i_lp_mmshare_version>  (375) 
48012

>  <i_f3d_flags>  (375) 
0

>  <s_epik_input>  (375) 
W2NIXTFbY0hdYyhbQ0gzXSlbY0hdYyhjMTIpYyhcYyhbY0hdW25IXTIpQyg9TylbTkgyXSk9TlxjM1tjSF1bY0hdbm5bY0hdMw==

>  <s_epik_cmdline>  (375) 
J2VwaWtfcHl0aG9uJywgJy1waHQnLCAnMi4wJywgJy1waCcsICc3LjAnLCAnLXRuJywgJzgnLCAnLW1hJywgJzIwMCcsICctaW1hZScsICc8aW5maWxlLm1hZT4nLCAnLW9tYWUnLCAnPG91dGZpbGUubWFlPic=

>  <r_epik_Ionization_Penalty>  (375) 
1.12579

>  <r_epik_Ionization_Penalty_Charging>  (375) 
0.986523

>  <r_epik_Ionization_Penalty_Neutral>  (375) 
0.139268

>  <r_epik_State_Penalty>  (375) 
1.35272

>  <r_epik_Charging_Adjusted_Penalty>  (375) 
2.33925

>  <i_epik_Tot_Q>  (375) 
1

>  <i_epik_Tot_abs_Q>  (375) 
1

>  <s_lp_Force_Field>  (375) 
OPLS3e

>  <r_lp_Energy>  (375) 
46.8707

>  <b_lp_Chiralities_Consistent>  (375) 
1

>  <s_lp_Variant>  (375) 
96:0-5

>  <s_i_glide_gridfile>  (375) 
pfpi4k_grid

>  <i_i_glide_lignum>  (375) 
18

>  <i_i_glide_rotatable_bonds>  (375) 
3

>  <r_i_docking_score>  (375) 
-3.20565

>  <r_i_glide_ligand_efficiency>  (375) 
-0.15265

>  <r_i_glide_ligand_efficiency_sa>  (375) 
-0.421149

>  <r_i_glide_ligand_efficiency_ln>  (375) 
-0.79259

>  <r_i_glide_gscore>  (375) 
-3.20565

>  <r_i_glide_lipo>  (375) 
-0.175904

>  <r_i_glide_hbond>  (375) 
-0.240993

>  <r_i_glide_metal>  (375) 
-0

>  <r_i_glide_rewards>  (375) 
-1.49792

>  <r_i_glide_evdw>  (375) 
-20.5973

>  <r_i_glide_ecoul>  (375) 
-4.03708

>  <r_i_glide_erotb>  (375) 
0.459658

>  <r_i_glide_esite>  (375) 
-0.115059

>  <r_i_glide_emodel>  (375) 
-29.42

>  <r_i_glide_energy>  (375) 
-24.6344

>  <r_i_glide_einternal>  (375) 
2.5197

>  <r_i_glide_intrahb_reward>  (375) 
-0

>  <i_i_glide_confnum>  (375) 
6

>  <i_i_glide_posenum>  (375) 
15

>  <r_i_glide_eff_state_penalty>  (375) 
0

>  <ligand_id>  (375) 
96

>  <original_smiles>  (375) 
Cc1ccc2[nH]cc(C(N)=O)c(=Nc3ccnnc3)c2c1

>  <smiles>  (375) 
[H]c1nc2c([H])c([H])c(C([H])([H])[H])c([H])c2c(N([H])c2c([H])n[n+]([H])c([H])c2[H])c1C(=O)N([H])[H]

$$$$
97:0:0
     RDKit          3D

 57 62  0  0  1  0  0  0  0  0999 V2000
    7.3317   -8.5056    3.3563 C   0  0  0  0  0  0  0  0  0  0  0  0
    5.9280   -8.3487    3.5031 O   0  0  0  0  0  0  0  0  0  0  0  0
    5.1873   -8.9893    2.4800 C   0  0  1  0  0  0  0  0  0  0  0  0
    4.8066   -7.5007    1.7718 C   0  0  0  0  0  0  0  0  0  0  0  0
    3.2450   -7.0222    1.4310 C   0  0  0  0  0  0  0  0  0  0  0  0
    2.0643   -8.1402    1.8906 C   0  0  1  0  0  0  0  0  0  0  0  0
    0.9042   -7.4816    1.3722 O   0  0  0  0  0  0  0  0  0  0  0  0
    1.7774   -9.8222    2.6600 C   0  0  2  0  0  0  0  0  0  0  0  0
    0.3238  -10.0149    2.9426 C   0  0  0  0  0  0  0  0  0  0  0  0
   -0.0879   -8.7406    3.5445 C   0  0  0  0  0  0  0  0  0  0  0  0
   -1.3897   -8.2584    3.7538 C   0  0  0  0  0  0  0  0  0  0  0  0
   -1.5625   -7.0597    4.4367 C   0  0  0  0  0  0  0  0  0  0  0  0
   -0.4650   -6.5254    5.1610 C   0  0  0  0  0  0  0  0  0  0  0  0
   -0.6864   -5.5614    6.0919 O   0  0  0  0  0  0  0  0  0  0  0  0
    0.8284   -7.1149    5.0732 C   0  0  0  0  0  0  0  0  0  0  0  0
    1.0581   -7.9816    3.9833 C   0  0  0  0  0  0  0  0  0  0  0  0
    2.5965   -8.0973    3.1863 C   0  0  2  0  0  0  0  0  0  0  0  0
    3.4317   -7.2979    4.2722 C   0  0  0  0  0  0  0  0  0  0  0  0
    3.7139   -8.3431    5.4340 C   0  0  0  0  0  0  0  0  0  0  0  0
    2.9245   -9.6601    5.4032 N   0  0  1  0  0  0  0  0  0  0  0  0
    3.6093  -10.6036    6.3398 C   0  0  0  0  0  0  0  0  0  0  0  0
    1.5923   -9.4693    6.0847 C   0  0  0  0  0  0  0  0  0  0  0  0
    1.1240   -7.9800    6.3248 C   0  0  0  0  0  0  0  0  0  0  0  0
    2.9257  -10.3233    3.9808 C   0  0  2  0  0  0  0  0  0  0  0  0
    4.5569  -10.1544    3.5284 C   0  0  0  0  0  0  0  0  0  0  0  0
    3.8413   -9.1452    2.0976 C   0  0  1  0  0  0  0  0  0  0  0  0
    3.8064   -9.4450    0.6248 O   0  0  0  0  0  0  0  0  0  0  0  0
    7.8436   -8.0169    4.1895 H   0  0  0  0  0  0  0  0  0  0  0  0
    7.6855   -8.0515    2.4287 H   0  0  0  0  0  0  0  0  0  0  0  0
    7.6096   -9.5607    3.3617 H   0  0  0  0  0  0  0  0  0  0  0  0
    5.3227   -6.6572    2.2262 H   0  0  0  0  0  0  0  0  0  0  0  0
    5.3318   -7.4932    0.8102 H   0  0  0  0  0  0  0  0  0  0  0  0
    3.0427   -6.0446    1.8600 H   0  0  0  0  0  0  0  0  0  0  0  0
    3.1846   -6.8458    0.3587 H   0  0  0  0  0  0  0  0  0  0  0  0
    0.4868   -8.1042    0.7891 H   0  0  0  0  0  0  0  0  0  0  0  0
    1.8012  -10.5839    1.8906 H   0  0  0  0  0  0  0  0  0  0  0  0
   -0.2732  -10.1404    2.0443 H   0  0  0  0  0  0  0  0  0  0  0  0
    0.1263  -10.8590    3.6017 H   0  0  0  0  0  0  0  0  0  0  0  0
   -2.2270   -8.7946    3.3330 H   0  0  0  0  0  0  0  0  0  0  0  0
   -2.5566   -6.6520    4.5616 H   0  0  0  0  0  0  0  0  0  0  0  0
   -1.6067   -5.3867    6.2268 H   0  0  0  0  0  0  0  0  0  0  0  0
    4.3603   -6.8176    3.9941 H   0  0  0  0  0  0  0  0  0  0  0  0
    2.9430   -6.3801    4.6183 H   0  0  0  0  0  0  0  0  0  0  0  0
    4.7741   -8.5505    5.4668 H   0  0  0  0  0  0  0  0  0  0  0  0
    3.6565   -7.8387    6.3883 H   0  0  0  0  0  0  0  0  0  0  0  0
    3.0300  -11.5156    6.4555 H   0  0  0  0  0  0  0  0  0  0  0  0
    3.7157  -10.1707    7.3333 H   0  0  0  0  0  0  0  0  0  0  0  0
    4.6059  -10.9262    6.0836 H   0  0  0  0  0  0  0  0  0  0  0  0
    0.8129  -10.0659    5.6323 H   0  0  0  0  0  0  0  0  0  0  0  0
    1.5941   -9.8526    7.1030 H   0  0  0  0  0  0  0  0  0  0  0  0
    1.7765   -7.4097    6.9966 H   0  0  0  0  0  0  0  0  0  0  0  0
    0.2037   -8.0541    6.9250 H   0  0  0  0  0  0  0  0  0  0  0  0
    2.7188  -11.3797    4.1338 H   0  0  0  0  0  0  0  0  0  0  0  0
    4.8086  -11.1185    3.0664 H   0  0  0  0  0  0  0  0  0  0  0  0
    5.2668  -10.2717    4.3344 H   0  0  0  0  0  0  0  0  0  0  0  0
    3.6962  -10.1828    1.6918 H   0  0  0  0  0  0  0  0  0  0  0  0
    3.9556  -10.3860    0.4787 H   0  0  0  0  0  0  0  0  0  0  0  0
  1  2  1  0
  1 28  1  0
  1 29  1  0
  1 30  1  0
  3  2  1  1
  3 25  1  0
  3 26  1  0
  3  4  1  0
  4  5  1  0
  4 31  1  0
  4 32  1  0
  5  6  1  0
  5 33  1  0
  5 34  1  0
  6 17  1  0
  6  7  1  1
  6  8  1  0
  7 35  1  0
  8 24  1  0
  8  9  1  0
  8 36  1  6
  9 10  1  0
  9 37  1  0
  9 38  1  0
 10 16  2  0
 10 11  1  0
 11 12  2  0
 11 39  1  0
 12 13  1  0
 12 40  1  0
 13 14  1  0
 13 15  2  0
 14 41  1  0
 15 23  1  0
 15 16  1  0
 16 17  1  0
 17 18  1  6
 17 26  1  0
 18 19  1  0
 18 42  1  0
 18 43  1  0
 19 20  1  0
 19 44  1  0
 19 45  1  0
 20 21  1  1
 20 22  1  0
 20 24  1  0
 21 46  1  0
 21 47  1  0
 21 48  1  0
 22 23  1  0
 22 49  1  0
 22 50  1  0
 23 51  1  0
 23 52  1  0
 24 25  1  0
 24 53  1  1
 25 54  1  0
 25 55  1  0
 26 27  1  0
 26 56  1  1
 27 57  1  0
M  CHG  1  20   1
M  END
>  <i_m_ct_stereo_status>  (376) 
1

>  <s_m_source_file>  (376) 
/var/tmp/pbs.5076255.sched01/tmpsabrbf27/138opeauupd.sdf

>  <i_m_source_file_index>  (376) 
19

>  <i_lp_mmshare_version>  (376) 
48012

>  <i_f3d_flags>  (376) 
0

>  <s_epik_input>  (376) 
W0NIM11PW0NAXShbQ0gyXVtDSDJdMSkoW0NAQEhdMltPSF0pW0NIMl1bQ0BIXShbQ0BASF0zW0NAXTEoQzI0NSlbT0hdKVtOQEArXShbQ0gzXSkoW0NIMl1bQ0gyXTUpW0NIMl1bQ0gyXWM2YzRjKFtDSDJdMylbY0hdW2NIXWM2W09IXQ==

>  <s_epik_cmdline>  (376) 
J2VwaWtfcHl0aG9uJywgJy1waHQnLCAnMi4wJywgJy1waCcsICc3LjAnLCAnLXRuJywgJzgnLCAnLW1hJywgJzIwMCcsICctaW1hZScsICc8aW5maWxlLm1hZT4nLCAnLW9tYWUnLCAnPG91dGZpbGUubWFlPic=

>  <r_lp_tautomer_probability>  (376) 
1

>  <r_epik_Ionization_Penalty>  (376) 
0.000648652

>  <r_epik_Ionization_Penalty_Charging>  (376) 
0

>  <r_epik_Ionization_Penalty_Neutral>  (376) 
0.000648652

>  <r_epik_State_Penalty>  (376) 
0.000407412

>  <r_epik_Charging_Adjusted_Penalty>  (376) 
0.000407412

>  <i_epik_Tot_Q>  (376) 
1

>  <i_epik_Tot_abs_Q>  (376) 
1

>  <s_lp_Force_Field>  (376) 
OPLS3e

>  <r_lp_Energy>  (376) 
786.15

>  <b_lp_Chiralities_Consistent>  (376) 
1

>  <s_lp_Variant>  (376) 
97:0-1

>  <s_i_glide_gridfile>  (376) 
pfpi4k_grid

>  <i_i_glide_lignum>  (376) 
19

>  <i_i_glide_rotatable_bonds>  (376) 
4

>  <r_i_docking_score>  (376) 
-4.1062

>  <r_i_glide_ligand_efficiency>  (376) 
-0.152081

>  <r_i_glide_ligand_efficiency_sa>  (376) 
-0.456244

>  <r_i_glide_ligand_efficiency_ln>  (376) 
-0.955855

>  <r_i_glide_gscore>  (376) 
-4.1062

>  <r_i_glide_lipo>  (376) 
-0.226694

>  <r_i_glide_hbond>  (376) 
-0.427912

>  <r_i_glide_metal>  (376) 
-0

>  <r_i_glide_rewards>  (376) 
-0.869469

>  <r_i_glide_evdw>  (376) 
-19.1479

>  <r_i_glide_ecoul>  (376) 
-10.6687

>  <r_i_glide_erotb>  (376) 
0

>  <r_i_glide_esite>  (376) 
-0.024422

>  <r_i_glide_emodel>  (376) 
-40.2063

>  <r_i_glide_energy>  (376) 
-29.8166

>  <r_i_glide_einternal>  (376) 
1.70048

>  <r_i_glide_intrahb_reward>  (376) 
-0

>  <i_i_glide_confnum>  (376) 
2

>  <i_i_glide_posenum>  (376) 
32

>  <r_i_glide_eff_state_penalty>  (376) 
0

>  <ligand_id>  (376) 
97

>  <original_smiles>  (376) 
COC12CCC3(O)C4Cc5ccc(O)c6c5C3(CC[N+](C)(CC6)C4C1)C2O

>  <smiles>  (376) 
[H]Oc1c([H])c([H])c2c3c1C([H])([H])C([H])([H])[N+]1(C([H])([H])[H])C([H])([H])C([H])([H])C34C([H])(O[H])C3(OC([H])([H])[H])C([H])([H])C([H])([H])C4(O[H])C([H])(C2([H])[H])C1([H])C3([H])[H]

$$$$
97:0:1
     RDKit          3D

 57 62  0  0  1  0  0  0  0  0999 V2000
    7.3430   -8.5238    3.3640 C   0  0  0  0  0  0  0  0  0  0  0  0
    5.9370   -8.3727    3.5179 O   0  0  0  0  0  0  0  0  0  0  0  0
    5.1988   -8.9983    2.4849 C   0  0  1  0  0  0  0  0  0  0  0  0
    4.8222   -7.5063    1.7838 C   0  0  0  0  0  0  0  0  0  0  0  0
    3.2608   -7.0272    1.4362 C   0  0  0  0  0  0  0  0  0  0  0  0
    2.0795   -8.1421    1.8989 C   0  0  1  0  0  0  0  0  0  0  0  0
    0.9236   -7.4827    1.3734 O   0  0  0  0  0  0  0  0  0  0  0  0
    1.7827   -9.8249    2.6514 C   0  0  2  0  0  0  0  0  0  0  0  0
    0.3226  -10.0076    2.9350 C   0  0  0  0  0  0  0  0  0  0  0  0
   -0.0678   -8.7397    3.5574 C   0  0  0  0  0  0  0  0  0  0  0  0
   -1.3674   -8.2511    3.7554 C   0  0  0  0  0  0  0  0  0  0  0  0
   -1.5340   -7.0592    4.4607 C   0  0  0  0  0  0  0  0  0  0  0  0
   -0.4374   -6.5330    5.1825 C   0  0  0  0  0  0  0  0  0  0  0  0
   -0.6728   -5.5631    6.1171 O   0  0  0  0  0  0  0  0  0  0  0  0
    0.8496   -7.1433    5.1089 C   0  0  0  0  0  0  0  0  0  0  0  0
    1.0757   -8.0036    4.0115 C   0  0  0  0  0  0  0  0  0  0  0  0
    2.6063   -8.1030    3.1933 C   0  0  2  0  0  0  0  0  0  0  0  0
    3.4498   -7.3204    4.2895 C   0  0  0  0  0  0  0  0  0  0  0  0
    3.7260   -8.3692    5.4450 C   0  0  0  0  0  0  0  0  0  0  0  0
    2.9266   -9.6812    5.4062 N   0  0  1  0  0  0  0  0  0  0  0  0
    3.6084  -10.6361    6.3426 C   0  0  0  0  0  0  0  0  0  0  0  0
    1.5971   -9.4900    6.1097 C   0  0  0  0  0  0  0  0  0  0  0  0
    1.1374   -8.0043    6.3571 C   0  0  0  0  0  0  0  0  0  0  0  0
    2.9250  -10.3339    3.9733 C   0  0  2  0  0  0  0  0  0  0  0  0
    4.5562  -10.1756    3.5170 C   0  0  0  0  0  0  0  0  0  0  0  0
    3.8560   -9.1527    2.1055 C   0  0  1  0  0  0  0  0  0  0  0  0
    3.8294   -9.4528    0.6500 O   0  0  0  0  0  0  0  0  0  0  0  0
    7.8628   -8.0445    4.1975 H   0  0  0  0  0  0  0  0  0  0  0  0
    7.6934   -8.0560    2.4426 H   0  0  0  0  0  0  0  0  0  0  0  0
    7.6335   -9.5745    3.3529 H   0  0  0  0  0  0  0  0  0  0  0  0
    5.3434   -6.6603    2.2375 H   0  0  0  0  0  0  0  0  0  0  0  0
    5.3554   -7.4781    0.8283 H   0  0  0  0  0  0  0  0  0  0  0  0
    3.0599   -6.0455    1.8537 H   0  0  0  0  0  0  0  0  0  0  0  0
    3.1949   -6.8398    0.3713 H   0  0  0  0  0  0  0  0  0  0  0  0
    0.4811   -8.1019    0.8036 H   0  0  0  0  0  0  0  0  0  0  0  0
    1.8048  -10.5731    1.8703 H   0  0  0  0  0  0  0  0  0  0  0  0
   -0.2895  -10.1278    2.0508 H   0  0  0  0  0  0  0  0  0  0  0  0
    0.1136  -10.8486    3.5916 H   0  0  0  0  0  0  0  0  0  0  0  0
   -2.2031   -8.7818    3.3409 H   0  0  0  0  0  0  0  0  0  0  0  0
   -2.5303   -6.6484    4.5833 H   0  0  0  0  0  0  0  0  0  0  0  0
    0.0952   -5.3637    6.6371 H   0  0  0  0  0  0  0  0  0  0  0  0
    4.3699   -6.8168    4.0204 H   0  0  0  0  0  0  0  0  0  0  0  0
    2.9632   -6.4109    4.6492 H   0  0  0  0  0  0  0  0  0  0  0  0
    4.7806   -8.5908    5.4879 H   0  0  0  0  0  0  0  0  0  0  0  0
    3.6701   -7.8811    6.4032 H   0  0  0  0  0  0  0  0  0  0  0  0
    3.0324  -11.5493    6.4640 H   0  0  0  0  0  0  0  0  0  0  0  0
    3.7189  -10.2150    7.3376 H   0  0  0  0  0  0  0  0  0  0  0  0
    4.6023  -10.9660    6.0945 H   0  0  0  0  0  0  0  0  0  0  0  0
    0.8140  -10.0727    5.6558 H   0  0  0  0  0  0  0  0  0  0  0  0
    1.5961   -9.8850    7.1193 H   0  0  0  0  0  0  0  0  0  0  0  0
    1.7824   -7.4263    7.0234 H   0  0  0  0  0  0  0  0  0  0  0  0
    0.2232   -8.0617    6.9682 H   0  0  0  0  0  0  0  0  0  0  0  0
    2.7123  -11.3818    4.1259 H   0  0  0  0  0  0  0  0  0  0  0  0
    4.8106  -11.1410    3.0443 H   0  0  0  0  0  0  0  0  0  0  0  0
    5.2513  -10.3071    4.3259 H   0  0  0  0  0  0  0  0  0  0  0  0
    3.7009  -10.1770    1.6892 H   0  0  0  0  0  0  0  0  0  0  0  0
    3.9433  -10.3914    0.4862 H   0  0  0  0  0  0  0  0  0  0  0  0
  1  2  1  0
  1 28  1  0
  1 29  1  0
  1 30  1  0
  3  2  1  1
  3 25  1  0
  3 26  1  0
  3  4  1  0
  4  5  1  0
  4 31  1  0
  4 32  1  0
  5  6  1  0
  5 33  1  0
  5 34  1  0
  6 17  1  0
  6  7  1  1
  6  8  1  0
  7 35  1  0
  8 24  1  0
  8  9  1  0
  8 36  1  6
  9 10  1  0
  9 37  1  0
  9 38  1  0
 10 16  2  0
 10 11  1  0
 11 12  2  0
 11 39  1  0
 12 13  1  0
 12 40  1  0
 13 14  1  0
 13 15  2  0
 14 41  1  0
 15 23  1  0
 15 16  1  0
 16 17  1  0
 17 18  1  6
 17 26  1  0
 18 19  1  0
 18 42  1  0
 18 43  1  0
 19 20  1  0
 19 44  1  0
 19 45  1  0
 20 21  1  1
 20 22  1  0
 20 24  1  0
 21 46  1  0
 21 47  1  0
 21 48  1  0
 22 23  1  0
 22 49  1  0
 22 50  1  0
 23 51  1  0
 23 52  1  0
 24 25  1  0
 24 53  1  1
 25 54  1  0
 25 55  1  0
 26 27  1  0
 26 56  1  1
 27 57  1  0
M  CHG  1  20   1
M  END
>  <i_m_ct_stereo_status>  (377) 
1

>  <s_m_source_file>  (377) 
/var/tmp/pbs.5076255.sched01/tmpsabrbf27/138opeauupd.sdf

>  <i_m_source_file_index>  (377) 
19

>  <i_lp_mmshare_version>  (377) 
48012

>  <i_f3d_flags>  (377) 
0

>  <s_epik_input>  (377) 
W0NIM11PW0NAXShbQ0gyXVtDSDJdMSkoW0NAQEhdMltPSF0pW0NIMl1bQ0BIXShbQ0BASF0zW0NAXTEoQzI0NSlbT0hdKVtOQEArXShbQ0gzXSkoW0NIMl1bQ0gyXTUpW0NIMl1bQ0gyXWM2YzRjKFtDSDJdMylbY0hdW2NIXWM2W09IXQ==

>  <s_epik_cmdline>  (377) 
J2VwaWtfcHl0aG9uJywgJy1waHQnLCAnMi4wJywgJy1waCcsICc3LjAnLCAnLXRuJywgJzgnLCAnLW1hJywgJzIwMCcsICctaW1hZScsICc8aW5maWxlLm1hZT4nLCAnLW9tYWUnLCAnPG91dGZpbGUubWFlPic=

>  <r_lp_tautomer_probability>  (377) 
1

>  <r_epik_Ionization_Penalty>  (377) 
0.000648652

>  <r_epik_Ionization_Penalty_Charging>  (377) 
0

>  <r_epik_Ionization_Penalty_Neutral>  (377) 
0.000648652

>  <r_epik_State_Penalty>  (377) 
0.000407412

>  <r_epik_Charging_Adjusted_Penalty>  (377) 
0.000407412

>  <i_epik_Tot_Q>  (377) 
1

>  <i_epik_Tot_abs_Q>  (377) 
1

>  <s_lp_Force_Field>  (377) 
OPLS3e

>  <r_lp_Energy>  (377) 
786.15

>  <b_lp_Chiralities_Consistent>  (377) 
1

>  <s_lp_Variant>  (377) 
97:0-1

>  <s_i_glide_gridfile>  (377) 
pfpi4k_grid

>  <i_i_glide_lignum>  (377) 
19

>  <i_i_glide_rotatable_bonds>  (377) 
4

>  <r_i_docking_score>  (377) 
-4.05247

>  <r_i_glide_ligand_efficiency>  (377) 
-0.150092

>  <r_i_glide_ligand_efficiency_sa>  (377) 
-0.450275

>  <r_i_glide_ligand_efficiency_ln>  (377) 
-0.943349

>  <r_i_glide_gscore>  (377) 
-4.05247

>  <r_i_glide_lipo>  (377) 
-0.22635

>  <r_i_glide_hbond>  (377) 
-0.421999

>  <r_i_glide_metal>  (377) 
-0

>  <r_i_glide_rewards>  (377) 
-0.869469

>  <r_i_glide_evdw>  (377) 
-19.3152

>  <r_i_glide_ecoul>  (377) 
-10.2926

>  <r_i_glide_erotb>  (377) 
0

>  <r_i_glide_esite>  (377) 
-0.0249978

>  <r_i_glide_emodel>  (377) 
-39.8596

>  <r_i_glide_energy>  (377) 
-29.6079

>  <r_i_glide_einternal>  (377) 
1.53739

>  <r_i_glide_intrahb_reward>  (377) 
-0

>  <i_i_glide_confnum>  (377) 
2

>  <i_i_glide_posenum>  (377) 
14

>  <r_i_glide_eff_state_penalty>  (377) 
0

>  <ligand_id>  (377) 
97

>  <original_smiles>  (377) 
COC12CCC3(O)C4Cc5ccc(O)c6c5C3(CC[N+](C)(CC6)C4C1)C2O

>  <smiles>  (377) 
[H]Oc1c([H])c([H])c2c3c1C([H])([H])C([H])([H])[N+]1(C([H])([H])[H])C([H])([H])C([H])([H])C34C([H])(O[H])C3(OC([H])([H])[H])C([H])([H])C([H])([H])C4(O[H])C([H])(C2([H])[H])C1([H])C3([H])[H]

$$$$
97:0:2
     RDKit          3D

 57 62  0  0  1  0  0  0  0  0999 V2000
    0.7262  -11.8757    3.5204 C   0  0  0  0  0  0  0  0  0  0  0  0
    0.8429  -10.4950    3.2216 O   0  0  0  0  0  0  0  0  0  0  0  0
    0.8914   -9.7018    4.3910 C   0  0  1  0  0  0  0  0  0  0  0  0
   -0.4511   -8.8030    3.8868 C   0  0  0  0  0  0  0  0  0  0  0  0
   -0.4596   -7.1303    3.7935 C   0  0  0  0  0  0  0  0  0  0  0  0
    1.0247   -6.4207    4.1750 C   0  0  1  0  0  0  0  0  0  0  0  0
    0.6304   -5.0535    4.0703 O   0  0  0  0  0  0  0  0  0  0  0  0
    2.7635   -6.7322    4.7710 C   0  0  2  0  0  0  0  0  0  0  0  0
    3.5798   -5.4857    4.6498 C   0  0  0  0  0  0  0  0  0  0  0  0
    3.2371   -4.9647    3.3204 C   0  0  0  0  0  0  0  0  0  0  0  0
    3.4729   -3.6741    2.8290 C   0  0  0  0  0  0  0  0  0  0  0  0
    3.1427   -3.3995    1.4927 C   0  0  0  0  0  0  0  0  0  0  0  0
    2.8530   -4.4717    0.6352 C   0  0  0  0  0  0  0  0  0  0  0  0
    2.8491   -4.2506   -0.7149 O   0  0  0  0  0  0  0  0  0  0  0  0
    2.7857   -5.7948    1.1311 C   0  0  0  0  0  0  0  0  0  0  0  0
    2.5665   -5.9529    2.5298 C   0  0  0  0  0  0  0  0  0  0  0  0
    1.6219   -7.2348    3.2070 C   0  0  2  0  0  0  0  0  0  0  0  0
    1.4610   -8.0870    1.8937 C   0  0  0  0  0  0  0  0  0  0  0  0
    2.8142   -8.9021    1.7594 C   0  0  0  0  0  0  0  0  0  0  0  0
    3.9847   -8.4680    2.6563 N   0  0  1  0  0  0  0  0  0  0  0  0
    5.0023   -9.5786    2.6262 C   0  0  0  0  0  0  0  0  0  0  0  0
    4.7519   -7.3405    1.9936 C   0  0  0  0  0  0  0  0  0  0  0  0
    4.0456   -6.6068    0.8044 C   0  0  0  0  0  0  0  0  0  0  0  0
    3.5486   -8.2659    4.1600 C   0  0  2  0  0  0  0  0  0  0  0  0
    2.5817   -9.6417    4.4158 C   0  0  0  0  0  0  0  0  0  0  0  0
    1.2185   -8.3799    4.7521 C   0  0  1  0  0  0  0  0  0  0  0  0
    0.5169   -8.0522    6.0299 O   0  0  0  0  0  0  0  0  0  0  0  0
    0.6984  -12.4439    2.5902 H   0  0  0  0  0  0  0  0  0  0  0  0
   -0.1719  -12.0903    4.0945 H   0  0  0  0  0  0  0  0  0  0  0  0
    1.5740  -12.2427    4.0978 H   0  0  0  0  0  0  0  0  0  0  0  0
   -0.9307   -9.2045    2.9912 H   0  0  0  0  0  0  0  0  0  0  0  0
   -1.2487   -9.0572    4.5891 H   0  0  0  0  0  0  0  0  0  0  0  0
   -0.8043   -6.8139    2.8091 H   0  0  0  0  0  0  0  0  0  0  0  0
   -1.2148   -6.7566    4.4898 H   0  0  0  0  0  0  0  0  0  0  0  0
    1.4174   -4.5360    3.9705 H   0  0  0  0  0  0  0  0  0  0  0  0
    2.7836   -6.7621    5.8642 H   0  0  0  0  0  0  0  0  0  0  0  0
    3.2948   -4.7414    5.3992 H   0  0  0  0  0  0  0  0  0  0  0  0
    4.6480   -5.6796    4.7448 H   0  0  0  0  0  0  0  0  0  0  0  0
    3.8647   -2.9004    3.4755 H   0  0  0  0  0  0  0  0  0  0  0  0
    3.2664   -2.4064    1.0973 H   0  0  0  0  0  0  0  0  0  0  0  0
    2.9059   -5.0192   -1.2798 H   0  0  0  0  0  0  0  0  0  0  0  0
    0.6423   -8.7704    1.7864 H   0  0  0  0  0  0  0  0  0  0  0  0
    1.2196   -7.5088    1.0070 H   0  0  0  0  0  0  0  0  0  0  0  0
    2.6225   -9.9610    1.8981 H   0  0  0  0  0  0  0  0  0  0  0  0
    3.1117   -8.9744    0.7204 H   0  0  0  0  0  0  0  0  0  0  0  0
    5.9146   -9.2835    3.1475 H   0  0  0  0  0  0  0  0  0  0  0  0
    5.2859   -9.8230    1.6003 H   0  0  0  0  0  0  0  0  0  0  0  0
    4.7166  -10.5338    3.0512 H   0  0  0  0  0  0  0  0  0  0  0  0
    5.1522   -6.6460    2.7257 H   0  0  0  0  0  0  0  0  0  0  0  0
    5.6648   -7.7026    1.5178 H   0  0  0  0  0  0  0  0  0  0  0  0
    3.8564   -7.2481   -0.0543 H   0  0  0  0  0  0  0  0  0  0  0  0
    4.7886   -5.9179    0.3995 H   0  0  0  0  0  0  0  0  0  0  0  0
    4.4538   -8.3719    4.7569 H   0  0  0  0  0  0  0  0  0  0  0  0
    2.8681   -9.9927    5.4130 H   0  0  0  0  0  0  0  0  0  0  0  0
    2.9570  -10.5218    3.9075 H   0  0  0  0  0  0  0  0  0  0  0  0
    1.7166   -8.3846    5.7585 H   0  0  0  0  0  0  0  0  0  0  0  0
    0.5848   -8.8028    6.6021 H   0  0  0  0  0  0  0  0  0  0  0  0
  1  2  1  0
  1 28  1  0
  1 29  1  0
  1 30  1  0
  3  2  1  6
  3 25  1  0
  3 26  1  0
  3  4  1  0
  4  5  1  0
  4 31  1  0
  4 32  1  0
  5  6  1  0
  5 33  1  0
  5 34  1  0
  6 17  1  0
  6  7  1  6
  6  8  1  0
  7 35  1  0
  8 24  1  0
  8  9  1  0
  8 36  1  1
  9 10  1  0
  9 37  1  0
  9 38  1  0
 10 16  2  0
 10 11  1  0
 11 12  2  0
 11 39  1  0
 12 13  1  0
 12 40  1  0
 13 14  1  0
 13 15  2  0
 14 41  1  0
 15 23  1  0
 15 16  1  0
 16 17  1  0
 17 18  1  6
 17 26  1  0
 18 19  1  0
 18 42  1  0
 18 43  1  0
 19 20  1  0
 19 44  1  0
 19 45  1  0
 20 21  1  1
 20 22  1  0
 20 24  1  0
 21 46  1  0
 21 47  1  0
 21 48  1  0
 22 23  1  0
 22 49  1  0
 22 50  1  0
 23 51  1  0
 23 52  1  0
 24 25  1  0
 24 53  1  1
 25 54  1  0
 25 55  1  0
 26 27  1  0
 26 56  1  1
 27 57  1  0
M  CHG  1  20   1
M  END
>  <i_m_ct_stereo_status>  (378) 
1

>  <s_m_source_file>  (378) 
/var/tmp/pbs.5076255.sched01/tmpsabrbf27/138opeauupd.sdf

>  <i_m_source_file_index>  (378) 
19

>  <i_lp_mmshare_version>  (378) 
48012

>  <i_f3d_flags>  (378) 
0

>  <s_epik_input>  (378) 
W0NIM11PW0NAXShbQ0gyXVtDSDJdMSkoW0NAQEhdMltPSF0pW0NIMl1bQ0BIXShbQ0BASF0zW0NAXTEoQzI0NSlbT0hdKVtOQEArXShbQ0gzXSkoW0NIMl1bQ0gyXTUpW0NIMl1bQ0gyXWM2YzRjKFtDSDJdMylbY0hdW2NIXWM2W09IXQ==

>  <s_epik_cmdline>  (378) 
J2VwaWtfcHl0aG9uJywgJy1waHQnLCAnMi4wJywgJy1waCcsICc3LjAnLCAnLXRuJywgJzgnLCAnLW1hJywgJzIwMCcsICctaW1hZScsICc8aW5maWxlLm1hZT4nLCAnLW9tYWUnLCAnPG91dGZpbGUubWFlPic=

>  <r_lp_tautomer_probability>  (378) 
1

>  <r_epik_Ionization_Penalty>  (378) 
0.000648652

>  <r_epik_Ionization_Penalty_Charging>  (378) 
0

>  <r_epik_Ionization_Penalty_Neutral>  (378) 
0.000648652

>  <r_epik_State_Penalty>  (378) 
0.000407412

>  <r_epik_Charging_Adjusted_Penalty>  (378) 
0.000407412

>  <i_epik_Tot_Q>  (378) 
1

>  <i_epik_Tot_abs_Q>  (378) 
1

>  <s_lp_Force_Field>  (378) 
OPLS3e

>  <r_lp_Energy>  (378) 
786.15

>  <b_lp_Chiralities_Consistent>  (378) 
1

>  <s_lp_Variant>  (378) 
97:0-1

>  <s_i_glide_gridfile>  (378) 
pfpi4k_grid

>  <i_i_glide_lignum>  (378) 
19

>  <i_i_glide_rotatable_bonds>  (378) 
4

>  <r_i_docking_score>  (378) 
-3.24974

>  <r_i_glide_ligand_efficiency>  (378) 
-0.120361

>  <r_i_glide_ligand_efficiency_sa>  (378) 
-0.361082

>  <r_i_glide_ligand_efficiency_ln>  (378) 
-0.756485

>  <r_i_glide_gscore>  (378) 
-3.24974

>  <r_i_glide_lipo>  (378) 
-0.152097

>  <r_i_glide_hbond>  (378) 
-0.32

>  <r_i_glide_metal>  (378) 
-0

>  <r_i_glide_rewards>  (378) 
-0.869469

>  <r_i_glide_evdw>  (378) 
-20.1125

>  <r_i_glide_ecoul>  (378) 
-5.97548

>  <r_i_glide_erotb>  (378) 
0

>  <r_i_glide_esite>  (378) 
-0.00622128

>  <r_i_glide_emodel>  (378) 
-34.4567

>  <r_i_glide_energy>  (378) 
-26.088

>  <r_i_glide_einternal>  (378) 
1.01905

>  <r_i_glide_intrahb_reward>  (378) 
-0

>  <i_i_glide_confnum>  (378) 
2

>  <i_i_glide_posenum>  (378) 
7

>  <r_i_glide_eff_state_penalty>  (378) 
0

>  <ligand_id>  (378) 
97

>  <original_smiles>  (378) 
COC12CCC3(O)C4Cc5ccc(O)c6c5C3(CC[N+](C)(CC6)C4C1)C2O

>  <smiles>  (378) 
[H]Oc1c([H])c([H])c2c3c1C([H])([H])C([H])([H])[N+]1(C([H])([H])[H])C([H])([H])C([H])([H])C34C([H])(O[H])C3(OC([H])([H])[H])C([H])([H])C([H])([H])C4(O[H])C([H])(C2([H])[H])C1([H])C3([H])[H]

$$$$
98:0:0
     RDKit          3D

 36 42  0  0  1  0  0  0  0  0999 V2000
   -6.7183   -3.9734   -4.3579 C   0  0  0  0  0  0  0  0  0  0  0  0
   -6.8830   -5.2070   -5.2030 C   0  0  0  0  0  0  0  0  0  0  0  0
   -7.5958   -5.1576   -6.4344 C   0  0  0  0  0  0  0  0  0  0  0  0
   -7.7872   -6.2342   -7.2202 N   0  0  0  0  0  0  0  0  0  0  0  0
   -7.2874   -7.3973   -6.7909 C   0  0  0  0  0  0  0  0  0  0  0  0
   -6.5001   -7.5116   -5.6490 C   0  0  0  0  0  0  0  0  0  0  0  0
   -6.3077   -6.4247   -4.7991 C   0  0  0  0  0  0  0  0  0  0  0  0
   -5.9562   -8.7876   -5.5756 N   0  0  0  0  0  0  0  0  0  0  0  0
   -6.2982   -9.4797   -6.6773 C   0  0  0  0  0  0  0  0  0  0  0  0
   -5.7733  -10.5454   -7.0041 O   0  0  0  0  0  0  0  0  0  0  0  0
   -7.3897   -8.7410   -7.4973 C   0  0  1  0  0  0  0  0  0  0  0  0
   -8.6333   -9.6894   -7.6751 C   0  0  1  0  0  0  0  0  0  0  0  0
  -10.0786   -9.2107   -8.0364 C   0  0  1  0  0  0  0  0  0  0  0  0
  -10.4197   -7.7339   -8.2133 C   0  0  0  0  0  0  0  0  0  0  0  0
   -9.7818   -7.7746   -9.6154 C   0  0  2  0  0  0  0  0  0  0  0  0
  -10.1917   -9.2382   -9.5743 C   0  0  1  0  0  0  0  0  0  0  0  0
   -8.8668   -9.6479  -10.1759 C   0  0  1  0  0  0  0  0  0  0  0  0
   -8.3272   -8.2227  -10.0073 C   0  0  2  0  0  0  0  0  0  0  0  0
   -7.2453   -8.7924   -9.0362 C   0  0  2  0  0  0  0  0  0  0  0  0
   -7.9990  -10.1064   -9.0212 C   0  0  1  0  0  0  0  0  0  0  0  0
   -7.3178   -3.1535   -4.7451 H   0  0  0  0  0  0  0  0  0  0  0  0
   -5.6783   -3.6531   -4.3434 H   0  0  0  0  0  0  0  0  0  0  0  0
   -7.0305   -4.1863   -3.3361 H   0  0  0  0  0  0  0  0  0  0  0  0
   -7.9770   -4.2321   -6.8275 H   0  0  0  0  0  0  0  0  0  0  0  0
   -5.7562   -6.5232   -3.8715 H   0  0  0  0  0  0  0  0  0  0  0  0
   -5.2889   -9.0851   -4.8939 H   0  0  0  0  0  0  0  0  0  0  0  0
   -8.6314  -10.5278   -6.9779 H   0  0  0  0  0  0  0  0  0  0  0  0
  -10.8802   -9.7795   -7.5606 H   0  0  0  0  0  0  0  0  0  0  0  0
  -11.4993   -7.5591   -8.2318 H   0  0  0  0  0  0  0  0  0  0  0  0
   -9.9576   -7.0575   -7.5250 H   0  0  0  0  0  0  0  0  0  0  0  0
  -10.3195   -7.2177  -10.3786 H   0  0  0  0  0  0  0  0  0  0  0  0
  -11.1523   -9.4207  -10.0587 H   0  0  0  0  0  0  0  0  0  0  0  0
   -8.7856  -10.0646  -11.1815 H   0  0  0  0  0  0  0  0  0  0  0  0
   -7.9597   -7.8490  -10.9633 H   0  0  0  0  0  0  0  0  0  0  0  0
   -6.2423   -8.9033   -9.4428 H   0  0  0  0  0  0  0  0  0  0  0  0
   -7.3750  -10.9974   -9.1062 H   0  0  0  0  0  0  0  0  0  0  0  0
  1  2  1  0
  1 21  1  0
  1 22  1  0
  1 23  1  0
  2  7  2  0
  2  3  1  0
  3  4  2  0
  3 24  1  0
  4  5  1  0
  5 11  1  0
  5  6  2  0
  6  7  1  0
  6  8  1  0
  7 25  1  0
  8  9  1  0
  8 26  1  0
  9 10  2  0
 11  9  1  1
 11 19  1  0
 11 12  1  0
 12 20  1  0
 12 13  1  0
 12 27  1  1
 13 16  1  0
 13 14  1  0
 13 28  1  1
 14 15  1  0
 14 29  1  0
 14 30  1  0
 15 18  1  0
 15 16  1  0
 15 31  1  6
 16 17  1  0
 16 32  1  1
 17 20  1  0
 17 18  1  0
 17 33  1  6
 18 19  1  0
 18 34  1  6
 19 20  1  0
 19 35  1  1
 20 36  1  1
M  END
>  <i_m_ct_stereo_status>  (379) 
1

>  <s_m_source_file>  (379) 
/var/tmp/pbs.5076255.sched01/tmpsabrbf27/138opeauupd.sdf

>  <i_m_source_file_index>  (379) 
20

>  <i_lp_mmshare_version>  (379) 
48012

>  <i_f3d_flags>  (379) 
0

>  <s_epik_input>  (379) 
bjFbY0hdYyhbQ0gzXSlbY0hdYyhbTkhdQzI9TyljMVtDQF0yM1tDQEhdNFtDQEBIXTVbQ0BIXTZbQ0BASF0oW0NIMl01KVtDQEBIXTdbQ0BIXTZbQ0BIXTRbQ0BIXTM3

>  <s_epik_cmdline>  (379) 
J2VwaWtfcHl0aG9uJywgJy1waHQnLCAnMi4wJywgJy1waCcsICc3LjAnLCAnLXRuJywgJzgnLCAnLW1hJywgJzIwMCcsICctaW1hZScsICc8aW5maWxlLm1hZT4nLCAnLW9tYWUnLCAnPG91dGZpbGUubWFlPic=

>  <r_epik_Ionization_Penalty>  (379) 
0.0414214

>  <r_epik_Ionization_Penalty_Charging>  (379) 
0

>  <r_epik_Ionization_Penalty_Neutral>  (379) 
0.0414214

>  <r_epik_State_Penalty>  (379) 
0.0349238

>  <r_epik_Charging_Adjusted_Penalty>  (379) 
0.0349238

>  <i_epik_Tot_Q>  (379) 
0

>  <i_epik_Tot_abs_Q>  (379) 
0

>  <s_lp_Force_Field>  (379) 
OPLS3e

>  <r_lp_Energy>  (379) 
92.7162

>  <b_lp_Chiralities_Consistent>  (379) 
1

>  <s_lp_Variant>  (379) 
98:0-1

>  <s_i_glide_gridfile>  (379) 
pfpi4k_grid

>  <i_i_glide_lignum>  (379) 
20

>  <i_i_glide_rotatable_bonds>  (379) 
0

>  <r_i_docking_score>  (379) 
-5.85089

>  <r_i_glide_ligand_efficiency>  (379) 
-0.292545

>  <r_i_glide_ligand_efficiency_sa>  (379) 
-0.794088

>  <r_i_glide_ligand_efficiency_ln>  (379) 
-1.46429

>  <r_i_glide_gscore>  (379) 
-5.85089

>  <r_i_glide_lipo>  (379) 
-2.32725

>  <r_i_glide_hbond>  (379) 
0

>  <r_i_glide_metal>  (379) 
-0

>  <r_i_glide_rewards>  (379) 
-2.12455

>  <r_i_glide_evdw>  (379) 
-24.1053

>  <r_i_glide_ecoul>  (379) 
-1.29219

>  <r_i_glide_erotb>  (379) 
0

>  <r_i_glide_esite>  (379) 
0

>  <r_i_glide_emodel>  (379) 
-33.7303

>  <r_i_glide_energy>  (379) 
-25.3975

>  <r_i_glide_einternal>  (379) 
0

>  <r_i_glide_intrahb_reward>  (379) 
-0

>  <i_i_glide_confnum>  (379) 
1

>  <i_i_glide_posenum>  (379) 
1

>  <r_i_glide_eff_state_penalty>  (379) 
0

>  <ligand_id>  (379) 
98

>  <original_smiles>  (379) 
Cc1cnc2c(c1)NC(=O)C21C2C3CC4C3C3C4C1C32

>  <smiles>  (379) 
[H]c1nc2c(c([H])c1C([H])([H])[H])N([H])C(=O)C21C2([H])C3([H])C([H])([H])C4([H])C3([H])C3([H])C4([H])C1([H])C23[H]

$$$$
98:0:1
     RDKit          3D

 36 42  0  0  1  0  0  0  0  0999 V2000
    1.2836   -1.2759    2.2419 C   0  0  0  0  0  0  0  0  0  0  0  0
    0.8774   -0.1154    3.1068 C   0  0  0  0  0  0  0  0  0  0  0  0
    0.6471   -0.2953    4.5019 C   0  0  0  0  0  0  0  0  0  0  0  0
    0.2518    0.6944    5.3290 N   0  0  0  0  0  0  0  0  0  0  0  0
    0.0824    1.9009    4.7790 C   0  0  0  0  0  0  0  0  0  0  0  0
    0.3952    2.1861    3.4582 C   0  0  0  0  0  0  0  0  0  0  0  0
    0.7509    1.1773    2.5605 C   0  0  0  0  0  0  0  0  0  0  0  0
    0.3531    3.5521    3.2723 N   0  0  0  0  0  0  0  0  0  0  0  0
    0.0610    4.1846    4.4100 C   0  0  0  0  0  0  0  0  0  0  0  0
    0.0753    5.4110    4.5547 O   0  0  0  0  0  0  0  0  0  0  0  0
   -0.3558    3.1690    5.5026 C   0  0  1  0  0  0  0  0  0  0  0  0
   -1.7759    3.5660    6.0384 C   0  0  1  0  0  0  0  0  0  0  0  0
   -2.7456    2.6097    6.7971 C   0  0  1  0  0  0  0  0  0  0  0  0
   -2.3960    1.1431    6.9790 C   0  0  0  0  0  0  0  0  0  0  0  0
   -1.4626    1.5660    8.1606 C   0  0  2  0  0  0  0  0  0  0  0  0
   -2.4354    2.7347    8.3030 C   0  0  1  0  0  0  0  0  0  0  0  0
   -1.2897    3.7026    8.5001 C   0  0  1  0  0  0  0  0  0  0  0  0
   -0.2805    2.5967    8.1480 C   0  0  2  0  0  0  0  0  0  0  0  0
    0.1677    3.4438    6.9212 C   0  0  2  0  0  0  0  0  0  0  0  0
   -1.0374    4.3451    7.1515 C   0  0  1  0  0  0  0  0  0  0  0  0
    1.2094   -2.2316    2.7565 H   0  0  0  0  0  0  0  0  0  0  0  0
    2.3077   -1.1498    1.9007 H   0  0  0  0  0  0  0  0  0  0  0  0
    0.6439   -1.3168    1.3651 H   0  0  0  0  0  0  0  0  0  0  0  0
    0.7879   -1.2495    4.9738 H   0  0  0  0  0  0  0  0  0  0  0  0
    0.9291    1.3858    1.5114 H   0  0  0  0  0  0  0  0  0  0  0  0
    0.4718    3.9755    2.3625 H   0  0  0  0  0  0  0  0  0  0  0  0
   -2.3116    4.2170    5.3545 H   0  0  0  0  0  0  0  0  0  0  0  0
   -3.8029    2.7789    6.5948 H   0  0  0  0  0  0  0  0  0  0  0  0
   -3.2903    0.5864    7.2555 H   0  0  0  0  0  0  0  0  0  0  0  0
   -1.9828    0.6811    6.0939 H   0  0  0  0  0  0  0  0  0  0  0  0
   -1.4522    0.9453    9.0548 H   0  0  0  0  0  0  0  0  0  0  0  0
   -3.2170    2.5885    9.0492 H   0  0  0  0  0  0  0  0  0  0  0  0
   -1.1082    4.2147    9.4485 H   0  0  0  0  0  0  0  0  0  0  0  0
    0.4459    2.4886    8.9530 H   0  0  0  0  0  0  0  0  0  0  0  0
    1.0999    3.9952    7.0309 H   0  0  0  0  0  0  0  0  0  0  0  0
   -0.8093    5.4061    7.0684 H   0  0  0  0  0  0  0  0  0  0  0  0
  1  2  1  0
  1 21  1  0
  1 22  1  0
  1 23  1  0
  2  7  2  0
  2  3  1  0
  3  4  2  0
  3 24  1  0
  4  5  1  0
  5 11  1  0
  5  6  2  0
  6  7  1  0
  6  8  1  0
  7 25  1  0
  8  9  1  0
  8 26  1  0
  9 10  2  0
 11  9  1  6
 11 19  1  0
 11 12  1  0
 12 20  1  0
 12 13  1  0
 12 27  1  6
 13 16  1  0
 13 14  1  0
 13 28  1  1
 14 15  1  0
 14 29  1  0
 14 30  1  0
 15 18  1  0
 15 16  1  0
 15 31  1  1
 16 17  1  0
 16 32  1  1
 17 20  1  0
 17 18  1  0
 17 33  1  1
 18 19  1  0
 18 34  1  1
 19 20  1  0
 19 35  1  6
 20 36  1  1
M  END
>  <i_m_ct_stereo_status>  (380) 
1

>  <s_m_source_file>  (380) 
/var/tmp/pbs.5076255.sched01/tmpsabrbf27/138opeauupd.sdf

>  <i_m_source_file_index>  (380) 
20

>  <i_lp_mmshare_version>  (380) 
48012

>  <i_f3d_flags>  (380) 
0

>  <s_epik_input>  (380) 
bjFbY0hdYyhbQ0gzXSlbY0hdYyhbTkhdQzI9TyljMVtDQF0yM1tDQEhdNFtDQEBIXTVbQ0BIXTZbQ0BASF0oW0NIMl01KVtDQEBIXTdbQ0BIXTZbQ0BIXTRbQ0BIXTM3

>  <s_epik_cmdline>  (380) 
J2VwaWtfcHl0aG9uJywgJy1waHQnLCAnMi4wJywgJy1waCcsICc3LjAnLCAnLXRuJywgJzgnLCAnLW1hJywgJzIwMCcsICctaW1hZScsICc8aW5maWxlLm1hZT4nLCAnLW9tYWUnLCAnPG91dGZpbGUubWFlPic=

>  <r_epik_Ionization_Penalty>  (380) 
0.0414214

>  <r_epik_Ionization_Penalty_Charging>  (380) 
0

>  <r_epik_Ionization_Penalty_Neutral>  (380) 
0.0414214

>  <r_epik_State_Penalty>  (380) 
0.0349238

>  <r_epik_Charging_Adjusted_Penalty>  (380) 
0.0349238

>  <i_epik_Tot_Q>  (380) 
0

>  <i_epik_Tot_abs_Q>  (380) 
0

>  <s_lp_Force_Field>  (380) 
OPLS3e

>  <r_lp_Energy>  (380) 
92.7162

>  <b_lp_Chiralities_Consistent>  (380) 
1

>  <s_lp_Variant>  (380) 
98:0-1

>  <s_i_glide_gridfile>  (380) 
pfpi4k_grid

>  <i_i_glide_lignum>  (380) 
20

>  <i_i_glide_rotatable_bonds>  (380) 
0

>  <r_i_docking_score>  (380) 
-3.57649

>  <r_i_glide_ligand_efficiency>  (380) 
-0.178824

>  <r_i_glide_ligand_efficiency_sa>  (380) 
-0.485404

>  <r_i_glide_ligand_efficiency_ln>  (380) 
-0.895076

>  <r_i_glide_gscore>  (380) 
-3.57649

>  <r_i_glide_lipo>  (380) 
-0.243659

>  <r_i_glide_hbond>  (380) 
-0.16

>  <r_i_glide_metal>  (380) 
-0

>  <r_i_glide_rewards>  (380) 
-1.6069

>  <r_i_glide_evdw>  (380) 
-13.7033

>  <r_i_glide_ecoul>  (380) 
-4.9147

>  <r_i_glide_erotb>  (380) 
0

>  <r_i_glide_esite>  (380) 
-0.143562

>  <r_i_glide_emodel>  (380) 
-22.9702

>  <r_i_glide_energy>  (380) 
-18.618

>  <r_i_glide_einternal>  (380) 
0

>  <r_i_glide_intrahb_reward>  (380) 
-0

>  <i_i_glide_confnum>  (380) 
1

>  <i_i_glide_posenum>  (380) 
16

>  <r_i_glide_eff_state_penalty>  (380) 
0

>  <ligand_id>  (380) 
98

>  <original_smiles>  (380) 
Cc1cnc2c(c1)NC(=O)C21C2C3CC4C3C3C4C1C32

>  <smiles>  (380) 
[H]c1nc2c(c([H])c1C([H])([H])[H])N([H])C(=O)C21C2([H])C3([H])C([H])([H])C4([H])C3([H])C3([H])C4([H])C1([H])C23[H]

$$$$
98:0:2
     RDKit          3D

 36 42  0  0  1  0  0  0  0  0999 V2000
   -1.7860    2.4355   10.0123 C   0  0  0  0  0  0  0  0  0  0  0  0
   -1.5723    2.2802    8.5213 C   0  0  0  0  0  0  0  0  0  0  0  0
   -0.6821    1.2957    8.0041 C   0  0  0  0  0  0  0  0  0  0  0  0
   -0.4467    1.1101    6.6857 N   0  0  0  0  0  0  0  0  0  0  0  0
   -1.0453    1.9575    5.8467 C   0  0  0  0  0  0  0  0  0  0  0  0
   -1.9879    2.8984    6.2624 C   0  0  0  0  0  0  0  0  0  0  0  0
   -2.2635    3.1039    7.6152 C   0  0  0  0  0  0  0  0  0  0  0  0
   -2.5883    3.4673    5.1633 N   0  0  0  0  0  0  0  0  0  0  0  0
   -2.1491    2.8898    4.0339 C   0  0  0  0  0  0  0  0  0  0  0  0
   -2.6963    3.0210    2.9438 O   0  0  0  0  0  0  0  0  0  0  0  0
   -0.9160    2.0036    4.3221 C   0  0  1  0  0  0  0  0  0  0  0  0
    0.2764    2.5073    3.4301 C   0  0  1  0  0  0  0  0  0  0  0  0
    1.7835    2.2348    3.7268 C   0  0  1  0  0  0  0  0  0  0  0  0
    2.2197    1.4962    4.9833 C   0  0  0  0  0  0  0  0  0  0  0  0
    1.8313    0.1622    4.2887 C   0  0  2  0  0  0  0  0  0  0  0  0
    2.1515    0.9214    3.0067 C   0  0  1  0  0  0  0  0  0  0  0  0
    0.9292    0.3521    2.3248 C   0  0  1  0  0  0  0  0  0  0  0  0
    0.4492   -0.2455    3.6524 C   0  0  2  0  0  0  0  0  0  0  0  0
   -0.8151    0.6667    3.5544 C   0  0  2  0  0  0  0  0  0  0  0  0
   -0.1430    1.4171    2.4198 C   0  0  1  0  0  0  0  0  0  0  0  0
   -1.1048    1.8202   10.5956 H   0  0  0  0  0  0  0  0  0  0  0  0
   -2.8014    2.1535   10.2828 H   0  0  0  0  0  0  0  0  0  0  0  0
   -1.6462    3.4758   10.3114 H   0  0  0  0  0  0  0  0  0  0  0  0
   -0.1739    0.6118    8.6549 H   0  0  0  0  0  0  0  0  0  0  0  0
   -2.9688    3.8569    7.9405 H   0  0  0  0  0  0  0  0  0  0  0  0
   -3.4208    4.0251    5.2039 H   0  0  0  0  0  0  0  0  0  0  0  0
    0.1080    3.4980    3.0084 H   0  0  0  0  0  0  0  0  0  0  0  0
    2.4555    3.0500    3.4509 H   0  0  0  0  0  0  0  0  0  0  0  0
    3.2973    1.5661    5.1410 H   0  0  0  0  0  0  0  0  0  0  0  0
    1.6949    1.8127    5.8792 H   0  0  0  0  0  0  0  0  0  0  0  0
    2.5221   -0.6655    4.4369 H   0  0  0  0  0  0  0  0  0  0  0  0
    3.1585    0.7708    2.6175 H   0  0  0  0  0  0  0  0  0  0  0  0
    0.9899   -0.3339    1.4797 H   0  0  0  0  0  0  0  0  0  0  0  0
    0.2718   -1.3175    3.5495 H   0  0  0  0  0  0  0  0  0  0  0  0
   -1.7436    0.1878    3.2403 H   0  0  0  0  0  0  0  0  0  0  0  0
   -0.7800    1.6525    1.5648 H   0  0  0  0  0  0  0  0  0  0  0  0
  1  2  1  0
  1 21  1  0
  1 22  1  0
  1 23  1  0
  2  7  2  0
  2  3  1  0
  3  4  2  0
  3 24  1  0
  4  5  1  0
  5 11  1  0
  5  6  2  0
  6  7  1  0
  6  8  1  0
  7 25  1  0
  8  9  1  0
  8 26  1  0
  9 10  2  0
 11  9  1  6
 11 19  1  0
 11 12  1  0
 12 20  1  0
 12 13  1  0
 12 27  1  6
 13 16  1  0
 13 14  1  0
 13 28  1  6
 14 15  1  0
 14 29  1  0
 14 30  1  0
 15 18  1  0
 15 16  1  0
 15 31  1  1
 16 17  1  0
 16 32  1  6
 17 20  1  0
 17 18  1  0
 17 33  1  6
 18 19  1  0
 18 34  1  6
 19 20  1  0
 19 35  1  6
 20 36  1  6
M  END
>  <i_m_ct_stereo_status>  (381) 
1

>  <s_m_source_file>  (381) 
/var/tmp/pbs.5076255.sched01/tmpsabrbf27/138opeauupd.sdf

>  <i_m_source_file_index>  (381) 
20

>  <i_lp_mmshare_version>  (381) 
48012

>  <i_f3d_flags>  (381) 
0

>  <s_epik_input>  (381) 
bjFbY0hdYyhbQ0gzXSlbY0hdYyhbTkhdQzI9TyljMVtDQF0yM1tDQEhdNFtDQEBIXTVbQ0BIXTZbQ0BASF0oW0NIMl01KVtDQEBIXTdbQ0BIXTZbQ0BIXTRbQ0BIXTM3

>  <s_epik_cmdline>  (381) 
J2VwaWtfcHl0aG9uJywgJy1waHQnLCAnMi4wJywgJy1waCcsICc3LjAnLCAnLXRuJywgJzgnLCAnLW1hJywgJzIwMCcsICctaW1hZScsICc8aW5maWxlLm1hZT4nLCAnLW9tYWUnLCAnPG91dGZpbGUubWFlPic=

>  <r_epik_Ionization_Penalty>  (381) 
0.0414214

>  <r_epik_Ionization_Penalty_Charging>  (381) 
0

>  <r_epik_Ionization_Penalty_Neutral>  (381) 
0.0414214

>  <r_epik_State_Penalty>  (381) 
0.0349238

>  <r_epik_Charging_Adjusted_Penalty>  (381) 
0.0349238

>  <i_epik_Tot_Q>  (381) 
0

>  <i_epik_Tot_abs_Q>  (381) 
0

>  <s_lp_Force_Field>  (381) 
OPLS3e

>  <r_lp_Energy>  (381) 
92.7162

>  <b_lp_Chiralities_Consistent>  (381) 
1

>  <s_lp_Variant>  (381) 
98:0-1

>  <s_i_glide_gridfile>  (381) 
pfpi4k_grid

>  <i_i_glide_lignum>  (381) 
20

>  <i_i_glide_rotatable_bonds>  (381) 
0

>  <r_i_docking_score>  (381) 
-2.83192

>  <r_i_glide_ligand_efficiency>  (381) 
-0.141596

>  <r_i_glide_ligand_efficiency_sa>  (381) 
-0.38435

>  <r_i_glide_ligand_efficiency_ln>  (381) 
-0.708735

>  <r_i_glide_gscore>  (381) 
-2.83192

>  <r_i_glide_lipo>  (381) 
-0.152084

>  <r_i_glide_hbond>  (381) 
0

>  <r_i_glide_metal>  (381) 
-0

>  <r_i_glide_rewards>  (381) 
-1.6069

>  <r_i_glide_evdw>  (381) 
-19.1103

>  <r_i_glide_ecoul>  (381) 
-0.399196

>  <r_i_glide_erotb>  (381) 
0

>  <r_i_glide_esite>  (381) 
-0.0575426

>  <r_i_glide_emodel>  (381) 
-23.3285

>  <r_i_glide_energy>  (381) 
-19.5095

>  <r_i_glide_einternal>  (381) 
0

>  <r_i_glide_intrahb_reward>  (381) 
-0

>  <i_i_glide_confnum>  (381) 
2

>  <i_i_glide_posenum>  (381) 
17

>  <r_i_glide_eff_state_penalty>  (381) 
0

>  <ligand_id>  (381) 
98

>  <original_smiles>  (381) 
Cc1cnc2c(c1)NC(=O)C21C2C3CC4C3C3C4C1C32

>  <smiles>  (381) 
[H]c1nc2c(c([H])c1C([H])([H])[H])N([H])C(=O)C21C2([H])C3([H])C([H])([H])C4([H])C3([H])C3([H])C4([H])C1([H])C23[H]

$$$$
98:1:0
     RDKit          3D

 37 43  0  0  1  0  0  0  0  0999 V2000
    3.6676   -1.0091   -4.6937 C   0  0  0  0  0  0  0  0  0  0  0  0
    3.9995   -1.5910   -3.3439 C   0  0  0  0  0  0  0  0  0  0  0  0
    4.0731   -2.9930   -3.1168 C   0  0  0  0  0  0  0  0  0  0  0  0
    4.3549   -3.4675   -1.8779 N   0  0  0  0  0  0  0  0  0  0  0  0
    4.5487   -2.6275   -0.8360 C   0  0  0  0  0  0  0  0  0  0  0  0
    4.5660   -1.2632   -1.0410 C   0  0  0  0  0  0  0  0  0  0  0  0
    4.2596   -0.7011   -2.2920 C   0  0  0  0  0  0  0  0  0  0  0  0
    4.9856   -0.6223    0.1167 N   0  0  0  0  0  0  0  0  0  0  0  0
    5.2866   -1.5335    1.0538 C   0  0  0  0  0  0  0  0  0  0  0  0
    5.8481   -1.2619    2.1169 O   0  0  0  0  0  0  0  0  0  0  0  0
    4.8752   -2.9689    0.6105 C   0  0  1  0  0  0  0  0  0  0  0  0
    3.9846   -3.6299    1.7232 C   0  0  1  0  0  0  0  0  0  0  0  0
    3.0248   -4.8300    1.4826 C   0  0  1  0  0  0  0  0  0  0  0  0
    2.8115   -5.4161    0.0922 C   0  0  0  0  0  0  0  0  0  0  0  0
    4.1722   -6.1612    0.2427 C   0  0  2  0  0  0  0  0  0  0  0  0
    3.8341   -6.1164    1.7365 C   0  0  1  0  0  0  0  0  0  0  0  0
    5.2647   -5.7570    2.0758 C   0  0  1  0  0  0  0  0  0  0  0  0
    5.5815   -5.5741    0.5855 C   0  0  2  0  0  0  0  0  0  0  0  0
    5.9022   -4.0845    0.8762 C   0  0  2  0  0  0  0  0  0  0  0  0
    5.2918   -4.2514    2.2592 C   0  0  1  0  0  0  0  0  0  0  0  0
    3.4196   -1.8193   -5.3513 H   0  0  0  0  0  0  0  0  0  0  0  0
    4.5187   -0.4694   -5.1038 H   0  0  0  0  0  0  0  0  0  0  0  0
    2.8065   -0.3413   -4.6492 H   0  0  0  0  0  0  0  0  0  0  0  0
    3.8992   -3.7402   -3.8810 H   0  0  0  0  0  0  0  0  0  0  0  0
    4.2231    0.3613   -2.4762 H   0  0  0  0  0  0  0  0  0  0  0  0
    5.1583    0.3604    0.1924 H   0  0  0  0  0  0  0  0  0  0  0  0
    3.5769   -2.9042    2.4294 H   0  0  0  0  0  0  0  0  0  0  0  0
    2.1098   -4.7998    2.0785 H   0  0  0  0  0  0  0  0  0  0  0  0
    1.9696   -6.1094    0.0680 H   0  0  0  0  0  0  0  0  0  0  0  0
    2.6872   -4.6690   -0.6796 H   0  0  0  0  0  0  0  0  0  0  0  0
    4.2020   -7.1841   -0.1252 H   0  0  0  0  0  0  0  0  0  0  0  0
    3.3553   -7.0022    2.1447 H   0  0  0  0  0  0  0  0  0  0  0  0
    5.9252   -6.4278    2.6332 H   0  0  0  0  0  0  0  0  0  0  0  0
    6.4308   -6.1900    0.2845 H   0  0  0  0  0  0  0  0  0  0  0  0
    6.9552   -3.8140    0.9266 H   0  0  0  0  0  0  0  0  0  0  0  0
    5.8293   -3.8004    3.0844 H   0  0  0  0  0  0  0  0  0  0  0  0
    4.3828   -4.4827   -1.7218 H   0  0  0  0  0  0  0  0  0  0  0  0
  1  2  1  0
  1 21  1  0
  1 22  1  0
  1 23  1  0
  2  7  2  0
  2  3  1  0
  3  4  2  0
  3 24  1  0
  4  5  1  0
  4 37  1  0
  5 11  1  0
  5  6  2  0
  6  7  1  0
  6  8  1  0
  7 25  1  0
  8  9  1  0
  8 26  1  0
  9 10  2  0
 11  9  1  1
 11 19  1  0
 11 12  1  0
 12 20  1  0
 12 13  1  0
 12 27  1  1
 13 16  1  0
 13 14  1  0
 13 28  1  1
 14 15  1  0
 14 29  1  0
 14 30  1  0
 15 18  1  0
 15 16  1  0
 15 31  1  6
 16 17  1  0
 16 32  1  1
 17 20  1  0
 17 18  1  0
 17 33  1  1
 18 19  1  0
 18 34  1  6
 19 20  1  0
 19 35  1  1
 20 36  1  1
M  CHG  1   4   1
M  END
>  <i_m_ct_stereo_status>  (382) 
1

>  <s_m_source_file>  (382) 
/var/tmp/pbs.5076255.sched01/tmpsabrbf27/138opeauupd.sdf

>  <i_m_source_file_index>  (382) 
21

>  <i_lp_mmshare_version>  (382) 
48012

>  <i_f3d_flags>  (382) 
0

>  <s_epik_input>  (382) 
bjFbY0hdYyhbQ0gzXSlbY0hdYyhbTkhdQzI9TyljMVtDQF0yM1tDQEhdNFtDQEBIXTVbQ0BIXTZbQ0BASF0oW0NIMl01KVtDQEBIXTdbQ0BIXTZbQ0BIXTRbQ0BIXTM3

>  <s_epik_cmdline>  (382) 
J2VwaWtfcHl0aG9uJywgJy1waHQnLCAnMi4wJywgJy1waCcsICc3LjAnLCAnLXRuJywgJzgnLCAnLW1hJywgJzIwMCcsICctaW1hZScsICc8aW5maWxlLm1hZT4nLCAnLW9tYWUnLCAnPG91dGZpbGUubWFlPic=

>  <r_epik_Ionization_Penalty>  (382) 
1.59695

>  <r_epik_Ionization_Penalty_Charging>  (382) 
1.59695

>  <r_epik_Ionization_Penalty_Neutral>  (382) 
2.93506e-06

>  <r_epik_State_Penalty>  (382) 
1.6948

>  <r_epik_Charging_Adjusted_Penalty>  (382) 
3.29174

>  <i_epik_Tot_Q>  (382) 
1

>  <i_epik_Tot_abs_Q>  (382) 
1

>  <s_lp_Force_Field>  (382) 
OPLS3e

>  <r_lp_Energy>  (382) 
100.062

>  <b_lp_Chiralities_Consistent>  (382) 
1

>  <s_lp_Variant>  (382) 
98:0-2

>  <s_i_glide_gridfile>  (382) 
pfpi4k_grid

>  <i_i_glide_lignum>  (382) 
21

>  <i_i_glide_rotatable_bonds>  (382) 
0

>  <r_i_docking_score>  (382) 
-4.00185

>  <r_i_glide_ligand_efficiency>  (382) 
-0.200092

>  <r_i_glide_ligand_efficiency_sa>  (382) 
-0.543134

>  <r_i_glide_ligand_efficiency_ln>  (382) 
-1.00153

>  <r_i_glide_gscore>  (382) 
-4.00185

>  <r_i_glide_lipo>  (382) 
-0.61358

>  <r_i_glide_hbond>  (382) 
-0.195477

>  <r_i_glide_metal>  (382) 
-0

>  <r_i_glide_rewards>  (382) 
-1.72171

>  <r_i_glide_evdw>  (382) 
-20.3244

>  <r_i_glide_ecoul>  (382) 
-2.92232

>  <r_i_glide_erotb>  (382) 
0

>  <r_i_glide_esite>  (382) 
-0.016514

>  <r_i_glide_emodel>  (382) 
-29.0827

>  <r_i_glide_energy>  (382) 
-23.2468

>  <r_i_glide_einternal>  (382) 
0

>  <r_i_glide_intrahb_reward>  (382) 
-0

>  <i_i_glide_confnum>  (382) 
2

>  <i_i_glide_posenum>  (382) 
16

>  <r_i_glide_eff_state_penalty>  (382) 
0

>  <ligand_id>  (382) 
98

>  <original_smiles>  (382) 
Cc1cnc2c(c1)NC(=O)C21C2C3CC4C3C3C4C1C32

>  <smiles>  (382) 
[H]c1c2c([n+]([H])c([H])c1C([H])([H])[H])C1(C(=O)N2[H])C2([H])C3([H])C([H])([H])C4([H])C3([H])C3([H])C4([H])C1([H])C23[H]

$$$$
98:1:1
     RDKit          3D

 37 43  0  0  1  0  0  0  0  0999 V2000
    2.6249   -0.8480   -4.3322 C   0  0  0  0  0  0  0  0  0  0  0  0
    3.2835   -1.5456   -3.1514 C   0  0  0  0  0  0  0  0  0  0  0  0
    2.8871   -2.8580   -2.7540 C   0  0  0  0  0  0  0  0  0  0  0  0
    3.4803   -3.4482   -1.6874 N   0  0  0  0  0  0  0  0  0  0  0  0
    4.3981   -2.8224   -0.9583 C   0  0  0  0  0  0  0  0  0  0  0  0
    4.8461   -1.5654   -1.3456 C   0  0  0  0  0  0  0  0  0  0  0  0
    4.2934   -0.8779   -2.4358 C   0  0  0  0  0  0  0  0  0  0  0  0
    5.8966   -1.1981   -0.5429 N   0  0  0  0  0  0  0  0  0  0  0  0
    6.2859   -2.2193    0.2278 C   0  0  0  0  0  0  0  0  0  0  0  0
    7.3916   -2.3191    0.7335 O   0  0  0  0  0  0  0  0  0  0  0  0
    5.1841   -3.3314    0.2455 C   0  0  1  0  0  0  0  0  0  0  0  0
    4.7227   -3.5861    1.7257 C   0  0  1  0  0  0  0  0  0  0  0  0
    3.3795   -4.2638    2.1106 C   0  0  1  0  0  0  0  0  0  0  0  0
    2.3673   -4.6611    1.0557 C   0  0  0  0  0  0  0  0  0  0  0  0
    3.2269   -5.9106    0.7477 C   0  0  2  0  0  0  0  0  0  0  0  0
    3.6481   -5.7741    2.2034 C   0  0  1  0  0  0  0  0  0  0  0  0
    5.0864   -6.0700    1.8453 C   0  0  1  0  0  0  0  0  0  0  0  0
    4.7420   -5.9889    0.3603 C   0  0  2  0  0  0  0  0  0  0  0  0
    5.7095   -4.7792    0.2412 C   0  0  2  0  0  0  0  0  0  0  0  0
    5.7724   -4.7197    1.7536 C   0  0  1  0  0  0  0  0  0  0  0  0
    1.8144   -1.4426   -4.7035 H   0  0  0  0  0  0  0  0  0  0  0  0
    3.3511   -0.7055   -5.1341 H   0  0  0  0  0  0  0  0  0  0  0  0
    2.2399    0.1263   -4.0249 H   0  0  0  0  0  0  0  0  0  0  0  0
    2.1311   -3.4382   -3.2584 H   0  0  0  0  0  0  0  0  0  0  0  0
    4.6142    0.1230   -2.7067 H   0  0  0  0  0  0  0  0  0  0  0  0
    6.4335   -0.3584   -0.6236 H   0  0  0  0  0  0  0  0  0  0  0  0
    5.0056   -2.7851    2.4118 H   0  0  0  0  0  0  0  0  0  0  0  0
    2.9037   -3.8847    3.0188 H   0  0  0  0  0  0  0  0  0  0  0  0
    1.4389   -4.9790    1.5164 H   0  0  0  0  0  0  0  0  0  0  0  0
    2.1974   -3.9077    0.2918 H   0  0  0  0  0  0  0  0  0  0  0  0
    2.6734   -6.8385    0.6545 H   0  0  0  0  0  0  0  0  0  0  0  0
    3.0863   -6.4059    2.8825 H   0  0  0  0  0  0  0  0  0  0  0  0
    5.6079   -6.9767    2.1589 H   0  0  0  0  0  0  0  0  0  0  0  0
    5.0299   -6.8977   -0.1572 H   0  0  0  0  0  0  0  0  0  0  0  0
    6.6991   -4.9671   -0.1711 H   0  0  0  0  0  0  0  0  0  0  0  0
    6.7603   -4.5692    2.1792 H   0  0  0  0  0  0  0  0  0  0  0  0
    3.2253   -4.4215   -1.4452 H   0  0  0  0  0  0  0  0  0  0  0  0
  1  2  1  0
  1 21  1  0
  1 22  1  0
  1 23  1  0
  2  7  2  0
  2  3  1  0
  3  4  2  0
  3 24  1  0
  4  5  1  0
  4 37  1  0
  5 11  1  0
  5  6  2  0
  6  7  1  0
  6  8  1  0
  7 25  1  0
  8  9  1  0
  8 26  1  0
  9 10  2  0
 11  9  1  1
 11 19  1  0
 11 12  1  0
 12 20  1  0
 12 13  1  0
 12 27  1  1
 13 16  1  0
 13 14  1  0
 13 28  1  1
 14 15  1  0
 14 29  1  0
 14 30  1  0
 15 18  1  0
 15 16  1  0
 15 31  1  1
 16 17  1  0
 16 32  1  1
 17 20  1  0
 17 18  1  0
 17 33  1  6
 18 19  1  0
 18 34  1  6
 19 20  1  0
 19 35  1  6
 20 36  1  6
M  CHG  1   4   1
M  END
>  <i_m_ct_stereo_status>  (383) 
1

>  <s_m_source_file>  (383) 
/var/tmp/pbs.5076255.sched01/tmpsabrbf27/138opeauupd.sdf

>  <i_m_source_file_index>  (383) 
21

>  <i_lp_mmshare_version>  (383) 
48012

>  <i_f3d_flags>  (383) 
0

>  <s_epik_input>  (383) 
bjFbY0hdYyhbQ0gzXSlbY0hdYyhbTkhdQzI9TyljMVtDQF0yM1tDQEhdNFtDQEBIXTVbQ0BIXTZbQ0BASF0oW0NIMl01KVtDQEBIXTdbQ0BIXTZbQ0BIXTRbQ0BIXTM3

>  <s_epik_cmdline>  (383) 
J2VwaWtfcHl0aG9uJywgJy1waHQnLCAnMi4wJywgJy1waCcsICc3LjAnLCAnLXRuJywgJzgnLCAnLW1hJywgJzIwMCcsICctaW1hZScsICc8aW5maWxlLm1hZT4nLCAnLW9tYWUnLCAnPG91dGZpbGUubWFlPic=

>  <r_epik_Ionization_Penalty>  (383) 
1.59695

>  <r_epik_Ionization_Penalty_Charging>  (383) 
1.59695

>  <r_epik_Ionization_Penalty_Neutral>  (383) 
2.93506e-06

>  <r_epik_State_Penalty>  (383) 
1.6948

>  <r_epik_Charging_Adjusted_Penalty>  (383) 
3.29174

>  <i_epik_Tot_Q>  (383) 
1

>  <i_epik_Tot_abs_Q>  (383) 
1

>  <s_lp_Force_Field>  (383) 
OPLS3e

>  <r_lp_Energy>  (383) 
100.062

>  <b_lp_Chiralities_Consistent>  (383) 
1

>  <s_lp_Variant>  (383) 
98:0-2

>  <s_i_glide_gridfile>  (383) 
pfpi4k_grid

>  <i_i_glide_lignum>  (383) 
21

>  <i_i_glide_rotatable_bonds>  (383) 
0

>  <r_i_docking_score>  (383) 
-3.69145

>  <r_i_glide_ligand_efficiency>  (383) 
-0.184573

>  <r_i_glide_ligand_efficiency_sa>  (383) 
-0.501007

>  <r_i_glide_ligand_efficiency_ln>  (383) 
-0.923849

>  <r_i_glide_gscore>  (383) 
-3.69145

>  <r_i_glide_lipo>  (383) 
-0.46953

>  <r_i_glide_hbond>  (383) 
0

>  <r_i_glide_metal>  (383) 
-0

>  <r_i_glide_rewards>  (383) 
-1.65632

>  <r_i_glide_evdw>  (383) 
-19.5681

>  <r_i_glide_ecoul>  (383) 
-3.5231

>  <r_i_glide_erotb>  (383) 
0

>  <r_i_glide_esite>  (383) 
-0.0587365

>  <r_i_glide_emodel>  (383) 
-28.2743

>  <r_i_glide_energy>  (383) 
-23.0912

>  <r_i_glide_einternal>  (383) 
0

>  <r_i_glide_intrahb_reward>  (383) 
-0

>  <i_i_glide_confnum>  (383) 
2

>  <i_i_glide_posenum>  (383) 
7

>  <r_i_glide_eff_state_penalty>  (383) 
0

>  <ligand_id>  (383) 
98

>  <original_smiles>  (383) 
Cc1cnc2c(c1)NC(=O)C21C2C3CC4C3C3C4C1C32

>  <smiles>  (383) 
[H]c1c2c([n+]([H])c([H])c1C([H])([H])[H])C1(C(=O)N2[H])C2([H])C3([H])C([H])([H])C4([H])C3([H])C3([H])C4([H])C1([H])C23[H]

$$$$
98:1:2
     RDKit          3D

 37 43  0  0  1  0  0  0  0  0999 V2000
    4.0518   -1.2992    1.3554 C   0  0  0  0  0  0  0  0  0  0  0  0
    2.9645   -0.7811    2.2731 C   0  0  0  0  0  0  0  0  0  0  0  0
    2.1021    0.2677    1.8567 C   0  0  0  0  0  0  0  0  0  0  0  0
    1.1418    0.7396    2.6898 N   0  0  0  0  0  0  0  0  0  0  0  0
    0.9925    0.2414    3.9375 C   0  0  0  0  0  0  0  0  0  0  0  0
    1.7577   -0.8364    4.3499 C   0  0  0  0  0  0  0  0  0  0  0  0
    2.7818   -1.3695    3.5472 C   0  0  0  0  0  0  0  0  0  0  0  0
    1.2724   -1.2935    5.5724 N   0  0  0  0  0  0  0  0  0  0  0  0
    0.1929   -0.5926    5.9363 C   0  0  0  0  0  0  0  0  0  0  0  0
   -0.5584   -0.8917    6.8649 O   0  0  0  0  0  0  0  0  0  0  0  0
   -0.0255    0.6332    5.0006 C   0  0  1  0  0  0  0  0  0  0  0  0
   -0.1286    1.9405    5.8673 C   0  0  1  0  0  0  0  0  0  0  0  0
    0.0930    3.3803    5.3153 C   0  0  1  0  0  0  0  0  0  0  0  0
    0.5227    3.6215    3.8726 C   0  0  0  0  0  0  0  0  0  0  0  0
   -0.9440    3.3830    3.4364 C   0  0  2  0  0  0  0  0  0  0  0  0
   -1.2775    3.8984    4.8386 C   0  0  1  0  0  0  0  0  0  0  0  0
   -2.3224    2.8225    5.0206 C   0  0  1  0  0  0  0  0  0  0  0  0
   -1.8520    2.1406    3.7183 C   0  0  2  0  0  0  0  0  0  0  0  0
   -1.4728    0.8915    4.5664 C   0  0  2  0  0  0  0  0  0  0  0  0
   -1.6574    1.7271    5.8275 C   0  0  1  0  0  0  0  0  0  0  0  0
    4.1171   -0.7138    0.4422 H   0  0  0  0  0  0  0  0  0  0  0  0
    3.8477   -2.3299    1.0769 H   0  0  0  0  0  0  0  0  0  0  0  0
    5.0223   -1.2648    1.8477 H   0  0  0  0  0  0  0  0  0  0  0  0
    2.1516    0.7292    0.8820 H   0  0  0  0  0  0  0  0  0  0  0  0
    3.3861   -2.1946    3.8887 H   0  0  0  0  0  0  0  0  0  0  0  0
    1.6039   -2.1256    6.0337 H   0  0  0  0  0  0  0  0  0  0  0  0
    0.2710    1.8291    6.8772 H   0  0  0  0  0  0  0  0  0  0  0  0
    0.5663    4.0596    6.0271 H   0  0  0  0  0  0  0  0  0  0  0  0
    0.8316    4.6529    3.6972 H   0  0  0  0  0  0  0  0  0  0  0  0
    1.3077    2.9609    3.5281 H   0  0  0  0  0  0  0  0  0  0  0  0
   -1.3225    4.0355    2.6466 H   0  0  0  0  0  0  0  0  0  0  0  0
   -1.5204    4.9560    4.9194 H   0  0  0  0  0  0  0  0  0  0  0  0
   -3.3886    3.0439    5.1088 H   0  0  0  0  0  0  0  0  0  0  0  0
   -2.6399    2.0019    2.9859 H   0  0  0  0  0  0  0  0  0  0  0  0
   -2.1551    0.0402    4.5066 H   0  0  0  0  0  0  0  0  0  0  0  0
   -2.1760    1.2638    6.6672 H   0  0  0  0  0  0  0  0  0  0  0  0
    0.5305    1.4969    2.3697 H   0  0  0  0  0  0  0  0  0  0  0  0
  1  2  1  0
  1 21  1  0
  1 22  1  0
  1 23  1  0
  2  7  2  0
  2  3  1  0
  3  4  2  0
  3 24  1  0
  4  5  1  0
  4 37  1  0
  5 11  1  0
  5  6  2  0
  6  7  1  0
  6  8  1  0
  7 25  1  0
  8  9  1  0
  8 26  1  0
  9 10  2  0
 11  9  1  1
 11 19  1  0
 11 12  1  0
 12 20  1  0
 12 13  1  0
 12 27  1  1
 13 16  1  0
 13 14  1  0
 13 28  1  1
 14 15  1  0
 14 29  1  0
 14 30  1  0
 15 18  1  0
 15 16  1  0
 15 31  1  6
 16 17  1  0
 16 32  1  6
 17 20  1  0
 17 18  1  0
 17 33  1  6
 18 19  1  0
 18 34  1  6
 19 20  1  0
 19 35  1  1
 20 36  1  1
M  CHG  1   4   1
M  END
>  <i_m_ct_stereo_status>  (384) 
1

>  <s_m_source_file>  (384) 
/var/tmp/pbs.5076255.sched01/tmpsabrbf27/138opeauupd.sdf

>  <i_m_source_file_index>  (384) 
21

>  <i_lp_mmshare_version>  (384) 
48012

>  <i_f3d_flags>  (384) 
0

>  <s_epik_input>  (384) 
bjFbY0hdYyhbQ0gzXSlbY0hdYyhbTkhdQzI9TyljMVtDQF0yM1tDQEhdNFtDQEBIXTVbQ0BIXTZbQ0BASF0oW0NIMl01KVtDQEBIXTdbQ0BIXTZbQ0BIXTRbQ0BIXTM3

>  <s_epik_cmdline>  (384) 
J2VwaWtfcHl0aG9uJywgJy1waHQnLCAnMi4wJywgJy1waCcsICc3LjAnLCAnLXRuJywgJzgnLCAnLW1hJywgJzIwMCcsICctaW1hZScsICc8aW5maWxlLm1hZT4nLCAnLW9tYWUnLCAnPG91dGZpbGUubWFlPic=

>  <r_epik_Ionization_Penalty>  (384) 
1.59695

>  <r_epik_Ionization_Penalty_Charging>  (384) 
1.59695

>  <r_epik_Ionization_Penalty_Neutral>  (384) 
2.93506e-06

>  <r_epik_State_Penalty>  (384) 
1.6948

>  <r_epik_Charging_Adjusted_Penalty>  (384) 
3.29174

>  <i_epik_Tot_Q>  (384) 
1

>  <i_epik_Tot_abs_Q>  (384) 
1

>  <s_lp_Force_Field>  (384) 
OPLS3e

>  <r_lp_Energy>  (384) 
100.062

>  <b_lp_Chiralities_Consistent>  (384) 
1

>  <s_lp_Variant>  (384) 
98:0-2

>  <s_i_glide_gridfile>  (384) 
pfpi4k_grid

>  <i_i_glide_lignum>  (384) 
21

>  <i_i_glide_rotatable_bonds>  (384) 
0

>  <r_i_docking_score>  (384) 
-2.97233

>  <r_i_glide_ligand_efficiency>  (384) 
-0.148616

>  <r_i_glide_ligand_efficiency_sa>  (384) 
-0.403407

>  <r_i_glide_ligand_efficiency_ln>  (384) 
-0.743876

>  <r_i_glide_gscore>  (384) 
-2.97233

>  <r_i_glide_lipo>  (384) 
0

>  <r_i_glide_hbond>  (384) 
-0.0208349

>  <r_i_glide_metal>  (384) 
-0

>  <r_i_glide_rewards>  (384) 
-1.60002

>  <r_i_glide_evdw>  (384) 
-13.5883

>  <r_i_glide_ecoul>  (384) 
-4.16942

>  <r_i_glide_erotb>  (384) 
0

>  <r_i_glide_esite>  (384) 
-0.0466402

>  <r_i_glide_emodel>  (384) 
-22.0915

>  <r_i_glide_energy>  (384) 
-17.7577

>  <r_i_glide_einternal>  (384) 
0

>  <r_i_glide_intrahb_reward>  (384) 
-0

>  <i_i_glide_confnum>  (384) 
2

>  <i_i_glide_posenum>  (384) 
38

>  <r_i_glide_eff_state_penalty>  (384) 
0

>  <ligand_id>  (384) 
98

>  <original_smiles>  (384) 
Cc1cnc2c(c1)NC(=O)C21C2C3CC4C3C3C4C1C32

>  <smiles>  (384) 
[H]c1c2c([n+]([H])c([H])c1C([H])([H])[H])C1(C(=O)N2[H])C2([H])C3([H])C([H])([H])C4([H])C3([H])C3([H])C4([H])C1([H])C23[H]

$$$$
99:0:0
     RDKit          3D

 33 35  0  0  1  0  0  0  0  0999 V2000
    6.3788   -2.4138    0.3942 C   0  0  0  0  0  0  0  0  0  0  0  0
    5.5899   -2.8281   -0.7677 N   0  0  0  0  0  0  0  0  0  0  0  0
    6.0954   -3.0529   -2.0287 C   0  0  0  0  0  0  0  0  0  0  0  0
    5.0321   -3.4374   -2.8039 C   0  0  0  0  0  0  0  0  0  0  0  0
    3.9362   -3.4199   -1.9892 N   0  0  0  0  0  0  0  0  0  0  0  0
    4.2678   -3.0554   -0.7543 C   0  0  0  0  0  0  0  0  0  0  0  0
    3.3062   -2.9642    0.3963 C   0  0  0  0  0  0  0  0  0  0  0  0
    3.2129   -4.1924    1.1786 N   0  0  0  0  0  0  0  0  0  0  0  0
    2.5805   -5.2803    0.4407 C   0  0  0  0  0  0  0  0  0  0  0  0
    2.2566   -6.3181    1.5229 C   0  0  2  0  0  0  0  0  0  0  0  0
    0.9171   -7.0320    1.3560 C   0  0  0  0  0  0  0  0  0  0  0  0
    0.0165   -6.2577    2.1129 O   0  0  0  0  0  0  0  0  0  0  0  0
    0.6943   -5.8071    3.2763 C   0  0  0  0  0  0  0  0  0  0  0  0
    2.1079   -5.5021    2.7948 C   0  0  2  0  0  0  0  0  0  0  0  0
    2.3542   -4.0479    2.3517 C   0  0  0  0  0  0  0  0  0  0  0  0
    7.4326   -2.6184    0.1940 H   0  0  0  0  0  0  0  0  0  0  0  0
    6.0736   -2.9801    1.2789 H   0  0  0  0  0  0  0  0  0  0  0  0
    6.2459   -1.3408    0.5596 H   0  0  0  0  0  0  0  0  0  0  0  0
    7.1400   -2.9590   -2.2812 H   0  0  0  0  0  0  0  0  0  0  0  0
    4.9926   -3.7305   -3.8378 H   0  0  0  0  0  0  0  0  0  0  0  0
    3.6414   -2.1394    1.0191 H   0  0  0  0  0  0  0  0  0  0  0  0
    2.3338   -2.6987   -0.0189 H   0  0  0  0  0  0  0  0  0  0  0  0
    1.6670   -4.9263   -0.0445 H   0  0  0  0  0  0  0  0  0  0  0  0
    3.2418   -5.6939   -0.3207 H   0  0  0  0  0  0  0  0  0  0  0  0
    3.0728   -7.0369    1.6091 H   0  0  0  0  0  0  0  0  0  0  0  0
    0.5866   -7.0810    0.3231 H   0  0  0  0  0  0  0  0  0  0  0  0
    0.9563   -8.0418    1.7623 H   0  0  0  0  0  0  0  0  0  0  0  0
    0.2085   -4.9374    3.7006 H   0  0  0  0  0  0  0  0  0  0  0  0
    0.6974   -6.5987    4.0210 H   0  0  0  0  0  0  0  0  0  0  0  0
    2.8477   -5.8027    3.5392 H   0  0  0  0  0  0  0  0  0  0  0  0
    2.8295   -3.4586    3.1384 H   0  0  0  0  0  0  0  0  0  0  0  0
    1.4198   -3.5596    2.0827 H   0  0  0  0  0  0  0  0  0  0  0  0
    3.0078   -3.7068   -2.2743 H   0  0  0  0  0  0  0  0  0  0  0  0
  1  2  1  0
  1 16  1  0
  1 17  1  0
  1 18  1  0
  2  6  1  0
  2  3  1  0
  3  4  2  0
  3 19  1  0
  4  5  1  0
  4 20  1  0
  5  6  2  0
  5 33  1  0
  6  7  1  0
  7  8  1  0
  7 21  1  0
  7 22  1  0
  8 15  1  0
  8  9  1  0
  9 10  1  0
  9 23  1  0
  9 24  1  0
 10 14  1  0
 10 11  1  0
 10 25  1  1
 11 12  1  0
 11 26  1  0
 11 27  1  0
 12 13  1  0
 13 14  1  0
 13 28  1  0
 13 29  1  0
 14 15  1  0
 14 30  1  1
 15 31  1  0
 15 32  1  0
M  CHG  1   5   1
M  END
>  <i_m_ct_stereo_status>  (385) 
1

>  <s_m_source_file>  (385) 
/var/tmp/pbs.5076255.sched01/tmpsabrbf27/138opeauupd.sdf

>  <i_m_source_file_index>  (385) 
22

>  <i_lp_mmshare_version>  (385) 
48012

>  <i_f3d_flags>  (385) 
0

>  <s_epik_input>  (385) 
W0NIM11uMVtjSF1bY0hdbmMxW0NIMl1OKFtDSDJdMilbQ0gyXVtDQEhdKFtDQEhdMjMpW0NIMl1PW0NIMl0z

>  <s_epik_cmdline>  (385) 
J2VwaWtfcHl0aG9uJywgJy1waHQnLCAnMi4wJywgJy1waCcsICc3LjAnLCAnLXRuJywgJzgnLCAnLW1hJywgJzIwMCcsICctaW1hZScsICc8aW5maWxlLm1hZT4nLCAnLW9tYWUnLCAnPG91dGZpbGUubWFlPic=

>  <r_lp_tautomer_probability>  (385) 
1

>  <r_epik_Ionization_Penalty>  (385) 
0.0677506

>  <r_epik_Ionization_Penalty_Charging>  (385) 
0

>  <r_epik_Ionization_Penalty_Neutral>  (385) 
0.0677506

>  <r_epik_State_Penalty>  (385) 
0.158542

>  <r_epik_Charging_Adjusted_Penalty>  (385) 
0.158542

>  <i_epik_Tot_Q>  (385) 
1

>  <i_epik_Tot_abs_Q>  (385) 
1

>  <s_lp_Force_Field>  (385) 
OPLS3e

>  <r_lp_Energy>  (385) 
0.028807

>  <b_lp_Chiralities_Consistent>  (385) 
1

>  <s_lp_Variant>  (385) 
99:0-1

>  <s_i_glide_gridfile>  (385) 
pfpi4k_grid

>  <i_i_glide_lignum>  (385) 
22

>  <i_i_glide_rotatable_bonds>  (385) 
2

>  <r_i_docking_score>  (385) 
-3.5914

>  <r_i_glide_ligand_efficiency>  (385) 
-0.239427

>  <r_i_glide_ligand_efficiency_sa>  (385) 
-0.590477

>  <r_i_glide_ligand_efficiency_ln>  (385) 
-0.968542

>  <r_i_glide_gscore>  (385) 
-3.5914

>  <r_i_glide_lipo>  (385) 
-0.38733

>  <r_i_glide_hbond>  (385) 
-0.246623

>  <r_i_glide_metal>  (385) 
-0

>  <r_i_glide_rewards>  (385) 
-2.00024

>  <r_i_glide_evdw>  (385) 
-16.0434

>  <r_i_glide_ecoul>  (385) 
-5.96057

>  <r_i_glide_erotb>  (385) 
0.763137

>  <r_i_glide_esite>  (385) 
-0.0240882

>  <r_i_glide_emodel>  (385) 
-27.7971

>  <r_i_glide_energy>  (385) 
-22.0039

>  <r_i_glide_einternal>  (385) 
1.16723

>  <r_i_glide_intrahb_reward>  (385) 
-0

>  <i_i_glide_confnum>  (385) 
5

>  <i_i_glide_posenum>  (385) 
23

>  <r_i_glide_eff_state_penalty>  (385) 
0

>  <ligand_id>  (385) 
99

>  <original_smiles>  (385) 
Cn1ccnc1CN1CC2COCC2C1

>  <smiles>  (385) 
[H]c1c([H])[n+]([H])c(C([H])([H])N2C([H])([H])C3([H])C([H])([H])OC([H])([H])C3([H])C2([H])[H])n1C([H])([H])[H]

$$$$
99:0:1
     RDKit          3D

 33 35  0  0  1  0  0  0  0  0999 V2000
    1.3406   -1.9067    3.1392 C   0  0  0  0  0  0  0  0  0  0  0  0
    2.2609   -0.9653    2.4991 N   0  0  0  0  0  0  0  0  0  0  0  0
    3.1067   -1.2702    1.4591 C   0  0  0  0  0  0  0  0  0  0  0  0
    3.7966   -0.1230    1.1762 C   0  0  0  0  0  0  0  0  0  0  0  0
    3.3453    0.8219    2.0508 N   0  0  0  0  0  0  0  0  0  0  0  0
    2.4113    0.3228    2.8491 C   0  0  0  0  0  0  0  0  0  0  0  0
    1.7107    1.0809    3.9375 C   0  0  0  0  0  0  0  0  0  0  0  0
    0.2647    1.1299    3.7714 N   0  0  0  0  0  0  0  0  0  0  0  0
   -0.1431    2.1023    2.7640 C   0  0  0  0  0  0  0  0  0  0  0  0
   -1.6530    2.2291    2.9986 C   0  0  2  0  0  0  0  0  0  0  0  0
   -2.2160    3.6421    2.8831 C   0  0  0  0  0  0  0  0  0  0  0  0
   -2.1715    4.1479    4.2005 O   0  0  0  0  0  0  0  0  0  0  0  0
   -2.4996    3.0971    5.0812 C   0  0  0  0  0  0  0  0  0  0  0  0
   -1.8419    1.8691    4.4587 C   0  0  2  0  0  0  0  0  0  0  0  0
   -0.4263    1.5763    4.9745 C   0  0  0  0  0  0  0  0  0  0  0  0
    1.1924   -2.7556    2.4752 H   0  0  0  0  0  0  0  0  0  0  0  0
    0.3713   -1.4361    3.3111 H   0  0  0  0  0  0  0  0  0  0  0  0
    1.7720   -2.2621    4.0780 H   0  0  0  0  0  0  0  0  0  0  0  0
    3.1477   -2.2446    0.9987 H   0  0  0  0  0  0  0  0  0  0  0  0
    4.5457    0.0714    0.4277 H   0  0  0  0  0  0  0  0  0  0  0  0
    1.9832    0.5965    4.8710 H   0  0  0  0  0  0  0  0  0  0  0  0
    2.1242    2.0894    3.9510 H   0  0  0  0  0  0  0  0  0  0  0  0
    0.3481    3.0636    2.9411 H   0  0  0  0  0  0  0  0  0  0  0  0
    0.0933    1.7777    1.7480 H   0  0  0  0  0  0  0  0  0  0  0  0
   -2.1829    1.5425    2.3382 H   0  0  0  0  0  0  0  0  0  0  0  0
   -1.6497    4.2832    2.2219 H   0  0  0  0  0  0  0  0  0  0  0  0
   -3.2463    3.6184    2.5346 H   0  0  0  0  0  0  0  0  0  0  0  0
   -2.1392    3.3136    6.0822 H   0  0  0  0  0  0  0  0  0  0  0  0
   -3.5808    2.9845    5.1153 H   0  0  0  0  0  0  0  0  0  0  0  0
   -2.4741    0.9853    4.5560 H   0  0  0  0  0  0  0  0  0  0  0  0
   -0.4270    0.8063    5.7465 H   0  0  0  0  0  0  0  0  0  0  0  0
    0.0451    2.4777    5.3763 H   0  0  0  0  0  0  0  0  0  0  0  0
    3.6937    1.7807    2.0892 H   0  0  0  0  0  0  0  0  0  0  0  0
  1  2  1  0
  1 16  1  0
  1 17  1  0
  1 18  1  0
  2  6  1  0
  2  3  1  0
  3  4  2  0
  3 19  1  0
  4  5  1  0
  4 20  1  0
  5  6  2  0
  5 33  1  0
  6  7  1  0
  7  8  1  0
  7 21  1  0
  7 22  1  0
  8 15  1  0
  8  9  1  0
  9 10  1  0
  9 23  1  0
  9 24  1  0
 10 14  1  0
 10 11  1  0
 10 25  1  6
 11 12  1  0
 11 26  1  0
 11 27  1  0
 12 13  1  0
 13 14  1  0
 13 28  1  0
 13 29  1  0
 14 15  1  0
 14 30  1  6
 15 31  1  0
 15 32  1  0
M  CHG  1   5   1
M  END
>  <i_m_ct_stereo_status>  (386) 
1

>  <s_m_source_file>  (386) 
/var/tmp/pbs.5076255.sched01/tmpsabrbf27/138opeauupd.sdf

>  <i_m_source_file_index>  (386) 
22

>  <i_lp_mmshare_version>  (386) 
48012

>  <i_f3d_flags>  (386) 
0

>  <s_epik_input>  (386) 
W0NIM11uMVtjSF1bY0hdbmMxW0NIMl1OKFtDSDJdMilbQ0gyXVtDQEhdKFtDQEhdMjMpW0NIMl1PW0NIMl0z

>  <s_epik_cmdline>  (386) 
J2VwaWtfcHl0aG9uJywgJy1waHQnLCAnMi4wJywgJy1waCcsICc3LjAnLCAnLXRuJywgJzgnLCAnLW1hJywgJzIwMCcsICctaW1hZScsICc8aW5maWxlLm1hZT4nLCAnLW9tYWUnLCAnPG91dGZpbGUubWFlPic=

>  <r_lp_tautomer_probability>  (386) 
1

>  <r_epik_Ionization_Penalty>  (386) 
0.0677506

>  <r_epik_Ionization_Penalty_Charging>  (386) 
0

>  <r_epik_Ionization_Penalty_Neutral>  (386) 
0.0677506

>  <r_epik_State_Penalty>  (386) 
0.158542

>  <r_epik_Charging_Adjusted_Penalty>  (386) 
0.158542

>  <i_epik_Tot_Q>  (386) 
1

>  <i_epik_Tot_abs_Q>  (386) 
1

>  <s_lp_Force_Field>  (386) 
OPLS3e

>  <r_lp_Energy>  (386) 
0.028807

>  <b_lp_Chiralities_Consistent>  (386) 
1

>  <s_lp_Variant>  (386) 
99:0-1

>  <s_i_glide_gridfile>  (386) 
pfpi4k_grid

>  <i_i_glide_lignum>  (386) 
22

>  <i_i_glide_rotatable_bonds>  (386) 
2

>  <r_i_docking_score>  (386) 
-3.13901

>  <r_i_glide_ligand_efficiency>  (386) 
-0.209268

>  <r_i_glide_ligand_efficiency_sa>  (386) 
-0.516098

>  <r_i_glide_ligand_efficiency_ln>  (386) 
-0.84654

>  <r_i_glide_gscore>  (386) 
-3.13901

>  <r_i_glide_lipo>  (386) 
-0.028261

>  <r_i_glide_hbond>  (386) 
-0.0667883

>  <r_i_glide_metal>  (386) 
-0

>  <r_i_glide_rewards>  (386) 
-1.989

>  <r_i_glide_evdw>  (386) 
-14.3262

>  <r_i_glide_ecoul>  (386) 
-7.18021

>  <r_i_glide_erotb>  (386) 
0.763137

>  <r_i_glide_esite>  (386) 
-0.0247617

>  <r_i_glide_emodel>  (386) 
-26.33

>  <r_i_glide_energy>  (386) 
-21.5064

>  <r_i_glide_einternal>  (386) 
1.26858

>  <r_i_glide_intrahb_reward>  (386) 
-0

>  <i_i_glide_confnum>  (386) 
4

>  <i_i_glide_posenum>  (386) 
1

>  <r_i_glide_eff_state_penalty>  (386) 
0

>  <ligand_id>  (386) 
99

>  <original_smiles>  (386) 
Cn1ccnc1CN1CC2COCC2C1

>  <smiles>  (386) 
[H]c1c([H])[n+]([H])c(C([H])([H])N2C([H])([H])C3([H])C([H])([H])OC([H])([H])C3([H])C2([H])[H])n1C([H])([H])[H]

$$$$
99:0:2
     RDKit          3D

 33 35  0  0  1  0  0  0  0  0999 V2000
    3.5997    1.7538    4.0341 C   0  0  0  0  0  0  0  0  0  0  0  0
    3.2945    0.7622    2.9633 N   0  0  0  0  0  0  0  0  0  0  0  0
    4.1325   -0.3108    2.7032 C   0  0  0  0  0  0  0  0  0  0  0  0
    3.6292   -0.9873    1.6093 C   0  0  0  0  0  0  0  0  0  0  0  0
    2.4827   -0.3325    1.2741 N   0  0  0  0  0  0  0  0  0  0  0  0
    2.2717    0.7038    2.1029 C   0  0  0  0  0  0  0  0  0  0  0  0
    1.0527    1.6163    1.9646 C   0  0  0  0  0  0  0  0  0  0  0  0
   -0.0105    1.3683    2.9431 N   0  0  0  0  0  0  0  0  0  0  0  0
   -1.1943    2.1768    2.7073 C   0  0  0  0  0  0  0  0  0  0  0  0
   -1.9267    2.0699    4.0534 C   0  0  2  0  0  0  0  0  0  0  0  0
   -2.6072    3.3550    4.5169 C   0  0  0  0  0  0  0  0  0  0  0  0
   -1.6390    4.0474    5.2982 O   0  0  0  0  0  0  0  0  0  0  0  0
   -0.9433    3.0563    6.0500 C   0  0  0  0  0  0  0  0  0  0  0  0
   -0.8656    1.8648    5.0834 C   0  0  2  0  0  0  0  0  0  0  0  0
    0.3753    1.8032    4.2645 C   0  0  0  0  0  0  0  0  0  0  0  0
    4.2757    1.2657    4.7325 H   0  0  0  0  0  0  0  0  0  0  0  0
    2.7565    2.0407    4.6328 H   0  0  0  0  0  0  0  0  0  0  0  0
    3.9845    2.6574    3.5786 H   0  0  0  0  0  0  0  0  0  0  0  0
    5.0228   -0.5089    3.2745 H   0  0  0  0  0  0  0  0  0  0  0  0
    4.0192   -1.8598    1.0767 H   0  0  0  0  0  0  0  0  0  0  0  0
    1.4399    2.6388    1.9675 H   0  0  0  0  0  0  0  0  0  0  0  0
    0.6412    1.4380    0.9637 H   0  0  0  0  0  0  0  0  0  0  0  0
   -0.9134    3.2088    2.4783 H   0  0  0  0  0  0  0  0  0  0  0  0
   -1.7761    1.7485    1.8993 H   0  0  0  0  0  0  0  0  0  0  0  0
   -2.6098    1.2285    4.0779 H   0  0  0  0  0  0  0  0  0  0  0  0
   -2.9024    3.9777    3.6736 H   0  0  0  0  0  0  0  0  0  0  0  0
   -3.4806    3.1230    5.1381 H   0  0  0  0  0  0  0  0  0  0  0  0
    0.0335    3.4499    6.3602 H   0  0  0  0  0  0  0  0  0  0  0  0
   -1.5062    2.7941    6.9641 H   0  0  0  0  0  0  0  0  0  0  0  0
   -0.9590    0.9403    5.6453 H   0  0  0  0  0  0  0  0  0  0  0  0
    0.9814    1.0577    4.7362 H   0  0  0  0  0  0  0  0  0  0  0  0
    0.8271    2.7859    4.2246 H   0  0  0  0  0  0  0  0  0  0  0  0
    1.8785   -0.5936    0.4575 H   0  0  0  0  0  0  0  0  0  0  0  0
  1  2  1  0
  1 16  1  0
  1 17  1  0
  1 18  1  0
  2  6  1  0
  2  3  1  0
  3  4  2  0
  3 19  1  0
  4  5  1  0
  4 20  1  0
  5  6  2  0
  5 33  1  0
  6  7  1  0
  7  8  1  0
  7 21  1  0
  7 22  1  0
  8 15  1  0
  8  9  1  0
  9 10  1  0
  9 23  1  0
  9 24  1  0
 10 14  1  0
 10 11  1  0
 10 25  1  6
 11 12  1  0
 11 26  1  0
 11 27  1  0
 12 13  1  0
 13 14  1  0
 13 28  1  0
 13 29  1  0
 14 15  1  0
 14 30  1  1
 15 31  1  0
 15 32  1  0
M  CHG  1   5   1
M  END
>  <i_m_ct_stereo_status>  (387) 
1

>  <s_m_source_file>  (387) 
/var/tmp/pbs.5076255.sched01/tmpsabrbf27/138opeauupd.sdf

>  <i_m_source_file_index>  (387) 
22

>  <i_lp_mmshare_version>  (387) 
48012

>  <i_f3d_flags>  (387) 
0

>  <s_epik_input>  (387) 
W0NIM11uMVtjSF1bY0hdbmMxW0NIMl1OKFtDSDJdMilbQ0gyXVtDQEhdKFtDQEhdMjMpW0NIMl1PW0NIMl0z

>  <s_epik_cmdline>  (387) 
J2VwaWtfcHl0aG9uJywgJy1waHQnLCAnMi4wJywgJy1waCcsICc3LjAnLCAnLXRuJywgJzgnLCAnLW1hJywgJzIwMCcsICctaW1hZScsICc8aW5maWxlLm1hZT4nLCAnLW9tYWUnLCAnPG91dGZpbGUubWFlPic=

>  <r_lp_tautomer_probability>  (387) 
1

>  <r_epik_Ionization_Penalty>  (387) 
0.0677506

>  <r_epik_Ionization_Penalty_Charging>  (387) 
0

>  <r_epik_Ionization_Penalty_Neutral>  (387) 
0.0677506

>  <r_epik_State_Penalty>  (387) 
0.158542

>  <r_epik_Charging_Adjusted_Penalty>  (387) 
0.158542

>  <i_epik_Tot_Q>  (387) 
1

>  <i_epik_Tot_abs_Q>  (387) 
1

>  <s_lp_Force_Field>  (387) 
OPLS3e

>  <r_lp_Energy>  (387) 
0.028807

>  <b_lp_Chiralities_Consistent>  (387) 
1

>  <s_lp_Variant>  (387) 
99:0-1

>  <s_i_glide_gridfile>  (387) 
pfpi4k_grid

>  <i_i_glide_lignum>  (387) 
22

>  <i_i_glide_rotatable_bonds>  (387) 
2

>  <r_i_docking_score>  (387) 
-3.1161

>  <r_i_glide_ligand_efficiency>  (387) 
-0.20774

>  <r_i_glide_ligand_efficiency_sa>  (387) 
-0.512331

>  <r_i_glide_ligand_efficiency_ln>  (387) 
-0.840361

>  <r_i_glide_gscore>  (387) 
-3.1161

>  <r_i_glide_lipo>  (387) 
-0.0470427

>  <r_i_glide_hbond>  (387) 
-0.2

>  <r_i_glide_metal>  (387) 
-0

>  <r_i_glide_rewards>  (387) 
-2.00692

>  <r_i_glide_evdw>  (387) 
-12.0856

>  <r_i_glide_ecoul>  (387) 
-6.20846

>  <r_i_glide_erotb>  (387) 
0.763137

>  <r_i_glide_esite>  (387) 
-0.0897306

>  <r_i_glide_emodel>  (387) 
-22.0569

>  <r_i_glide_energy>  (387) 
-18.294

>  <r_i_glide_einternal>  (387) 
0.103468

>  <r_i_glide_intrahb_reward>  (387) 
-0

>  <i_i_glide_confnum>  (387) 
4

>  <i_i_glide_posenum>  (387) 
18

>  <r_i_glide_eff_state_penalty>  (387) 
0

>  <ligand_id>  (387) 
99

>  <original_smiles>  (387) 
Cn1ccnc1CN1CC2COCC2C1

>  <smiles>  (387) 
[H]c1c([H])[n+]([H])c(C([H])([H])N2C([H])([H])C3([H])C([H])([H])OC([H])([H])C3([H])C2([H])[H])n1C([H])([H])[H]

$$$$
99:1:0
     RDKit          3D

 33 35  0  0  1  0  0  0  0  0999 V2000
    4.0234   -5.9502    0.6964 C   0  0  0  0  0  0  0  0  0  0  0  0
    3.2451   -5.1049    1.5820 N   0  0  0  0  0  0  0  0  0  0  0  0
    2.4001   -5.5567    2.5876 C   0  0  0  0  0  0  0  0  0  0  0  0
    1.8861   -4.4497    3.2062 C   0  0  0  0  0  0  0  0  0  0  0  0
    2.3754   -3.3055    2.5812 N   0  0  0  0  0  0  0  0  0  0  0  0
    3.1957   -3.7598    1.6388 C   0  0  0  0  0  0  0  0  0  0  0  0
    4.0440   -2.8666    0.7783 C   0  0  0  0  0  0  0  0  0  0  0  0
    3.2012   -2.4251   -0.3618 N   0  0  2  0  0  0  0  0  0  0  0  0
    2.9351   -3.4480   -1.3900 C   0  0  0  0  0  0  0  0  0  0  0  0
    2.4432   -2.6636   -2.6049 C   0  0  2  0  0  0  0  0  0  0  0  0
    3.0060   -3.1469   -3.9413 C   0  0  0  0  0  0  0  0  0  0  0  0
    4.1404   -2.3176   -4.1761 O   0  0  0  0  0  0  0  0  0  0  0  0
    3.8338   -1.0177   -3.6968 C   0  0  0  0  0  0  0  0  0  0  0  0
    3.0092   -1.2587   -2.4356 C   0  0  2  0  0  0  0  0  0  0  0  0
    3.8034   -1.3135   -1.1222 C   0  0  0  0  0  0  0  0  0  0  0  0
    3.9182   -6.9959    0.9868 H   0  0  0  0  0  0  0  0  0  0  0  0
    5.0763   -5.6743    0.7393 H   0  0  0  0  0  0  0  0  0  0  0  0
    3.6652   -5.8522   -0.3234 H   0  0  0  0  0  0  0  0  0  0  0  0
    2.2582   -6.6114    2.7930 H   0  0  0  0  0  0  0  0  0  0  0  0
    1.2153   -4.3925    4.0501 H   0  0  0  0  0  0  0  0  0  0  0  0
    4.3629   -2.0064    1.3667 H   0  0  0  0  0  0  0  0  0  0  0  0
    4.9488   -3.3676    0.4332 H   0  0  0  0  0  0  0  0  0  0  0  0
    3.8804   -3.9419   -1.6382 H   0  0  0  0  0  0  0  0  0  0  0  0
    2.2163   -4.2091   -1.0830 H   0  0  0  0  0  0  0  0  0  0  0  0
    1.3549   -2.6597   -2.6271 H   0  0  0  0  0  0  0  0  0  0  0  0
    3.2855   -4.2025   -3.9435 H   0  0  0  0  0  0  0  0  0  0  0  0
    2.2517   -2.9970   -4.7119 H   0  0  0  0  0  0  0  0  0  0  0  0
    4.7415   -0.4609   -3.4814 H   0  0  0  0  0  0  0  0  0  0  0  0
    3.2503   -0.4692   -4.4418 H   0  0  0  0  0  0  0  0  0  0  0  0
    2.2208   -0.5151   -2.3564 H   0  0  0  0  0  0  0  0  0  0  0  0
    3.8041   -0.3748   -0.5660 H   0  0  0  0  0  0  0  0  0  0  0  0
    4.8448   -1.5705   -1.3315 H   0  0  0  0  0  0  0  0  0  0  0  0
    2.3036   -2.0752   -0.0453 H   0  0  0  0  0  0  0  0  0  0  0  0
  1  2  1  0
  1 16  1  0
  1 17  1  0
  1 18  1  0
  2  6  1  0
  2  3  1  0
  3  4  2  0
  3 19  1  0
  4  5  1  0
  4 20  1  0
  5  6  2  0
  6  7  1  0
  7  8  1  0
  7 21  1  0
  7 22  1  0
  8 15  1  0
  8  9  1  0
  8 33  1  1
  9 10  1  0
  9 23  1  0
  9 24  1  0
 10 14  1  0
 10 11  1  0
 10 25  1  6
 11 12  1  0
 11 26  1  0
 11 27  1  0
 12 13  1  0
 13 14  1  0
 13 28  1  0
 13 29  1  0
 14 15  1  0
 14 30  1  1
 15 31  1  0
 15 32  1  0
M  CHG  1   8   1
M  END
>  <i_m_ct_stereo_status>  (388) 
1

>  <s_m_source_file>  (388) 
/var/tmp/pbs.5076255.sched01/tmpsabrbf27/138opeauupd.sdf

>  <i_m_source_file_index>  (388) 
23

>  <i_lp_mmshare_version>  (388) 
48012

>  <i_f3d_flags>  (388) 
0

>  <s_epik_input>  (388) 
W0NIM11uMVtjSF1bY0hdbmMxW0NIMl1OKFtDSDJdMilbQ0gyXVtDQEhdKFtDQEhdMjMpW0NIMl1PW0NIMl0z

>  <s_epik_cmdline>  (388) 
J2VwaWtfcHl0aG9uJywgJy1waHQnLCAnMi4wJywgJy1waCcsICc3LjAnLCAnLXRuJywgJzgnLCAnLW1hJywgJzIwMCcsICctaW1hZScsICc8aW5maWxlLm1hZT4nLCAnLW9tYWUnLCAnPG91dGZpbGUubWFlPic=

>  <r_epik_Ionization_Penalty>  (388) 
0.633112

>  <r_epik_Ionization_Penalty_Charging>  (388) 
0.633112

>  <r_epik_Ionization_Penalty_Neutral>  (388) 
1.34071e-12

>  <r_epik_State_Penalty>  (388) 
1.04733

>  <r_epik_Charging_Adjusted_Penalty>  (388) 
1.68044

>  <i_epik_Tot_Q>  (388) 
1

>  <i_epik_Tot_abs_Q>  (388) 
1

>  <s_lp_Force_Field>  (388) 
OPLS3e

>  <r_lp_Energy>  (388) 
-3.42155

>  <b_lp_Chiralities_Consistent>  (388) 
1

>  <s_lp_Variant>  (388) 
99:0-2

>  <s_i_glide_gridfile>  (388) 
pfpi4k_grid

>  <i_i_glide_lignum>  (388) 
23

>  <i_i_glide_rotatable_bonds>  (388) 
2

>  <r_i_docking_score>  (388) 
-4.06223

>  <r_i_glide_ligand_efficiency>  (388) 
-0.270816

>  <r_i_glide_ligand_efficiency_sa>  (388) 
-0.667889

>  <r_i_glide_ligand_efficiency_ln>  (388) 
-1.09552

>  <r_i_glide_gscore>  (388) 
-4.06223

>  <r_i_glide_lipo>  (388) 
-0.486253

>  <r_i_glide_hbond>  (388) 
-0.465137

>  <r_i_glide_metal>  (388) 
-0

>  <r_i_glide_rewards>  (388) 
-1.99656

>  <r_i_glide_evdw>  (388) 
-16.0683

>  <r_i_glide_ecoul>  (388) 
-6.73573

>  <r_i_glide_erotb>  (388) 
0.763137

>  <r_i_glide_esite>  (388) 
-0.0636425

>  <r_i_glide_emodel>  (388) 
-29.4624

>  <r_i_glide_energy>  (388) 
-22.804

>  <r_i_glide_einternal>  (388) 
0.094817

>  <r_i_glide_intrahb_reward>  (388) 
-0

>  <i_i_glide_confnum>  (388) 
1

>  <i_i_glide_posenum>  (388) 
36

>  <r_i_glide_eff_state_penalty>  (388) 
0

>  <ligand_id>  (388) 
99

>  <original_smiles>  (388) 
Cn1ccnc1CN1CC2COCC2C1

>  <smiles>  (388) 
[H]c1nc(C([H])([H])[N+]2([H])C([H])([H])C3([H])C([H])([H])OC([H])([H])C3([H])C2([H])[H])n(C([H])([H])[H])c1[H]

$$$$
99:1:1
     RDKit          3D

 33 35  0  0  1  0  0  0  0  0999 V2000
    5.6487   -0.7650    2.0678 C   0  0  0  0  0  0  0  0  0  0  0  0
    4.2962   -1.0078    2.5227 N   0  0  0  0  0  0  0  0  0  0  0  0
    3.6712   -0.3433    3.5806 C   0  0  0  0  0  0  0  0  0  0  0  0
    2.4249   -0.8795    3.7028 C   0  0  0  0  0  0  0  0  0  0  0  0
    2.2498   -1.8682    2.7350 N   0  0  0  0  0  0  0  0  0  0  0  0
    3.4086   -1.9017    2.0767 C   0  0  0  0  0  0  0  0  0  0  0  0
    3.7245   -2.9006    1.0004 C   0  0  0  0  0  0  0  0  0  0  0  0
    3.0569   -2.3960   -0.2363 N   0  0  2  0  0  0  0  0  0  0  0  0
    2.9450   -3.4248   -1.2898 C   0  0  0  0  0  0  0  0  0  0  0  0
    2.6157   -2.6507   -2.5753 C   0  0  2  0  0  0  0  0  0  0  0  0
    3.3608   -3.1180   -3.8220 C   0  0  0  0  0  0  0  0  0  0  0  0
    4.5041   -2.2895   -3.8695 O   0  0  0  0  0  0  0  0  0  0  0  0
    4.1319   -0.9957   -3.4438 C   0  0  0  0  0  0  0  0  0  0  0  0
    3.1325   -1.2384   -2.3240 C   0  0  2  0  0  0  0  0  0  0  0  0
    3.7430   -1.2758   -0.9113 C   0  0  0  0  0  0  0  0  0  0  0  0
    6.0703    0.0863    2.5981 H   0  0  0  0  0  0  0  0  0  0  0  0
    5.6509   -0.5411    1.0044 H   0  0  0  0  0  0  0  0  0  0  0  0
    6.2633   -1.6446    2.2539 H   0  0  0  0  0  0  0  0  0  0  0  0
    4.1719    0.4372    4.1483 H   0  0  0  0  0  0  0  0  0  0  0  0
    1.6459   -0.6316    4.4272 H   0  0  0  0  0  0  0  0  0  0  0  0
    4.8006   -3.0329    0.8689 H   0  0  0  0  0  0  0  0  0  0  0  0
    3.3192   -3.8666    1.3111 H   0  0  0  0  0  0  0  0  0  0  0  0
    3.9167   -3.9089   -1.3901 H   0  0  0  0  0  0  0  0  0  0  0  0
    2.2109   -4.2033   -1.0671 H   0  0  0  0  0  0  0  0  0  0  0  0
    1.5421   -2.6547   -2.7449 H   0  0  0  0  0  0  0  0  0  0  0  0
    3.6706   -4.1600   -3.7963 H   0  0  0  0  0  0  0  0  0  0  0  0
    2.7633   -2.9617   -4.7181 H   0  0  0  0  0  0  0  0  0  0  0  0
    5.0098   -0.4537   -3.1098 H   0  0  0  0  0  0  0  0  0  0  0  0
    3.6747   -0.4587   -4.2737 H   0  0  0  0  0  0  0  0  0  0  0  0
    2.3268   -0.5129   -2.3681 H   0  0  0  0  0  0  0  0  0  0  0  0
    3.6507   -0.3371   -0.3603 H   0  0  0  0  0  0  0  0  0  0  0  0
    4.8041   -1.5163   -0.9858 H   0  0  0  0  0  0  0  0  0  0  0  0
    2.1186   -2.0397   -0.0680 H   0  0  0  0  0  0  0  0  0  0  0  0
  1  2  1  0
  1 16  1  0
  1 17  1  0
  1 18  1  0
  2  6  1  0
  2  3  1  0
  3  4  2  0
  3 19  1  0
  4  5  1  0
  4 20  1  0
  5  6  2  0
  6  7  1  0
  7  8  1  0
  7 21  1  0
  7 22  1  0
  8 15  1  0
  8  9  1  0
  8 33  1  1
  9 10  1  0
  9 23  1  0
  9 24  1  0
 10 14  1  0
 10 11  1  0
 10 25  1  6
 11 12  1  0
 11 26  1  0
 11 27  1  0
 12 13  1  0
 13 14  1  0
 13 28  1  0
 13 29  1  0
 14 15  1  0
 14 30  1  1
 15 31  1  0
 15 32  1  0
M  CHG  1   8   1
M  END
>  <i_m_ct_stereo_status>  (389) 
1

>  <s_m_source_file>  (389) 
/var/tmp/pbs.5076255.sched01/tmpsabrbf27/138opeauupd.sdf

>  <i_m_source_file_index>  (389) 
23

>  <i_lp_mmshare_version>  (389) 
48012

>  <i_f3d_flags>  (389) 
0

>  <s_epik_input>  (389) 
W0NIM11uMVtjSF1bY0hdbmMxW0NIMl1OKFtDSDJdMilbQ0gyXVtDQEhdKFtDQEhdMjMpW0NIMl1PW0NIMl0z

>  <s_epik_cmdline>  (389) 
J2VwaWtfcHl0aG9uJywgJy1waHQnLCAnMi4wJywgJy1waCcsICc3LjAnLCAnLXRuJywgJzgnLCAnLW1hJywgJzIwMCcsICctaW1hZScsICc8aW5maWxlLm1hZT4nLCAnLW9tYWUnLCAnPG91dGZpbGUubWFlPic=

>  <r_epik_Ionization_Penalty>  (389) 
0.633112

>  <r_epik_Ionization_Penalty_Charging>  (389) 
0.633112

>  <r_epik_Ionization_Penalty_Neutral>  (389) 
1.34071e-12

>  <r_epik_State_Penalty>  (389) 
1.04733

>  <r_epik_Charging_Adjusted_Penalty>  (389) 
1.68044

>  <i_epik_Tot_Q>  (389) 
1

>  <i_epik_Tot_abs_Q>  (389) 
1

>  <s_lp_Force_Field>  (389) 
OPLS3e

>  <r_lp_Energy>  (389) 
-3.42155

>  <b_lp_Chiralities_Consistent>  (389) 
1

>  <s_lp_Variant>  (389) 
99:0-2

>  <s_i_glide_gridfile>  (389) 
pfpi4k_grid

>  <i_i_glide_lignum>  (389) 
23

>  <i_i_glide_rotatable_bonds>  (389) 
2

>  <r_i_docking_score>  (389) 
-3.83868

>  <r_i_glide_ligand_efficiency>  (389) 
-0.255912

>  <r_i_glide_ligand_efficiency_sa>  (389) 
-0.631133

>  <r_i_glide_ligand_efficiency_ln>  (389) 
-1.03523

>  <r_i_glide_gscore>  (389) 
-3.83868

>  <r_i_glide_lipo>  (389) 
-0.521142

>  <r_i_glide_hbond>  (389) 
-0.290629

>  <r_i_glide_metal>  (389) 
-0

>  <r_i_glide_rewards>  (389) 
-2.04104

>  <r_i_glide_evdw>  (389) 
-17.068

>  <r_i_glide_ecoul>  (389) 
-5.47132

>  <r_i_glide_erotb>  (389) 
0.763137

>  <r_i_glide_esite>  (389) 
-0.0749046

>  <r_i_glide_emodel>  (389) 
-28.5615

>  <r_i_glide_energy>  (389) 
-22.5393

>  <r_i_glide_einternal>  (389) 
0.665631

>  <r_i_glide_intrahb_reward>  (389) 
-0

>  <i_i_glide_confnum>  (389) 
2

>  <i_i_glide_posenum>  (389) 
37

>  <r_i_glide_eff_state_penalty>  (389) 
0

>  <ligand_id>  (389) 
99

>  <original_smiles>  (389) 
Cn1ccnc1CN1CC2COCC2C1

>  <smiles>  (389) 
[H]c1nc(C([H])([H])[N+]2([H])C([H])([H])C3([H])C([H])([H])OC([H])([H])C3([H])C2([H])[H])n(C([H])([H])[H])c1[H]

$$$$
99:1:2
     RDKit          3D

 33 35  0  0  1  0  0  0  0  0999 V2000
    4.9228   -6.9938    1.7019 C   0  0  0  0  0  0  0  0  0  0  0  0
    3.5658   -6.6115    1.3611 N   0  0  0  0  0  0  0  0  0  0  0  0
    2.4238   -7.3331    1.6777 C   0  0  0  0  0  0  0  0  0  0  0  0
    1.3550   -6.6262    1.1677 C   0  0  0  0  0  0  0  0  0  0  0  0
    1.8335   -5.4621    0.5671 N   0  0  0  0  0  0  0  0  0  0  0  0
    3.1635   -5.5102    0.6949 C   0  0  0  0  0  0  0  0  0  0  0  0
    4.1764   -4.5050    0.2098 C   0  0  0  0  0  0  0  0  0  0  0  0
    3.4425   -3.4092   -0.4861 N   0  0  2  0  0  0  0  0  0  0  0  0
    2.9211   -3.7377   -1.8218 C   0  0  0  0  0  0  0  0  0  0  0  0
    2.6102   -2.4120   -2.4831 C   0  0  2  0  0  0  0  0  0  0  0  0
    2.9843   -2.2883   -3.9492 C   0  0  0  0  0  0  0  0  0  0  0  0
    4.2773   -1.7243   -3.9234 O   0  0  0  0  0  0  0  0  0  0  0  0
    4.3189   -0.7686   -2.8813 C   0  0  0  0  0  0  0  0  0  0  0  0
    3.4877   -1.3976   -1.7681 C   0  0  2  0  0  0  0  0  0  0  0  0
    4.2707   -2.2172   -0.7331 C   0  0  0  0  0  0  0  0  0  0  0  0
    4.9035   -7.8870    2.3278 H   0  0  0  0  0  0  0  0  0  0  0  0
    5.4130   -6.1944    2.2586 H   0  0  0  0  0  0  0  0  0  0  0  0
    5.4950   -7.2115    0.7996 H   0  0  0  0  0  0  0  0  0  0  0  0
    2.4556   -8.2736    2.2040 H   0  0  0  0  0  0  0  0  0  0  0  0
    0.3041   -6.8829    1.1918 H   0  0  0  0  0  0  0  0  0  0  0  0
    4.7091   -4.1015    1.0737 H   0  0  0  0  0  0  0  0  0  0  0  0
    4.9055   -4.9818   -0.4517 H   0  0  0  0  0  0  0  0  0  0  0  0
    3.7122   -4.2416   -2.3820 H   0  0  0  0  0  0  0  0  0  0  0  0
    1.9892   -4.2980   -1.7862 H   0  0  0  0  0  0  0  0  0  0  0  0
    1.5453   -2.2530   -2.3544 H   0  0  0  0  0  0  0  0  0  0  0  0
    2.9925   -3.2418   -4.4694 H   0  0  0  0  0  0  0  0  0  0  0  0
    2.2985   -1.6029   -4.4461 H   0  0  0  0  0  0  0  0  0  0  0  0
    5.3464   -0.5858   -2.5794 H   0  0  0  0  0  0  0  0  0  0  0  0
    3.8766    0.1713   -3.2159 H   0  0  0  0  0  0  0  0  0  0  0  0
    2.9068   -0.6617   -1.2594 H   0  0  0  0  0  0  0  0  0  0  0  0
    4.4913   -1.6501    0.1721 H   0  0  0  0  0  0  0  0  0  0  0  0
    5.2149   -2.5528   -1.1704 H   0  0  0  0  0  0  0  0  0  0  0  0
    2.6414   -3.1154    0.0548 H   0  0  0  0  0  0  0  0  0  0  0  0
  1  2  1  0
  1 16  1  0
  1 17  1  0
  1 18  1  0
  2  6  1  0
  2  3  1  0
  3  4  2  0
  3 19  1  0
  4  5  1  0
  4 20  1  0
  5  6  2  0
  6  7  1  0
  7  8  1  0
  7 21  1  0
  7 22  1  0
  8 15  1  0
  8  9  1  0
  8 33  1  1
  9 10  1  0
  9 23  1  0
  9 24  1  0
 10 14  1  0
 10 11  1  0
 10 25  1  6
 11 12  1  0
 11 26  1  0
 11 27  1  0
 12 13  1  0
 13 14  1  0
 13 28  1  0
 13 29  1  0
 14 15  1  0
 14 30  1  1
 15 31  1  0
 15 32  1  0
M  CHG  1   8   1
M  END
>  <i_m_ct_stereo_status>  (390) 
1

>  <s_m_source_file>  (390) 
/var/tmp/pbs.5076255.sched01/tmpsabrbf27/138opeauupd.sdf

>  <i_m_source_file_index>  (390) 
23

>  <i_lp_mmshare_version>  (390) 
48012

>  <i_f3d_flags>  (390) 
0

>  <s_epik_input>  (390) 
W0NIM11uMVtjSF1bY0hdbmMxW0NIMl1OKFtDSDJdMilbQ0gyXVtDQEhdKFtDQEhdMjMpW0NIMl1PW0NIMl0z

>  <s_epik_cmdline>  (390) 
J2VwaWtfcHl0aG9uJywgJy1waHQnLCAnMi4wJywgJy1waCcsICc3LjAnLCAnLXRuJywgJzgnLCAnLW1hJywgJzIwMCcsICctaW1hZScsICc8aW5maWxlLm1hZT4nLCAnLW9tYWUnLCAnPG91dGZpbGUubWFlPic=

>  <r_epik_Ionization_Penalty>  (390) 
0.633112

>  <r_epik_Ionization_Penalty_Charging>  (390) 
0.633112

>  <r_epik_Ionization_Penalty_Neutral>  (390) 
1.34071e-12

>  <r_epik_State_Penalty>  (390) 
1.04733

>  <r_epik_Charging_Adjusted_Penalty>  (390) 
1.68044

>  <i_epik_Tot_Q>  (390) 
1

>  <i_epik_Tot_abs_Q>  (390) 
1

>  <s_lp_Force_Field>  (390) 
OPLS3e

>  <r_lp_Energy>  (390) 
-3.42155

>  <b_lp_Chiralities_Consistent>  (390) 
1

>  <s_lp_Variant>  (390) 
99:0-2

>  <s_i_glide_gridfile>  (390) 
pfpi4k_grid

>  <i_i_glide_lignum>  (390) 
23

>  <i_i_glide_rotatable_bonds>  (390) 
2

>  <r_i_docking_score>  (390) 
-3.61501

>  <r_i_glide_ligand_efficiency>  (390) 
-0.241001

>  <r_i_glide_ligand_efficiency_sa>  (390) 
-0.594359

>  <r_i_glide_ligand_efficiency_ln>  (390) 
-0.974909

>  <r_i_glide_gscore>  (390) 
-3.61501

>  <r_i_glide_lipo>  (390) 
-0.278663

>  <r_i_glide_hbond>  (390) 
-0.185033

>  <r_i_glide_metal>  (390) 
-0

>  <r_i_glide_rewards>  (390) 
-2.07648

>  <r_i_glide_evdw>  (390) 
-13.8744

>  <r_i_glide_ecoul>  (390) 
-7.52526

>  <r_i_glide_erotb>  (390) 
0.763137

>  <r_i_glide_esite>  (390) 
-0.0154578

>  <r_i_glide_emodel>  (390) 
-27.1055

>  <r_i_glide_energy>  (390) 
-21.3997

>  <r_i_glide_einternal>  (390) 
0.695914

>  <r_i_glide_intrahb_reward>  (390) 
-0

>  <i_i_glide_confnum>  (390) 
1

>  <i_i_glide_posenum>  (390) 
1

>  <r_i_glide_eff_state_penalty>  (390) 
0

>  <ligand_id>  (390) 
99

>  <original_smiles>  (390) 
Cn1ccnc1CN1CC2COCC2C1

>  <smiles>  (390) 
[H]c1nc(C([H])([H])[N+]2([H])C([H])([H])C3([H])C([H])([H])OC([H])([H])C3([H])C2([H])[H])n(C([H])([H])[H])c1[H]

$$$$
99:2:0
     RDKit          3D

 33 35  0  0  1  0  0  0  0  0999 V2000
    2.1201   -2.9818   -3.3056 C   0  0  0  0  0  0  0  0  0  0  0  0
    2.9537   -1.8073   -3.2350 N   0  0  0  0  0  0  0  0  0  0  0  0
    3.0089   -0.8092   -4.1982 C   0  0  0  0  0  0  0  0  0  0  0  0
    3.8950    0.1352   -3.7278 C   0  0  0  0  0  0  0  0  0  0  0  0
    4.4313   -0.3180   -2.5233 N   0  0  0  0  0  0  0  0  0  0  0  0
    3.8089   -1.4548   -2.2498 C   0  0  0  0  0  0  0  0  0  0  0  0
    4.0772   -2.3045   -1.0513 C   0  0  0  0  0  0  0  0  0  0  0  0
    3.4262   -1.6228    0.1089 N   0  0  1  0  0  0  0  0  0  0  0  0
    3.2270   -2.5444    1.2496 C   0  0  0  0  0  0  0  0  0  0  0  0
    3.0403   -1.6657    2.4911 C   0  0  2  0  0  0  0  0  0  0  0  0
    1.5808   -1.3425    2.7760 C   0  0  0  0  0  0  0  0  0  0  0  0
    1.6098    0.0229    3.1052 O   0  0  0  0  0  0  0  0  0  0  0  0
    2.5109    0.6623    2.2328 C   0  0  0  0  0  0  0  0  0  0  0  0
    3.6645   -0.3240    2.1282 C   0  0  2  0  0  0  0  0  0  0  0  0
    4.1912   -0.4917    0.6954 C   0  0  0  0  0  0  0  0  0  0  0  0
    1.6463   -3.0365   -4.2884 H   0  0  0  0  0  0  0  0  0  0  0  0
    1.3521   -2.9368   -2.5332 H   0  0  0  0  0  0  0  0  0  0  0  0
    2.7246   -3.8693   -3.1609 H   0  0  0  0  0  0  0  0  0  0  0  0
    2.4345   -0.8071   -5.1134 H   0  0  0  0  0  0  0  0  0  0  0  0
    4.2001    1.0566   -4.1980 H   0  0  0  0  0  0  0  0  0  0  0  0
    3.6676   -3.3044   -1.1920 H   0  0  0  0  0  0  0  0  0  0  0  0
    5.1570   -2.4152   -0.9187 H   0  0  0  0  0  0  0  0  0  0  0  0
    2.4223   -3.2659    1.0946 H   0  0  0  0  0  0  0  0  0  0  0  0
    4.1468   -3.1128    1.3954 H   0  0  0  0  0  0  0  0  0  0  0  0
    3.5135   -2.0963    3.3800 H   0  0  0  0  0  0  0  0  0  0  0  0
    0.9444   -1.4899    1.9037 H   0  0  0  0  0  0  0  0  0  0  0  0
    1.1819   -1.9143    3.6067 H   0  0  0  0  0  0  0  0  0  0  0  0
    2.0221    0.8378    1.2741 H   0  0  0  0  0  0  0  0  0  0  0  0
    2.8212    1.6133    2.6496 H   0  0  0  0  0  0  0  0  0  0  0  0
    4.4566   -0.0609    2.8358 H   0  0  0  0  0  0  0  0  0  0  0  0
    5.2402   -0.7793    0.7829 H   0  0  0  0  0  0  0  0  0  0  0  0
    4.1734    0.4315    0.1114 H   0  0  0  0  0  0  0  0  0  0  0  0
    2.4996   -1.2762   -0.1522 H   0  0  0  0  0  0  0  0  0  0  0  0
  1  2  1  0
  1 16  1  0
  1 17  1  0
  1 18  1  0
  2  6  1  0
  2  3  1  0
  3  4  2  0
  3 19  1  0
  4  5  1  0
  4 20  1  0
  5  6  2  0
  6  7  1  0
  7  8  1  0
  7 21  1  0
  7 22  1  0
  8 15  1  0
  8  9  1  0
  8 33  1  6
  9 10  1  0
  9 23  1  0
  9 24  1  0
 10 14  1  0
 10 11  1  0
 10 25  1  1
 11 12  1  0
 11 26  1  0
 11 27  1  0
 12 13  1  0
 13 14  1  0
 13 28  1  0
 13 29  1  0
 14 15  1  0
 14 30  1  1
 15 31  1  0
 15 32  1  0
M  CHG  1   8   1
M  END
>  <i_m_ct_stereo_status>  (391) 
1

>  <s_m_source_file>  (391) 
/var/tmp/pbs.5076255.sched01/tmpsabrbf27/138opeauupd.sdf

>  <i_m_source_file_index>  (391) 
24

>  <i_lp_mmshare_version>  (391) 
48012

>  <i_f3d_flags>  (391) 
0

>  <s_epik_input>  (391) 
W0NIM11uMVtjSF1bY0hdbmMxW0NIMl1OKFtDSDJdMilbQ0gyXVtDQEhdKFtDQEhdMjMpW0NIMl1PW0NIMl0z

>  <s_epik_cmdline>  (391) 
J2VwaWtfcHl0aG9uJywgJy1waHQnLCAnMi4wJywgJy1waCcsICc3LjAnLCAnLXRuJywgJzgnLCAnLW1hJywgJzIwMCcsICctaW1hZScsICc8aW5maWxlLm1hZT4nLCAnLW9tYWUnLCAnPG91dGZpbGUubWFlPic=

>  <r_epik_Ionization_Penalty>  (391) 
0.633112

>  <r_epik_Ionization_Penalty_Charging>  (391) 
0.633112

>  <r_epik_Ionization_Penalty_Neutral>  (391) 
1.34071e-12

>  <r_epik_State_Penalty>  (391) 
1.04733

>  <r_epik_Charging_Adjusted_Penalty>  (391) 
1.68044

>  <i_epik_Tot_Q>  (391) 
1

>  <i_epik_Tot_abs_Q>  (391) 
1

>  <s_lp_Force_Field>  (391) 
OPLS3e

>  <r_lp_Energy>  (391) 
-4.86454

>  <b_lp_Chiralities_Consistent>  (391) 
1

>  <s_lp_Variant>  (391) 
99:0-3

>  <s_i_glide_gridfile>  (391) 
pfpi4k_grid

>  <i_i_glide_lignum>  (391) 
24

>  <i_i_glide_rotatable_bonds>  (391) 
2

>  <r_i_docking_score>  (391) 
-4.08651

>  <r_i_glide_ligand_efficiency>  (391) 
-0.272434

>  <r_i_glide_ligand_efficiency_sa>  (391) 
-0.671881

>  <r_i_glide_ligand_efficiency_ln>  (391) 
-1.10207

>  <r_i_glide_gscore>  (391) 
-4.08651

>  <r_i_glide_lipo>  (391) 
-0.534564

>  <r_i_glide_hbond>  (391) 
-0.2

>  <r_i_glide_metal>  (391) 
-0

>  <r_i_glide_rewards>  (391) 
-2.07592

>  <r_i_glide_evdw>  (391) 
-17.7798

>  <r_i_glide_ecoul>  (391) 
-6.79212

>  <r_i_glide_erotb>  (391) 
0.763137

>  <r_i_glide_esite>  (391) 
-0.131361

>  <r_i_glide_emodel>  (391) 
-31.3077

>  <r_i_glide_energy>  (391) 
-24.5719

>  <r_i_glide_einternal>  (391) 
0.603109

>  <r_i_glide_intrahb_reward>  (391) 
-0

>  <i_i_glide_confnum>  (391) 
4

>  <i_i_glide_posenum>  (391) 
35

>  <r_i_glide_eff_state_penalty>  (391) 
0

>  <ligand_id>  (391) 
99

>  <original_smiles>  (391) 
Cn1ccnc1CN1CC2COCC2C1

>  <smiles>  (391) 
[H]c1nc(C([H])([H])[N+]2([H])C([H])([H])C3([H])C([H])([H])OC([H])([H])C3([H])C2([H])[H])n(C([H])([H])[H])c1[H]

$$$$
99:2:1
     RDKit          3D

 33 35  0  0  1  0  0  0  0  0999 V2000
    1.5321    0.9473    1.9292 C   0  0  0  0  0  0  0  0  0  0  0  0
    1.6583   -0.4220    2.3784 N   0  0  0  0  0  0  0  0  0  0  0  0
    0.8007   -1.0603    3.2776 C   0  0  0  0  0  0  0  0  0  0  0  0
    1.2678   -2.3338    3.4264 C   0  0  0  0  0  0  0  0  0  0  0  0
    2.3966   -2.5059    2.6361 N   0  0  0  0  0  0  0  0  0  0  0  0
    2.5928   -1.3283    2.0463 C   0  0  0  0  0  0  0  0  0  0  0  0
    3.7774   -1.0164    1.1842 C   0  0  0  0  0  0  0  0  0  0  0  0
    3.4279   -1.4568   -0.1957 N   0  0  1  0  0  0  0  0  0  0  0  0
    4.3691   -0.9603   -1.2084 C   0  0  0  0  0  0  0  0  0  0  0  0
    4.1777   -1.8332   -2.4517 C   0  0  2  0  0  0  0  0  0  0  0  0
    3.1732   -1.2538   -3.4329 C   0  0  0  0  0  0  0  0  0  0  0  0
    2.4320   -2.3828   -3.8196 O   0  0  0  0  0  0  0  0  0  0  0  0
    2.1951   -3.1613   -2.6730 C   0  0  0  0  0  0  0  0  0  0  0  0
    3.5237   -3.1098   -1.9381 C   0  0  2  0  0  0  0  0  0  0  0  0
    3.3733   -2.9204   -0.4202 C   0  0  0  0  0  0  0  0  0  0  0  0
    0.7398    1.4526    2.4814 H   0  0  0  0  0  0  0  0  0  0  0  0
    1.2813    0.9520    0.8707 H   0  0  0  0  0  0  0  0  0  0  0  0
    2.4623    1.4872    2.0961 H   0  0  0  0  0  0  0  0  0  0  0  0
   -0.0609   -0.5589    3.7058 H   0  0  0  0  0  0  0  0  0  0  0  0
    0.8632   -3.1426    4.0434 H   0  0  0  0  0  0  0  0  0  0  0  0
    4.0040    0.0527    1.2201 H   0  0  0  0  0  0  0  0  0  0  0  0
    4.6587   -1.5425    1.5714 H   0  0  0  0  0  0  0  0  0  0  0  0
    4.2857    0.1073   -1.4184 H   0  0  0  0  0  0  0  0  0  0  0  0
    5.3861   -1.1325   -0.8434 H   0  0  0  0  0  0  0  0  0  0  0  0
    5.1192   -2.0503   -2.9610 H   0  0  0  0  0  0  0  0  0  0  0  0
    2.5271   -0.5097   -2.9715 H   0  0  0  0  0  0  0  0  0  0  0  0
    3.6377   -0.8186   -4.3085 H   0  0  0  0  0  0  0  0  0  0  0  0
    1.3859   -2.7272   -2.0965 H   0  0  0  0  0  0  0  0  0  0  0  0
    1.8973   -4.1585   -2.9614 H   0  0  0  0  0  0  0  0  0  0  0  0
    4.1334   -3.9822   -2.1866 H   0  0  0  0  0  0  0  0  0  0  0  0
    4.2470   -3.3754    0.0521 H   0  0  0  0  0  0  0  0  0  0  0  0
    2.4846   -3.3998   -0.0092 H   0  0  0  0  0  0  0  0  0  0  0  0
    2.4835   -1.1138   -0.4449 H   0  0  0  0  0  0  0  0  0  0  0  0
  1  2  1  0
  1 16  1  0
  1 17  1  0
  1 18  1  0
  2  6  1  0
  2  3  1  0
  3  4  2  0
  3 19  1  0
  4  5  1  0
  4 20  1  0
  5  6  2  0
  6  7  1  0
  7  8  1  0
  7 21  1  0
  7 22  1  0
  8 15  1  0
  8  9  1  0
  8 33  1  6
  9 10  1  0
  9 23  1  0
  9 24  1  0
 10 14  1  0
 10 11  1  0
 10 25  1  6
 11 12  1  0
 11 26  1  0
 11 27  1  0
 12 13  1  0
 13 14  1  0
 13 28  1  0
 13 29  1  0
 14 15  1  0
 14 30  1  1
 15 31  1  0
 15 32  1  0
M  CHG  1   8   1
M  END
>  <i_m_ct_stereo_status>  (392) 
1

>  <s_m_source_file>  (392) 
/var/tmp/pbs.5076255.sched01/tmpsabrbf27/138opeauupd.sdf

>  <i_m_source_file_index>  (392) 
24

>  <i_lp_mmshare_version>  (392) 
48012

>  <i_f3d_flags>  (392) 
0

>  <s_epik_input>  (392) 
W0NIM11uMVtjSF1bY0hdbmMxW0NIMl1OKFtDSDJdMilbQ0gyXVtDQEhdKFtDQEhdMjMpW0NIMl1PW0NIMl0z

>  <s_epik_cmdline>  (392) 
J2VwaWtfcHl0aG9uJywgJy1waHQnLCAnMi4wJywgJy1waCcsICc3LjAnLCAnLXRuJywgJzgnLCAnLW1hJywgJzIwMCcsICctaW1hZScsICc8aW5maWxlLm1hZT4nLCAnLW9tYWUnLCAnPG91dGZpbGUubWFlPic=

>  <r_epik_Ionization_Penalty>  (392) 
0.633112

>  <r_epik_Ionization_Penalty_Charging>  (392) 
0.633112

>  <r_epik_Ionization_Penalty_Neutral>  (392) 
1.34071e-12

>  <r_epik_State_Penalty>  (392) 
1.04733

>  <r_epik_Charging_Adjusted_Penalty>  (392) 
1.68044

>  <i_epik_Tot_Q>  (392) 
1

>  <i_epik_Tot_abs_Q>  (392) 
1

>  <s_lp_Force_Field>  (392) 
OPLS3e

>  <r_lp_Energy>  (392) 
-4.86454

>  <b_lp_Chiralities_Consistent>  (392) 
1

>  <s_lp_Variant>  (392) 
99:0-3

>  <s_i_glide_gridfile>  (392) 
pfpi4k_grid

>  <i_i_glide_lignum>  (392) 
24

>  <i_i_glide_rotatable_bonds>  (392) 
2

>  <r_i_docking_score>  (392) 
-3.58845

>  <r_i_glide_ligand_efficiency>  (392) 
-0.23923

>  <r_i_glide_ligand_efficiency_sa>  (392) 
-0.589992

>  <r_i_glide_ligand_efficiency_ln>  (392) 
-0.967746

>  <r_i_glide_gscore>  (392) 
-3.58845

>  <r_i_glide_lipo>  (392) 
-0.392511

>  <r_i_glide_hbond>  (392) 
-0.2

>  <r_i_glide_metal>  (392) 
-0

>  <r_i_glide_rewards>  (392) 
-1.989

>  <r_i_glide_evdw>  (392) 
-16.4207

>  <r_i_glide_ecoul>  (392) 
-5.21955

>  <r_i_glide_erotb>  (392) 
0.763137

>  <r_i_glide_esite>  (392) 
-0.166106

>  <r_i_glide_emodel>  (392) 
-27.3201

>  <r_i_glide_energy>  (392) 
-21.6403

>  <r_i_glide_einternal>  (392) 
0.798654

>  <r_i_glide_intrahb_reward>  (392) 
-0

>  <i_i_glide_confnum>  (392) 
4

>  <i_i_glide_posenum>  (392) 
40

>  <r_i_glide_eff_state_penalty>  (392) 
0

>  <ligand_id>  (392) 
99

>  <original_smiles>  (392) 
Cn1ccnc1CN1CC2COCC2C1

>  <smiles>  (392) 
[H]c1nc(C([H])([H])[N+]2([H])C([H])([H])C3([H])C([H])([H])OC([H])([H])C3([H])C2([H])[H])n(C([H])([H])[H])c1[H]

$$$$
99:2:2
     RDKit          3D

 33 35  0  0  1  0  0  0  0  0999 V2000
    1.1712   -0.3549    2.4501 C   0  0  0  0  0  0  0  0  0  0  0  0
    1.9573   -1.5705    2.3341 N   0  0  0  0  0  0  0  0  0  0  0  0
    1.8551   -2.6789    3.1629 C   0  0  0  0  0  0  0  0  0  0  0  0
    2.7791   -3.5906    2.7190 C   0  0  0  0  0  0  0  0  0  0  0  0
    3.4476   -3.0646    1.6245 N   0  0  0  0  0  0  0  0  0  0  0  0
    2.9280   -1.8583    1.4370 C   0  0  0  0  0  0  0  0  0  0  0  0
    3.3771   -0.8588    0.4015 C   0  0  0  0  0  0  0  0  0  0  0  0
    3.6170   -1.5899   -0.8757 N   0  0  1  0  0  0  0  0  0  0  0  0
    3.6537   -0.6962   -2.0538 C   0  0  0  0  0  0  0  0  0  0  0  0
    4.3612   -1.4780   -3.1568 C   0  0  2  0  0  0  0  0  0  0  0  0
    3.4051   -2.2504   -4.0650 C   0  0  0  0  0  0  0  0  0  0  0  0
    4.0560   -3.4889   -4.2319 O   0  0  0  0  0  0  0  0  0  0  0  0
    4.5950   -3.8471   -2.9751 C   0  0  0  0  0  0  0  0  0  0  0  0
    5.1758   -2.5432   -2.4393 C   0  0  2  0  0  0  0  0  0  0  0  0
    4.8981   -2.3362   -0.9479 C   0  0  0  0  0  0  0  0  0  0  0  0
    0.5779   -0.3846    3.3651 H   0  0  0  0  0  0  0  0  0  0  0  0
    0.4998   -0.2607    1.5967 H   0  0  0  0  0  0  0  0  0  0  0  0
    1.8279    0.5141    2.4874 H   0  0  0  0  0  0  0  0  0  0  0  0
    1.1592   -2.7244    3.9897 H   0  0  0  0  0  0  0  0  0  0  0  0
    3.0162   -4.5722    3.1074 H   0  0  0  0  0  0  0  0  0  0  0  0
    2.5949   -0.1254    0.2556 H   0  0  0  0  0  0  0  0  0  0  0  0
    4.2647   -0.3211    0.7363 H   0  0  0  0  0  0  0  0  0  0  0  0
    2.6727   -0.3219   -2.3568 H   0  0  0  0  0  0  0  0  0  0  0  0
    4.2987    0.1508   -1.8166 H   0  0  0  0  0  0  0  0  0  0  0  0
    5.0025   -0.8356   -3.7589 H   0  0  0  0  0  0  0  0  0  0  0  0
    2.4211   -2.3923   -3.6037 H   0  0  0  0  0  0  0  0  0  0  0  0
    3.2824   -1.7346   -5.0162 H   0  0  0  0  0  0  0  0  0  0  0  0
    3.8121   -4.2147   -2.3068 H   0  0  0  0  0  0  0  0  0  0  0  0
    5.3512   -4.6213   -3.0719 H   0  0  0  0  0  0  0  0  0  0  0  0
    6.2419   -2.4710   -2.6709 H   0  0  0  0  0  0  0  0  0  0  0  0
    5.6866   -1.7010   -0.5360 H   0  0  0  0  0  0  0  0  0  0  0  0
    4.9096   -3.2774   -0.4025 H   0  0  0  0  0  0  0  0  0  0  0  0
    2.8425   -2.2282   -1.0240 H   0  0  0  0  0  0  0  0  0  0  0  0
  1  2  1  0
  1 16  1  0
  1 17  1  0
  1 18  1  0
  2  6  1  0
  2  3  1  0
  3  4  2  0
  3 19  1  0
  4  5  1  0
  4 20  1  0
  5  6  2  0
  6  7  1  0
  7  8  1  0
  7 21  1  0
  7 22  1  0
  8 15  1  0
  8  9  1  0
  8 33  1  6
  9 10  1  0
  9 23  1  0
  9 24  1  0
 10 14  1  0
 10 11  1  0
 10 25  1  6
 11 12  1  0
 11 26  1  0
 11 27  1  0
 12 13  1  0
 13 14  1  0
 13 28  1  0
 13 29  1  0
 14 15  1  0
 14 30  1  1
 15 31  1  0
 15 32  1  0
M  CHG  1   8   1
M  END
>  <i_m_ct_stereo_status>  (393) 
1

>  <s_m_source_file>  (393) 
/var/tmp/pbs.5076255.sched01/tmpsabrbf27/138opeauupd.sdf

>  <i_m_source_file_index>  (393) 
24

>  <i_lp_mmshare_version>  (393) 
48012

>  <i_f3d_flags>  (393) 
0

>  <s_epik_input>  (393) 
W0NIM11uMVtjSF1bY0hdbmMxW0NIMl1OKFtDSDJdMilbQ0gyXVtDQEhdKFtDQEhdMjMpW0NIMl1PW0NIMl0z

>  <s_epik_cmdline>  (393) 
J2VwaWtfcHl0aG9uJywgJy1waHQnLCAnMi4wJywgJy1waCcsICc3LjAnLCAnLXRuJywgJzgnLCAnLW1hJywgJzIwMCcsICctaW1hZScsICc8aW5maWxlLm1hZT4nLCAnLW9tYWUnLCAnPG91dGZpbGUubWFlPic=

>  <r_epik_Ionization_Penalty>  (393) 
0.633112

>  <r_epik_Ionization_Penalty_Charging>  (393) 
0.633112

>  <r_epik_Ionization_Penalty_Neutral>  (393) 
1.34071e-12

>  <r_epik_State_Penalty>  (393) 
1.04733

>  <r_epik_Charging_Adjusted_Penalty>  (393) 
1.68044

>  <i_epik_Tot_Q>  (393) 
1

>  <i_epik_Tot_abs_Q>  (393) 
1

>  <s_lp_Force_Field>  (393) 
OPLS3e

>  <r_lp_Energy>  (393) 
-4.86454

>  <b_lp_Chiralities_Consistent>  (393) 
1

>  <s_lp_Variant>  (393) 
99:0-3

>  <s_i_glide_gridfile>  (393) 
pfpi4k_grid

>  <i_i_glide_lignum>  (393) 
24

>  <i_i_glide_rotatable_bonds>  (393) 
2

>  <r_i_docking_score>  (393) 
-3.13599

>  <r_i_glide_ligand_efficiency>  (393) 
-0.209066

>  <r_i_glide_ligand_efficiency_sa>  (393) 
-0.515602

>  <r_i_glide_ligand_efficiency_ln>  (393) 
-0.845726

>  <r_i_glide_gscore>  (393) 
-3.13599

>  <r_i_glide_lipo>  (393) 
-0.195064

>  <r_i_glide_hbond>  (393) 
-0.111899

>  <r_i_glide_metal>  (393) 
-0

>  <r_i_glide_rewards>  (393) 
-1.989

>  <r_i_glide_evdw>  (393) 
-14.1868

>  <r_i_glide_ecoul>  (393) 
-4.97413

>  <r_i_glide_erotb>  (393) 
0.763137

>  <r_i_glide_esite>  (393) 
-0.147708

>  <r_i_glide_emodel>  (393) 
-24.1548

>  <r_i_glide_energy>  (393) 
-19.161

>  <r_i_glide_einternal>  (393) 
0.779

>  <r_i_glide_intrahb_reward>  (393) 
-0

>  <i_i_glide_confnum>  (393) 
4

>  <i_i_glide_posenum>  (393) 
5

>  <r_i_glide_eff_state_penalty>  (393) 
0

>  <ligand_id>  (393) 
99

>  <original_smiles>  (393) 
Cn1ccnc1CN1CC2COCC2C1

>  <smiles>  (393) 
[H]c1nc(C([H])([H])[N+]2([H])C([H])([H])C3([H])C([H])([H])OC([H])([H])C3([H])C2([H])[H])n(C([H])([H])[H])c1[H]

$$$$
99:3:0
     RDKit          3D

 32 34  0  0  1  0  0  0  0  0999 V2000
    4.7894   -4.3412    2.7721 C   0  0  0  0  0  0  0  0  0  0  0  0
    5.1015   -2.9351    2.5905 N   0  0  0  0  0  0  0  0  0  0  0  0
    5.0148   -1.9517    3.5693 C   0  0  0  0  0  0  0  0  0  0  0  0
    5.3973   -0.7699    2.9814 C   0  0  0  0  0  0  0  0  0  0  0  0
    5.7369   -1.0079    1.6550 N   0  0  0  0  0  0  0  0  0  0  0  0
    5.5256   -2.3101    1.4763 C   0  0  0  0  0  0  0  0  0  0  0  0
    5.7335   -3.0003    0.1626 C   0  0  0  0  0  0  0  0  0  0  0  0
    4.5631   -2.9494   -0.7047 N   0  0  0  0  0  0  0  0  0  0  0  0
    4.7929   -3.6282   -1.9742 C   0  0  0  0  0  0  0  0  0  0  0  0
    3.6107   -3.1594   -2.8363 C   0  0  2  0  0  0  0  0  0  0  0  0
    3.9385   -2.8742   -4.2949 C   0  0  0  0  0  0  0  0  0  0  0  0
    4.2455   -1.4898   -4.3378 O   0  0  0  0  0  0  0  0  0  0  0  0
    3.3841   -0.8219   -3.4319 C   0  0  0  0  0  0  0  0  0  0  0  0
    3.2386   -1.8078   -2.2724 C   0  0  2  0  0  0  0  0  0  0  0  0
    4.2184   -1.5913   -1.1161 C   0  0  0  0  0  0  0  0  0  0  0  0
    4.6951   -4.5638    3.8358 H   0  0  0  0  0  0  0  0  0  0  0  0
    5.5841   -4.9679    2.3627 H   0  0  0  0  0  0  0  0  0  0  0  0
    3.8475   -4.5783    2.2748 H   0  0  0  0  0  0  0  0  0  0  0  0
    4.6969   -2.1688    4.5765 H   0  0  0  0  0  0  0  0  0  0  0  0
    5.4586    0.2186    3.4087 H   0  0  0  0  0  0  0  0  0  0  0  0
    6.5813   -2.5338   -0.3376 H   0  0  0  0  0  0  0  0  0  0  0  0
    6.0076   -4.0424    0.3273 H   0  0  0  0  0  0  0  0  0  0  0  0
    5.7406   -3.3072   -2.4152 H   0  0  0  0  0  0  0  0  0  0  0  0
    4.8078   -4.7128   -1.8619 H   0  0  0  0  0  0  0  0  0  0  0  0
    2.7734   -3.8576   -2.7543 H   0  0  0  0  0  0  0  0  0  0  0  0
    4.7698   -3.4797   -4.6509 H   0  0  0  0  0  0  0  0  0  0  0  0
    3.0612   -3.0684   -4.9118 H   0  0  0  0  0  0  0  0  0  0  0  0
    3.8008    0.1382   -3.1239 H   0  0  0  0  0  0  0  0  0  0  0  0
    2.4250   -0.6392   -3.9168 H   0  0  0  0  0  0  0  0  0  0  0  0
    2.2194   -1.8607   -1.9160 H   0  0  0  0  0  0  0  0  0  0  0  0
    3.7677   -1.0131   -0.3073 H   0  0  0  0  0  0  0  0  0  0  0  0
    5.1136   -1.0628   -1.4589 H   0  0  0  0  0  0  0  0  0  0  0  0
  1  2  1  0
  1 16  1  0
  1 17  1  0
  1 18  1  0
  2  6  1  0
  2  3  1  0
  3  4  2  0
  3 19  1  0
  4  5  1  0
  4 20  1  0
  5  6  2  0
  6  7  1  0
  7  8  1  0
  7 21  1  0
  7 22  1  0
  8 15  1  0
  8  9  1  0
  9 10  1  0
  9 23  1  0
  9 24  1  0
 10 14  1  0
 10 11  1  0
 10 25  1  6
 11 12  1  0
 11 26  1  0
 11 27  1  0
 12 13  1  0
 13 14  1  0
 13 28  1  0
 13 29  1  0
 14 15  1  0
 14 30  1  1
 15 31  1  0
 15 32  1  0
M  END
>  <i_m_ct_stereo_status>  (394) 
1

>  <s_m_source_file>  (394) 
/var/tmp/pbs.5076255.sched01/tmpsabrbf27/138opeauupd.sdf

>  <i_m_source_file_index>  (394) 
25

>  <i_lp_mmshare_version>  (394) 
48012

>  <i_f3d_flags>  (394) 
0

>  <s_epik_input>  (394) 
W0NIM11uMVtjSF1bY0hdbmMxW0NIMl1OKFtDSDJdMilbQ0gyXVtDQEhdKFtDQEhdMjMpW0NIMl1PW0NIMl0z

>  <s_epik_cmdline>  (394) 
J2VwaWtfcHl0aG9uJywgJy1waHQnLCAnMi4wJywgJy1waCcsICc3LjAnLCAnLXRuJywgJzgnLCAnLW1hJywgJzIwMCcsICctaW1hZScsICc8aW5maWxlLm1hZT4nLCAnLW9tYWUnLCAnPG91dGZpbGUubWFlPic=

>  <r_lp_tautomer_probability>  (394) 
1

>  <r_epik_Ionization_Penalty>  (394) 
2.5585

>  <r_epik_Ionization_Penalty_Charging>  (394) 
2.30344

>  <r_epik_Ionization_Penalty_Neutral>  (394) 
0.255063

>  <r_epik_State_Penalty>  (394) 
1.62942

>  <r_epik_Charging_Adjusted_Penalty>  (394) 
3.93286

>  <i_epik_Tot_Q>  (394) 
0

>  <i_epik_Tot_abs_Q>  (394) 
0

>  <s_lp_Force_Field>  (394) 
OPLS3e

>  <r_lp_Energy>  (394) 
-5.67391

>  <b_lp_Chiralities_Consistent>  (394) 
1

>  <s_lp_Variant>  (394) 
99:0-4

>  <s_i_glide_gridfile>  (394) 
pfpi4k_grid

>  <i_i_glide_lignum>  (394) 
25

>  <i_i_glide_rotatable_bonds>  (394) 
2

>  <r_i_docking_score>  (394) 
-3.2696

>  <r_i_glide_ligand_efficiency>  (394) 
-0.217973

>  <r_i_glide_ligand_efficiency_sa>  (394) 
-0.537568

>  <r_i_glide_ligand_efficiency_ln>  (394) 
-0.881757

>  <r_i_glide_gscore>  (394) 
-3.2696

>  <r_i_glide_lipo>  (394) 
-0.412743

>  <r_i_glide_hbond>  (394) 
-0.32

>  <r_i_glide_metal>  (394) 
-0

>  <r_i_glide_rewards>  (394) 
-2.17206

>  <r_i_glide_evdw>  (394) 
-17.1743

>  <r_i_glide_ecoul>  (394) 
-1.8363

>  <r_i_glide_erotb>  (394) 
0.769364

>  <r_i_glide_esite>  (394) 
0

>  <r_i_glide_emodel>  (394) 
-23.6764

>  <r_i_glide_energy>  (394) 
-19.0106

>  <r_i_glide_einternal>  (394) 
0.253605

>  <r_i_glide_intrahb_reward>  (394) 
-0

>  <i_i_glide_confnum>  (394) 
2

>  <i_i_glide_posenum>  (394) 
2

>  <r_i_glide_eff_state_penalty>  (394) 
0

>  <ligand_id>  (394) 
99

>  <original_smiles>  (394) 
Cn1ccnc1CN1CC2COCC2C1

>  <smiles>  (394) 
[H]c1nc(C([H])([H])N2C([H])([H])C3([H])C([H])([H])OC([H])([H])C3([H])C2([H])[H])n(C([H])([H])[H])c1[H]

$$$$
99:3:1
     RDKit          3D

 32 34  0  0  1  0  0  0  0  0999 V2000
    2.1077   -3.6785    3.7193 C   0  0  0  0  0  0  0  0  0  0  0  0
    2.0132   -4.7533    2.7437 N   0  0  0  0  0  0  0  0  0  0  0  0
    1.2274   -5.8937    2.8734 C   0  0  0  0  0  0  0  0  0  0  0  0
    1.4305   -6.6476    1.7403 C   0  0  0  0  0  0  0  0  0  0  0  0
    2.3270   -5.9882    0.9134 N   0  0  0  0  0  0  0  0  0  0  0  0
    2.6434   -4.8674    1.5587 C   0  0  0  0  0  0  0  0  0  0  0  0
    3.5961   -3.8403    1.0126 C   0  0  0  0  0  0  0  0  0  0  0  0
    3.0273   -3.0533   -0.0778 N   0  0  0  0  0  0  0  0  0  0  0  0
    2.8439   -3.8396   -1.2921 C   0  0  0  0  0  0  0  0  0  0  0  0
    2.6034   -2.7963   -2.3827 C   0  0  2  0  0  0  0  0  0  0  0  0
    3.2596   -3.1030   -3.7307 C   0  0  0  0  0  0  0  0  0  0  0  0
    4.5175   -2.4458   -3.6744 O   0  0  0  0  0  0  0  0  0  0  0  0
    4.3394   -1.2293   -2.9643 C   0  0  0  0  0  0  0  0  0  0  0  0
    3.3197   -1.5621   -1.8774 C   0  0  2  0  0  0  0  0  0  0  0  0
    3.9188   -1.9904   -0.5274 C   0  0  0  0  0  0  0  0  0  0  0  0
    1.3153   -3.7816    4.4611 H   0  0  0  0  0  0  0  0  0  0  0  0
    2.0002   -2.7100    3.2299 H   0  0  0  0  0  0  0  0  0  0  0  0
    3.0711   -3.7236    4.2280 H   0  0  0  0  0  0  0  0  0  0  0  0
    0.6129   -6.0783    3.7408 H   0  0  0  0  0  0  0  0  0  0  0  0
    1.0084   -7.6000    1.4563 H   0  0  0  0  0  0  0  0  0  0  0  0
    3.9140   -3.1671    1.8088 H   0  0  0  0  0  0  0  0  0  0  0  0
    4.4943   -4.3509    0.6633 H   0  0  0  0  0  0  0  0  0  0  0  0
    3.7591   -4.4009   -1.5000 H   0  0  0  0  0  0  0  0  0  0  0  0
    2.0033   -4.5295   -1.2136 H   0  0  0  0  0  0  0  0  0  0  0  0
    1.5319   -2.6286   -2.4995 H   0  0  0  0  0  0  0  0  0  0  0  0
    3.3788   -4.1702   -3.9210 H   0  0  0  0  0  0  0  0  0  0  0  0
    2.6600   -2.6829   -4.5393 H   0  0  0  0  0  0  0  0  0  0  0  0
    5.2809   -0.8681   -2.5501 H   0  0  0  0  0  0  0  0  0  0  0  0
    3.9419   -0.4628   -3.6343 H   0  0  0  0  0  0  0  0  0  0  0  0
    2.6221   -0.7346   -1.7513 H   0  0  0  0  0  0  0  0  0  0  0  0
    3.9567   -1.1661    0.1859 H   0  0  0  0  0  0  0  0  0  0  0  0
    4.9313   -2.3830   -0.6620 H   0  0  0  0  0  0  0  0  0  0  0  0
  1  2  1  0
  1 16  1  0
  1 17  1  0
  1 18  1  0
  2  6  1  0
  2  3  1  0
  3  4  2  0
  3 19  1  0
  4  5  1  0
  4 20  1  0
  5  6  2  0
  6  7  1  0
  7  8  1  0
  7 21  1  0
  7 22  1  0
  8 15  1  0
  8  9  1  0
  9 10  1  0
  9 23  1  0
  9 24  1  0
 10 14  1  0
 10 11  1  0
 10 25  1  6
 11 12  1  0
 11 26  1  0
 11 27  1  0
 12 13  1  0
 13 14  1  0
 13 28  1  0
 13 29  1  0
 14 15  1  0
 14 30  1  1
 15 31  1  0
 15 32  1  0
M  END
>  <i_m_ct_stereo_status>  (395) 
1

>  <s_m_source_file>  (395) 
/var/tmp/pbs.5076255.sched01/tmpsabrbf27/138opeauupd.sdf

>  <i_m_source_file_index>  (395) 
25

>  <i_lp_mmshare_version>  (395) 
48012

>  <i_f3d_flags>  (395) 
0

>  <s_epik_input>  (395) 
W0NIM11uMVtjSF1bY0hdbmMxW0NIMl1OKFtDSDJdMilbQ0gyXVtDQEhdKFtDQEhdMjMpW0NIMl1PW0NIMl0z

>  <s_epik_cmdline>  (395) 
J2VwaWtfcHl0aG9uJywgJy1waHQnLCAnMi4wJywgJy1waCcsICc3LjAnLCAnLXRuJywgJzgnLCAnLW1hJywgJzIwMCcsICctaW1hZScsICc8aW5maWxlLm1hZT4nLCAnLW9tYWUnLCAnPG91dGZpbGUubWFlPic=

>  <r_lp_tautomer_probability>  (395) 
1

>  <r_epik_Ionization_Penalty>  (395) 
2.5585

>  <r_epik_Ionization_Penalty_Charging>  (395) 
2.30344

>  <r_epik_Ionization_Penalty_Neutral>  (395) 
0.255063

>  <r_epik_State_Penalty>  (395) 
1.62942

>  <r_epik_Charging_Adjusted_Penalty>  (395) 
3.93286

>  <i_epik_Tot_Q>  (395) 
0

>  <i_epik_Tot_abs_Q>  (395) 
0

>  <s_lp_Force_Field>  (395) 
OPLS3e

>  <r_lp_Energy>  (395) 
-5.67391

>  <b_lp_Chiralities_Consistent>  (395) 
1

>  <s_lp_Variant>  (395) 
99:0-4

>  <s_i_glide_gridfile>  (395) 
pfpi4k_grid

>  <i_i_glide_lignum>  (395) 
25

>  <i_i_glide_rotatable_bonds>  (395) 
2

>  <r_i_docking_score>  (395) 
-2.65325

>  <r_i_glide_ligand_efficiency>  (395) 
-0.176883

>  <r_i_glide_ligand_efficiency_sa>  (395) 
-0.436232

>  <r_i_glide_ligand_efficiency_ln>  (395) 
-0.715538

>  <r_i_glide_gscore>  (395) 
-2.65325

>  <r_i_glide_lipo>  (395) 
-0.185987

>  <r_i_glide_hbond>  (395) 
0

>  <r_i_glide_metal>  (395) 
-0

>  <r_i_glide_rewards>  (395) 
-1.99587

>  <r_i_glide_evdw>  (395) 
-16.7422

>  <r_i_glide_ecoul>  (395) 
-2.5171

>  <r_i_glide_erotb>  (395) 
0.769364

>  <r_i_glide_esite>  (395) 
-0.026077

>  <r_i_glide_emodel>  (395) 
-22.4976

>  <r_i_glide_energy>  (395) 
-19.2594

>  <r_i_glide_einternal>  (395) 
1.24142

>  <r_i_glide_intrahb_reward>  (395) 
-0

>  <i_i_glide_confnum>  (395) 
6

>  <i_i_glide_posenum>  (395) 
38

>  <r_i_glide_eff_state_penalty>  (395) 
0

>  <ligand_id>  (395) 
99

>  <original_smiles>  (395) 
Cn1ccnc1CN1CC2COCC2C1

>  <smiles>  (395) 
[H]c1nc(C([H])([H])N2C([H])([H])C3([H])C([H])([H])OC([H])([H])C3([H])C2([H])[H])n(C([H])([H])[H])c1[H]

$$$$
99:3:2
     RDKit          3D

 32 34  0  0  1  0  0  0  0  0999 V2000
   -2.2153    3.3023    3.2707 C   0  0  0  0  0  0  0  0  0  0  0  0
   -1.9564    2.4890    4.4499 N   0  0  0  0  0  0  0  0  0  0  0  0
   -2.2811    2.8390    5.7597 C   0  0  0  0  0  0  0  0  0  0  0  0
   -1.8683    1.8116    6.5594 C   0  0  0  0  0  0  0  0  0  0  0  0
   -1.3127    0.8071    5.7684 N   0  0  0  0  0  0  0  0  0  0  0  0
   -1.3677    1.2886    4.5255 C   0  0  0  0  0  0  0  0  0  0  0  0
   -0.8401    0.5631    3.3237 C   0  0  0  0  0  0  0  0  0  0  0  0
    0.5461    0.8884    3.0233 N   0  0  0  0  0  0  0  0  0  0  0  0
    0.9649    0.3686    1.7258 C   0  0  0  0  0  0  0  0  0  0  0  0
    2.4906    0.5073    1.7753 C   0  0  2  0  0  0  0  0  0  0  0  0
    3.2793   -0.6254    1.1371 C   0  0  0  0  0  0  0  0  0  0  0  0
    4.3251   -0.8442    2.0589 O   0  0  0  0  0  0  0  0  0  0  0  0
    3.8064   -0.7199    3.3646 C   0  0  0  0  0  0  0  0  0  0  0  0
    2.8407    0.4499    3.2441 C   0  0  2  0  0  0  0  0  0  0  0  0
    1.4931    0.2818    3.9571 C   0  0  0  0  0  0  0  0  0  0  0  0
   -2.9023    4.1097    3.5170 H   0  0  0  0  0  0  0  0  0  0  0  0
   -2.6735    2.7021    2.4865 H   0  0  0  0  0  0  0  0  0  0  0  0
   -1.2839    3.7313    2.8988 H   0  0  0  0  0  0  0  0  0  0  0  0
   -2.7821    3.7667    6.0098 H   0  0  0  0  0  0  0  0  0  0  0  0
   -1.9396    1.7046    7.6451 H   0  0  0  0  0  0  0  0  0  0  0  0
   -0.9314   -0.4993    3.5131 H   0  0  0  0  0  0  0  0  0  0  0  0
   -1.4645    0.7859    2.4613 H   0  0  0  0  0  0  0  0  0  0  0  0
    0.6709   -0.6795    1.6328 H   0  0  0  0  0  0  0  0  0  0  0  0
    0.5276    0.9351    0.9003 H   0  0  0  0  0  0  0  0  0  0  0  0
    2.8009    1.4714    1.3765 H   0  0  0  0  0  0  0  0  0  0  0  0
    2.6949   -1.5327    1.0265 H   0  0  0  0  0  0  0  0  0  0  0  0
    3.6803   -0.3538    0.1675 H   0  0  0  0  0  0  0  0  0  0  0  0
    3.3157   -1.6456    3.6459 H   0  0  0  0  0  0  0  0  0  0  0  0
    4.6037   -0.5241    4.0720 H   0  0  0  0  0  0  0  0  0  0  0  0
    3.3212    1.3860    3.5352 H   0  0  0  0  0  0  0  0  0  0  0  0
    1.4784    0.7655    4.9355 H   0  0  0  0  0  0  0  0  0  0  0  0
    1.2598   -0.7776    4.0941 H   0  0  0  0  0  0  0  0  0  0  0  0
  1  2  1  0
  1 16  1  0
  1 17  1  0
  1 18  1  0
  2  6  1  0
  2  3  1  0
  3  4  2  0
  3 19  1  0
  4  5  1  0
  4 20  1  0
  5  6  2  0
  6  7  1  0
  7  8  1  0
  7 21  1  0
  7 22  1  0
  8 15  1  0
  8  9  1  0
  9 10  1  0
  9 23  1  0
  9 24  1  0
 10 14  1  0
 10 11  1  0
 10 25  1  6
 11 12  1  0
 11 26  1  0
 11 27  1  0
 12 13  1  0
 13 14  1  0
 13 28  1  0
 13 29  1  0
 14 15  1  0
 14 30  1  1
 15 31  1  0
 15 32  1  0
M  END
>  <i_m_ct_stereo_status>  (396) 
1

>  <s_m_source_file>  (396) 
/var/tmp/pbs.5076255.sched01/tmpsabrbf27/138opeauupd.sdf

>  <i_m_source_file_index>  (396) 
25

>  <i_lp_mmshare_version>  (396) 
48012

>  <i_f3d_flags>  (396) 
0

>  <s_epik_input>  (396) 
W0NIM11uMVtjSF1bY0hdbmMxW0NIMl1OKFtDSDJdMilbQ0gyXVtDQEhdKFtDQEhdMjMpW0NIMl1PW0NIMl0z

>  <s_epik_cmdline>  (396) 
J2VwaWtfcHl0aG9uJywgJy1waHQnLCAnMi4wJywgJy1waCcsICc3LjAnLCAnLXRuJywgJzgnLCAnLW1hJywgJzIwMCcsICctaW1hZScsICc8aW5maWxlLm1hZT4nLCAnLW9tYWUnLCAnPG91dGZpbGUubWFlPic=

>  <r_lp_tautomer_probability>  (396) 
1

>  <r_epik_Ionization_Penalty>  (396) 
2.5585

>  <r_epik_Ionization_Penalty_Charging>  (396) 
2.30344

>  <r_epik_Ionization_Penalty_Neutral>  (396) 
0.255063

>  <r_epik_State_Penalty>  (396) 
1.62942

>  <r_epik_Charging_Adjusted_Penalty>  (396) 
3.93286

>  <i_epik_Tot_Q>  (396) 
0

>  <i_epik_Tot_abs_Q>  (396) 
0

>  <s_lp_Force_Field>  (396) 
OPLS3e

>  <r_lp_Energy>  (396) 
-5.67391

>  <b_lp_Chiralities_Consistent>  (396) 
1

>  <s_lp_Variant>  (396) 
99:0-4

>  <s_i_glide_gridfile>  (396) 
pfpi4k_grid

>  <i_i_glide_lignum>  (396) 
25

>  <i_i_glide_rotatable_bonds>  (396) 
2

>  <r_i_docking_score>  (396) 
-2.53271

>  <r_i_glide_ligand_efficiency>  (396) 
-0.168847

>  <r_i_glide_ligand_efficiency_sa>  (396) 
-0.416413

>  <r_i_glide_ligand_efficiency_ln>  (396) 
-0.683029

>  <r_i_glide_gscore>  (396) 
-2.53271

>  <r_i_glide_lipo>  (396) 
-0.0642299

>  <r_i_glide_hbond>  (396) 
0

>  <r_i_glide_metal>  (396) 
-0

>  <r_i_glide_rewards>  (396) 
-1.99587

>  <r_i_glide_evdw>  (396) 
-17.239

>  <r_i_glide_ecoul>  (396) 
-2.22755

>  <r_i_glide_erotb>  (396) 
0.769364

>  <r_i_glide_esite>  (396) 
-0.0458862

>  <r_i_glide_emodel>  (396) 
-22.8612

>  <r_i_glide_energy>  (396) 
-19.4666

>  <r_i_glide_einternal>  (396) 
0.668314

>  <r_i_glide_intrahb_reward>  (396) 
-0

>  <i_i_glide_confnum>  (396) 
3

>  <i_i_glide_posenum>  (396) 
3

>  <r_i_glide_eff_state_penalty>  (396) 
0

>  <ligand_id>  (396) 
99

>  <original_smiles>  (396) 
Cn1ccnc1CN1CC2COCC2C1

>  <smiles>  (396) 
[H]c1nc(C([H])([H])N2C([H])([H])C3([H])C([H])([H])OC([H])([H])C3([H])C2([H])[H])n(C([H])([H])[H])c1[H]

$$$$
100:0:0
     RDKit          3D

 62 68  0  0  1  0  0  0  0  0999 V2000
    3.9232   -5.3192    0.0848 C   0  0  0  0  0  0  0  0  0  0  0  0
    4.4108   -4.7259    1.4318 C   0  0  1  0  0  0  0  0  0  0  0  0
    3.2989   -4.0054    2.2060 C   0  0  0  0  0  0  0  0  0  0  0  0
    2.1452   -4.9563    2.4944 C   0  0  0  0  0  0  0  0  0  0  0  0
    2.5534   -6.2228    3.3002 C   0  0  2  0  0  0  0  0  0  0  0  0
    4.0503   -6.7019    3.1916 C   0  0  2  0  0  0  0  0  0  0  0  0
    4.6783   -6.6808    4.6124 C   0  0  0  0  0  0  0  0  0  0  0  0
    4.9578   -5.8520    2.2763 C   0  0  0  0  0  0  0  0  0  0  0  0
    6.2952   -5.8770    2.2140 C   0  0  0  0  0  0  0  0  0  0  0  0
    6.8589   -4.7897    1.3341 C   0  0  0  0  0  0  0  0  0  0  0  0
    5.6648   -3.8141    1.2291 C   0  0  1  0  0  0  0  0  0  0  0  0
    5.6521   -2.9280    0.0003 C   0  0  0  0  0  0  0  0  0  0  0  0
    4.6776   -1.9241   -0.2940 C   0  0  0  0  0  0  0  0  0  0  0  0
    5.0531   -1.3329   -1.4642 C   0  0  0  0  0  0  0  0  0  0  0  0
    6.2126   -1.8775   -1.9149 O   0  0  0  0  0  0  0  0  0  0  0  0
    6.5605   -2.8411   -1.0203 C   0  0  0  0  0  0  0  0  0  0  0  0
    3.9189   -8.1305    2.6248 C   0  0  1  0  0  0  0  0  0  0  0  0
    5.0264   -8.9711    2.8856 O   0  0  0  0  0  0  0  0  0  0  0  0
    2.5737   -8.7461    3.0713 C   0  0  1  0  0  0  0  0  0  0  0  0
    2.1938   -9.8407    2.0445 C   0  0  0  0  0  0  0  0  0  0  0  0
    2.6162   -9.4343    4.4404 C   0  0  2  0  0  0  0  0  0  0  0  0
    1.9838  -10.7199    4.6746 O   0  0  0  0  0  0  0  0  0  0  0  0
    1.2481   -9.5795    5.0889 C   0  0  1  0  0  0  0  0  0  0  0  0
    1.0715   -8.9478    6.4120 C   0  0  0  0  0  0  0  0  0  0  0  0
    0.7577   -7.5388    5.9037 C   0  0  1  0  0  0  0  0  0  0  0  0
    1.7213   -6.6266    6.3710 O   0  0  0  0  0  0  0  0  0  0  0  0
    0.5229   -7.6536    4.3361 C   0  0  2  0  0  0  0  0  0  0  0  0
    0.2494   -9.0401    4.2436 O   0  0  0  0  0  0  0  0  0  0  0  0
    1.6052   -7.4901    3.1707 C   0  0  1  0  0  0  0  0  0  0  0  0
    0.7440   -7.4062    1.8685 C   0  0  0  0  0  0  0  0  0  0  0  0
    3.4416   -4.5718   -0.5511 H   0  0  0  0  0  0  0  0  0  0  0  0
    3.2156   -6.1350    0.2285 H   0  0  0  0  0  0  0  0  0  0  0  0
    4.7560   -5.7474   -0.4783 H   0  0  0  0  0  0  0  0  0  0  0  0
    3.6828   -3.5817    3.1332 H   0  0  0  0  0  0  0  0  0  0  0  0
    2.9188   -3.1691    1.6259 H   0  0  0  0  0  0  0  0  0  0  0  0
    1.3822   -4.4151    3.0515 H   0  0  0  0  0  0  0  0  0  0  0  0
    1.6901   -5.1678    1.5345 H   0  0  0  0  0  0  0  0  0  0  0  0
    2.4540   -5.8321    4.3014 H   0  0  0  0  0  0  0  0  0  0  0  0
    4.0726   -7.1895    5.3530 H   0  0  0  0  0  0  0  0  0  0  0  0
    4.7927   -5.6544    4.9639 H   0  0  0  0  0  0  0  0  0  0  0  0
    5.6653   -7.1418    4.6472 H   0  0  0  0  0  0  0  0  0  0  0  0
    6.9369   -6.5666    2.7416 H   0  0  0  0  0  0  0  0  0  0  0  0
    7.7514   -4.3124    1.7379 H   0  0  0  0  0  0  0  0  0  0  0  0
    7.1100   -5.2389    0.3719 H   0  0  0  0  0  0  0  0  0  0  0  0
    5.7423   -3.1450    2.0885 H   0  0  0  0  0  0  0  0  0  0  0  0
    3.8036   -1.6506    0.2756 H   0  0  0  0  0  0  0  0  0  0  0  0
    4.6315   -0.5354   -2.0570 H   0  0  0  0  0  0  0  0  0  0  0  0
    7.4822   -3.3498   -1.2518 H   0  0  0  0  0  0  0  0  0  0  0  0
    3.8791   -8.0304    1.5386 H   0  0  0  0  0  0  0  0  0  0  0  0
    4.8848   -9.7946    2.4382 H   0  0  0  0  0  0  0  0  0  0  0  0
    1.2026  -10.2561    2.2292 H   0  0  0  0  0  0  0  0  0  0  0  0
    2.8928  -10.6774    2.0913 H   0  0  0  0  0  0  0  0  0  0  0  0
    2.2048   -9.4822    1.0177 H   0  0  0  0  0  0  0  0  0  0  0  0
    3.4629   -9.2393    5.0887 H   0  0  0  0  0  0  0  0  0  0  0  0
    0.2101   -9.3997    6.9041 H   0  0  0  0  0  0  0  0  0  0  0  0
    1.9434   -9.0409    7.0516 H   0  0  0  0  0  0  0  0  0  0  0  0
   -0.1793   -7.2251    6.3580 H   0  0  0  0  0  0  0  0  0  0  0  0
    2.5710   -6.8990    6.0578 H   0  0  0  0  0  0  0  0  0  0  0  0
   -0.3754   -7.0914    4.0823 H   0  0  0  0  0  0  0  0  0  0  0  0
    0.0947   -8.2732    1.7423 H   0  0  0  0  0  0  0  0  0  0  0  0
    1.3532   -7.3321    0.9668 H   0  0  0  0  0  0  0  0  0  0  0  0
    0.0627   -6.5570    1.8827 H   0  0  0  0  0  0  0  0  0  0  0  0
  2  1  1  6
  1 31  1  0
  1 32  1  0
  1 33  1  0
  2  8  1  0
  2 11  1  0
  2  3  1  0
  3  4  1  0
  3 34  1  0
  3 35  1  0
  4  5  1  0
  4 36  1  0
  4 37  1  0
  5 29  1  0
  5  6  1  0
  5 38  1  1
  6  7  1  1
  6  8  1  0
  6 17  1  0
  7 39  1  0
  7 40  1  0
  7 41  1  0
  8  9  2  0
  9 10  1  0
  9 42  1  0
 10 11  1  0
 10 43  1  0
 10 44  1  0
 11 12  1  0
 11 45  1  1
 12 16  2  0
 12 13  1  0
 13 14  2  0
 13 46  1  0
 14 15  1  0
 14 47  1  0
 15 16  1  0
 16 48  1  0
 17 18  1  0
 17 19  1  0
 17 49  1  6
 18 50  1  0
 19 29  1  0
 19 20  1  6
 19 21  1  0
 20 51  1  0
 20 52  1  0
 20 53  1  0
 21 23  1  0
 21 22  1  0
 21 54  1  1
 23 22  1  1
 23 28  1  0
 23 24  1  0
 24 25  1  0
 24 55  1  0
 24 56  1  0
 25 26  1  0
 25 27  1  0
 25 57  1  1
 26 58  1  0
 27 28  1  0
 27 29  1  0
 27 59  1  6
 29 30  1  6
 30 60  1  0
 30 61  1  0
 30 62  1  0
M  END
>  <i_m_ct_stereo_status>  (397) 
1

>  <s_m_source_file>  (397) 
/var/tmp/pbs.5076255.sched01/tmpsabrbf27/138opeauupd.sdf

>  <i_m_source_file_index>  (397) 
26

>  <i_lp_mmshare_version>  (397) 
48012

>  <i_f3d_flags>  (397) 
0

>  <s_epik_input>  (397) 
W2NIXTFvW2NIXVtjSF1jMVtDQEhdKFtDSDJdW0NIXTIpW0NAXShbQ0gzXSkoW0NIMl1bQ0gyXTMpQz0yW0NAXShbQ0gzXSkoW0NASF00W09IXSlbQ0BASF0zW0NAQF0oW0NIM10pKFtDQF00KFtDSDNdKVtDQEhdKE81KVtDQEBdNTY3KVtDSF0oTzcpW0NAQEhdKFtDSDJdNilbT0hd

>  <s_epik_cmdline>  (397) 
J2VwaWtfcHl0aG9uJywgJy1waHQnLCAnMi4wJywgJy1waCcsICc3LjAnLCAnLXRuJywgJzgnLCAnLW1hJywgJzIwMCcsICctaW1hZScsICc8aW5maWxlLm1hZT4nLCAnLW9tYWUnLCAnPG91dGZpbGUubWFlPic=

>  <r_lp_tautomer_probability>  (397) 
1

>  <r_epik_Ionization_Penalty>  (397) 
1.45563e-07

>  <r_epik_Ionization_Penalty_Charging>  (397) 
0

>  <r_epik_Ionization_Penalty_Neutral>  (397) 
1.45563e-07

>  <r_epik_State_Penalty>  (397) 
-0

>  <r_epik_Charging_Adjusted_Penalty>  (397) 
0

>  <i_epik_Tot_Q>  (397) 
0

>  <i_epik_Tot_abs_Q>  (397) 
0

>  <s_lp_Force_Field>  (397) 
OPLS3e

>  <r_lp_Energy>  (397) 
77.1146

>  <b_lp_Chiralities_Consistent>  (397) 
1

>  <s_lp_Variant>  (397) 
100:0-1

>  <s_i_glide_gridfile>  (397) 
pfpi4k_grid

>  <i_i_glide_lignum>  (397) 
26

>  <i_i_glide_rotatable_bonds>  (397) 
3

>  <r_i_docking_score>  (397) 
-2.54498

>  <r_i_glide_ligand_efficiency>  (397) 
-0.0848326

>  <r_i_glide_ligand_efficiency_sa>  (397) 
-0.263595

>  <r_i_glide_ligand_efficiency_ln>  (397) 
-0.578247

>  <r_i_glide_gscore>  (397) 
-2.54498

>  <r_i_glide_lipo>  (397) 
-0.326747

>  <r_i_glide_hbond>  (397) 
-0.132192

>  <r_i_glide_metal>  (397) 
-0

>  <r_i_glide_rewards>  (397) 
-0.596464

>  <r_i_glide_evdw>  (397) 
-29.11

>  <r_i_glide_ecoul>  (397) 
-0.752414

>  <r_i_glide_erotb>  (397) 
0.115881

>  <r_i_glide_esite>  (397) 
-0.0370921

>  <r_i_glide_emodel>  (397) 
-33.9465

>  <r_i_glide_energy>  (397) 
-29.8624

>  <r_i_glide_einternal>  (397) 
0.422956

>  <r_i_glide_intrahb_reward>  (397) 
-0

>  <i_i_glide_confnum>  (397) 
4

>  <i_i_glide_posenum>  (397) 
8

>  <r_i_glide_eff_state_penalty>  (397) 
0

>  <ligand_id>  (397) 
100

>  <original_smiles>  (397) 
CC12CCC3C(C)(C1=CCC2c1ccoc1)C(O)C1(C)C2OC24CC(O)C(O4)C31C

>  <smiles>  (397) 
[H]OC1([H])C([H])([H])C23OC2([H])C2(C([H])([H])[H])C([H])(O[H])C4(C([H])([H])[H])C5=C([H])C([H])([H])C([H])(c6c([H])oc([H])c6[H])C5(C([H])([H])[H])C([H])([H])C([H])([H])C4([H])C2(C([H])([H])[H])C1([H])O3

$$$$
100:0:1
     RDKit          3D

 62 68  0  0  1  0  0  0  0  0999 V2000
    4.7626   -5.8716    0.4240 C   0  0  0  0  0  0  0  0  0  0  0  0
    3.8850   -4.8913    1.2435 C   0  0  1  0  0  0  0  0  0  0  0  0
    2.3907   -5.0547    0.9671 C   0  0  0  0  0  0  0  0  0  0  0  0
    1.9455   -6.4743    1.2833 C   0  0  0  0  0  0  0  0  0  0  0  0
    2.2192   -6.9219    2.7515 C   0  0  2  0  0  0  0  0  0  0  0  0
    3.3961   -6.2096    3.5125 C   0  0  2  0  0  0  0  0  0  0  0  0
    2.8087   -5.5158    4.7733 C   0  0  0  0  0  0  0  0  0  0  0  0
    4.1608   -5.1428    2.7045 C   0  0  0  0  0  0  0  0  0  0  0  0
    4.9915   -4.2092    3.1883 C   0  0  0  0  0  0  0  0  0  0  0  0
    5.4018   -3.1997    2.1456 C   0  0  0  0  0  0  0  0  0  0  0  0
    4.3278   -3.4026    1.0576 C   0  0  1  0  0  0  0  0  0  0  0  0
    4.7540   -2.9936   -0.3385 C   0  0  0  0  0  0  0  0  0  0  0  0
    5.9763   -3.2781   -1.0283 C   0  0  0  0  0  0  0  0  0  0  0  0
    5.8603   -2.7142   -2.2584 C   0  0  0  0  0  0  0  0  0  0  0  0
    4.6757   -2.0678   -2.3915 O   0  0  0  0  0  0  0  0  0  0  0  0
    4.0196   -2.2560   -1.2167 C   0  0  0  0  0  0  0  0  0  0  0  0
    4.3429   -7.3711    3.8653 C   0  0  1  0  0  0  0  0  0  0  0  0
    5.1893   -7.1155    4.9670 O   0  0  0  0  0  0  0  0  0  0  0  0
    3.5351   -8.6767    4.0255 C   0  0  1  0  0  0  0  0  0  0  0  0
    4.4958   -9.8713    3.7558 C   0  0  0  0  0  0  0  0  0  0  0  0
    2.9483   -8.8903    5.4240 C   0  0  2  0  0  0  0  0  0  0  0  0
    3.0101  -10.1844    6.0797 O   0  0  0  0  0  0  0  0  0  0  0  0
    1.7763   -9.8625    5.4593 C   0  0  1  0  0  0  0  0  0  0  0  0
    0.5026   -9.3263    5.9929 C   0  0  0  0  0  0  0  0  0  0  0  0
    0.0141   -8.6773    4.6955 C   0  0  1  0  0  0  0  0  0  0  0  0
   -0.1415   -7.2879    4.8851 O   0  0  0  0  0  0  0  0  0  0  0  0
    0.9830   -9.1869    3.5386 C   0  0  2  0  0  0  0  0  0  0  0  0
    1.5265  -10.3395    4.1627 O   0  0  0  0  0  0  0  0  0  0  0  0
    2.3247   -8.4855    3.0166 C   0  0  1  0  0  0  0  0  0  0  0  0
    2.6511   -9.2492    1.6949 C   0  0  0  0  0  0  0  0  0  0  0  0
    4.5710   -5.8060   -0.6486 H   0  0  0  0  0  0  0  0  0  0  0  0
    4.6174   -6.9101    0.7225 H   0  0  0  0  0  0  0  0  0  0  0  0
    5.8226   -5.6729    0.5917 H   0  0  0  0  0  0  0  0  0  0  0  0
    1.8128   -4.3411    1.5526 H   0  0  0  0  0  0  0  0  0  0  0  0
    2.2008   -4.8346   -0.0843 H   0  0  0  0  0  0  0  0  0  0  0  0
    0.8818   -6.5690    1.0823 H   0  0  0  0  0  0  0  0  0  0  0  0
    2.4291   -7.0790    0.5327 H   0  0  0  0  0  0  0  0  0  0  0  0
    1.3136   -6.5640    3.2192 H   0  0  0  0  0  0  0  0  0  0  0  0
    2.1867   -6.1744    5.3697 H   0  0  0  0  0  0  0  0  0  0  0  0
    2.1767   -4.6745    4.4865 H   0  0  0  0  0  0  0  0  0  0  0  0
    3.5764   -5.1261    5.4405 H   0  0  0  0  0  0  0  0  0  0  0  0
    5.3319   -4.1401    4.2079 H   0  0  0  0  0  0  0  0  0  0  0  0
    5.4418   -2.1749    2.5206 H   0  0  0  0  0  0  0  0  0  0  0  0
    6.3965   -3.4804    1.7940 H   0  0  0  0  0  0  0  0  0  0  0  0
    3.4904   -2.7579    1.3405 H   0  0  0  0  0  0  0  0  0  0  0  0
    6.8204   -3.8477   -0.6787 H   0  0  0  0  0  0  0  0  0  0  0  0
    6.5089   -2.6774   -3.1199 H   0  0  0  0  0  0  0  0  0  0  0  0
    3.0345   -1.7981   -1.1753 H   0  0  0  0  0  0  0  0  0  0  0  0
    5.0043   -7.5098    3.0086 H   0  0  0  0  0  0  0  0  0  0  0  0
    5.7786   -7.8485    5.0660 H   0  0  0  0  0  0  0  0  0  0  0  0
    3.9735  -10.8282    3.7554 H   0  0  0  0  0  0  0  0  0  0  0  0
    5.2547   -9.9402    4.5341 H   0  0  0  0  0  0  0  0  0  0  0  0
    5.0205   -9.7897    2.8067 H   0  0  0  0  0  0  0  0  0  0  0  0
    2.9348   -8.0504    6.1098 H   0  0  0  0  0  0  0  0  0  0  0  0
   -0.1309  -10.1648    6.2778 H   0  0  0  0  0  0  0  0  0  0  0  0
    0.6322   -8.6650    6.8435 H   0  0  0  0  0  0  0  0  0  0  0  0
   -0.9849   -9.0593    4.4923 H   0  0  0  0  0  0  0  0  0  0  0  0
    0.6987   -6.9296    5.1321 H   0  0  0  0  0  0  0  0  0  0  0  0
    0.3694   -9.4800    2.6844 H   0  0  0  0  0  0  0  0  0  0  0  0
    2.7453  -10.3255    1.8495 H   0  0  0  0  0  0  0  0  0  0  0  0
    3.5784   -8.9166    1.2285 H   0  0  0  0  0  0  0  0  0  0  0  0
    1.8535   -9.1500    0.9586 H   0  0  0  0  0  0  0  0  0  0  0  0
  2  1  1  6
  1 31  1  0
  1 32  1  0
  1 33  1  0
  2  8  1  0
  2 11  1  0
  2  3  1  0
  3  4  1  0
  3 34  1  0
  3 35  1  0
  4  5  1  0
  4 36  1  0
  4 37  1  0
  5 29  1  0
  5  6  1  0
  5 38  1  1
  6  7  1  1
  6  8  1  0
  6 17  1  0
  7 39  1  0
  7 40  1  0
  7 41  1  0
  8  9  2  0
  9 10  1  0
  9 42  1  0
 10 11  1  0
 10 43  1  0
 10 44  1  0
 11 12  1  0
 11 45  1  1
 12 16  2  0
 12 13  1  0
 13 14  2  0
 13 46  1  0
 14 15  1  0
 14 47  1  0
 15 16  1  0
 16 48  1  0
 17 18  1  0
 17 19  1  0
 17 49  1  6
 18 50  1  0
 19 29  1  0
 19 20  1  6
 19 21  1  0
 20 51  1  0
 20 52  1  0
 20 53  1  0
 21 23  1  0
 21 22  1  0
 21 54  1  1
 23 22  1  1
 23 28  1  0
 23 24  1  0
 24 25  1  0
 24 55  1  0
 24 56  1  0
 25 26  1  0
 25 27  1  0
 25 57  1  6
 26 58  1  0
 27 28  1  0
 27 29  1  0
 27 59  1  6
 29 30  1  6
 30 60  1  0
 30 61  1  0
 30 62  1  0
M  END
>  <i_m_ct_stereo_status>  (398) 
1

>  <s_m_source_file>  (398) 
/var/tmp/pbs.5076255.sched01/tmpsabrbf27/138opeauupd.sdf

>  <i_m_source_file_index>  (398) 
26

>  <i_lp_mmshare_version>  (398) 
48012

>  <i_f3d_flags>  (398) 
0

>  <s_epik_input>  (398) 
W2NIXTFvW2NIXVtjSF1jMVtDQEhdKFtDSDJdW0NIXTIpW0NAXShbQ0gzXSkoW0NIMl1bQ0gyXTMpQz0yW0NAXShbQ0gzXSkoW0NASF00W09IXSlbQ0BASF0zW0NAQF0oW0NIM10pKFtDQF00KFtDSDNdKVtDQEhdKE81KVtDQEBdNTY3KVtDSF0oTzcpW0NAQEhdKFtDSDJdNilbT0hd

>  <s_epik_cmdline>  (398) 
J2VwaWtfcHl0aG9uJywgJy1waHQnLCAnMi4wJywgJy1waCcsICc3LjAnLCAnLXRuJywgJzgnLCAnLW1hJywgJzIwMCcsICctaW1hZScsICc8aW5maWxlLm1hZT4nLCAnLW9tYWUnLCAnPG91dGZpbGUubWFlPic=

>  <r_lp_tautomer_probability>  (398) 
1

>  <r_epik_Ionization_Penalty>  (398) 
1.45563e-07

>  <r_epik_Ionization_Penalty_Charging>  (398) 
0

>  <r_epik_Ionization_Penalty_Neutral>  (398) 
1.45563e-07

>  <r_epik_State_Penalty>  (398) 
-0

>  <r_epik_Charging_Adjusted_Penalty>  (398) 
0

>  <i_epik_Tot_Q>  (398) 
0

>  <i_epik_Tot_abs_Q>  (398) 
0

>  <s_lp_Force_Field>  (398) 
OPLS3e

>  <r_lp_Energy>  (398) 
77.1146

>  <b_lp_Chiralities_Consistent>  (398) 
1

>  <s_lp_Variant>  (398) 
100:0-1

>  <s_i_glide_gridfile>  (398) 
pfpi4k_grid

>  <i_i_glide_lignum>  (398) 
26

>  <i_i_glide_rotatable_bonds>  (398) 
3

>  <r_i_docking_score>  (398) 
-2.53782

>  <r_i_glide_ligand_efficiency>  (398) 
-0.084594

>  <r_i_glide_ligand_efficiency_sa>  (398) 
-0.262853

>  <r_i_glide_ligand_efficiency_ln>  (398) 
-0.57662

>  <r_i_glide_gscore>  (398) 
-2.53782

>  <r_i_glide_lipo>  (398) 
-0.380693

>  <r_i_glide_hbond>  (398) 
0

>  <r_i_glide_metal>  (398) 
-0

>  <r_i_glide_rewards>  (398) 
-0.596464

>  <r_i_glide_evdw>  (398) 
-28.6949

>  <r_i_glide_ecoul>  (398) 
-1.27095

>  <r_i_glide_erotb>  (398) 
0.115881

>  <r_i_glide_esite>  (398) 
-0.0511554

>  <r_i_glide_emodel>  (398) 
-34.1002

>  <r_i_glide_energy>  (398) 
-29.9658

>  <r_i_glide_einternal>  (398) 
0.492655

>  <r_i_glide_intrahb_reward>  (398) 
-0

>  <i_i_glide_confnum>  (398) 
1

>  <i_i_glide_posenum>  (398) 
37

>  <r_i_glide_eff_state_penalty>  (398) 
0

>  <ligand_id>  (398) 
100

>  <original_smiles>  (398) 
CC12CCC3C(C)(C1=CCC2c1ccoc1)C(O)C1(C)C2OC24CC(O)C(O4)C31C

>  <smiles>  (398) 
[H]OC1([H])C([H])([H])C23OC2([H])C2(C([H])([H])[H])C([H])(O[H])C4(C([H])([H])[H])C5=C([H])C([H])([H])C([H])(c6c([H])oc([H])c6[H])C5(C([H])([H])[H])C([H])([H])C([H])([H])C4([H])C2(C([H])([H])[H])C1([H])O3

$$$$
100:0:2
     RDKit          3D

 62 68  0  0  1  0  0  0  0  0999 V2000
    3.1947   -1.8223    5.4697 C   0  0  0  0  0  0  0  0  0  0  0  0
    2.8609   -1.8085    3.9553 C   0  0  1  0  0  0  0  0  0  0  0  0
    1.4183   -2.2309    3.6615 C   0  0  0  0  0  0  0  0  0  0  0  0
    0.4399   -1.3095    4.3829 C   0  0  0  0  0  0  0  0  0  0  0  0
    0.5991    0.1970    4.0127 C   0  0  2  0  0  0  0  0  0  0  0  0
    2.0073    0.6808    3.5026 C   0  0  2  0  0  0  0  0  0  0  0  0
    1.8425    1.2605    2.0716 C   0  0  0  0  0  0  0  0  0  0  0  0
    3.0932   -0.4114    3.4310 C   0  0  0  0  0  0  0  0  0  0  0  0
    4.2689   -0.3419    2.7970 C   0  0  0  0  0  0  0  0  0  0  0  0
    5.0106   -1.6535    2.7859 C   0  0  0  0  0  0  0  0  0  0  0  0
    3.8845   -2.6494    3.1300 C   0  0  1  0  0  0  0  0  0  0  0  0
    4.3421   -3.9537    3.7490 C   0  0  0  0  0  0  0  0  0  0  0  0
    3.8843   -5.2484    3.3594 C   0  0  0  0  0  0  0  0  0  0  0  0
    4.5226   -6.1516    4.1569 C   0  0  0  0  0  0  0  0  0  0  0  0
    5.3547   -5.5155    5.0216 O   0  0  0  0  0  0  0  0  0  0  0  0
    5.2352   -4.1883    4.7581 C   0  0  0  0  0  0  0  0  0  0  0  0
    2.4074    1.7559    4.5342 C   0  0  1  0  0  0  0  0  0  0  0  0
    3.3512    2.7067    4.0793 O   0  0  0  0  0  0  0  0  0  0  0  0
    1.1385    2.4250    5.1117 C   0  0  1  0  0  0  0  0  0  0  0  0
    1.4933    2.9912    6.5131 C   0  0  0  0  0  0  0  0  0  0  0  0
    0.6193    3.6144    4.2857 C   0  0  2  0  0  0  0  0  0  0  0  0
    0.1257    4.8454    4.8966 O   0  0  0  0  0  0  0  0  0  0  0  0
   -0.8491    3.8946    4.5276 C   0  0  1  0  0  0  0  0  0  0  0  0
   -1.7665    3.8466    3.3817 C   0  0  0  0  0  0  0  0  0  0  0  0
   -1.9891    2.3386    3.4021 C   0  0  1  0  0  0  0  0  0  0  0  0
   -1.5100    1.7406    2.2227 O   0  0  0  0  0  0  0  0  0  0  0  0
   -1.4120    1.8142    4.7858 C   0  0  2  0  0  0  0  0  0  0  0  0
   -1.3864    3.0319    5.5065 O   0  0  0  0  0  0  0  0  0  0  0  0
    0.0586    1.2587    5.0653 C   0  0  1  0  0  0  0  0  0  0  0  0
   -0.0559    0.6164    6.4824 C   0  0  0  0  0  0  0  0  0  0  0  0
    2.9761   -2.7888    5.9296 H   0  0  0  0  0  0  0  0  0  0  0  0
    2.6474   -1.0559    6.0204 H   0  0  0  0  0  0  0  0  0  0  0  0
    4.2520   -1.5997    5.6300 H   0  0  0  0  0  0  0  0  0  0  0  0
    1.2216   -2.2196    2.5902 H   0  0  0  0  0  0  0  0  0  0  0  0
    1.2659   -3.2577    3.9865 H   0  0  0  0  0  0  0  0  0  0  0  0
   -0.5728   -1.6223    4.1364 H   0  0  0  0  0  0  0  0  0  0  0  0
    0.5458   -1.5234    5.4410 H   0  0  0  0  0  0  0  0  0  0  0  0
   -0.0360    0.2233    3.1401 H   0  0  0  0  0  0  0  0  0  0  0  0
    1.0432    1.9899    1.9941 H   0  0  0  0  0  0  0  0  0  0  0  0
    1.5963    0.4694    1.3595 H   0  0  0  0  0  0  0  0  0  0  0  0
    2.7450    1.7438    1.6990 H   0  0  0  0  0  0  0  0  0  0  0  0
    4.6612    0.5301    2.3018 H   0  0  0  0  0  0  0  0  0  0  0  0
    5.4887   -1.8755    1.8309 H   0  0  0  0  0  0  0  0  0  0  0  0
    5.7783   -1.6169    3.5613 H   0  0  0  0  0  0  0  0  0  0  0  0
    3.4175   -2.9065    2.1770 H   0  0  0  0  0  0  0  0  0  0  0  0
    3.1706   -5.4927    2.5856 H   0  0  0  0  0  0  0  0  0  0  0  0
    4.4984   -7.2308    4.2318 H   0  0  0  0  0  0  0  0  0  0  0  0
    5.8444   -3.5562    5.3824 H   0  0  0  0  0  0  0  0  0  0  0  0
    2.8930    1.2205    5.3538 H   0  0  0  0  0  0  0  0  0  0  0  0
    3.9213    2.3090    3.4333 H   0  0  0  0  0  0  0  0  0  0  0  0
    0.6224    3.3983    7.0252 H   0  0  0  0  0  0  0  0  0  0  0  0
    2.2074    3.8094    6.4207 H   0  0  0  0  0  0  0  0  0  0  0  0
    1.9435    2.2497    7.1691 H   0  0  0  0  0  0  0  0  0  0  0  0
    0.9879    3.7341    3.2691 H   0  0  0  0  0  0  0  0  0  0  0  0
   -2.6734    4.3976    3.6064 H   0  0  0  0  0  0  0  0  0  0  0  0
   -1.3236    4.2515    2.4867 H   0  0  0  0  0  0  0  0  0  0  0  0
   -3.0652    2.1732    3.4118 H   0  0  0  0  0  0  0  0  0  0  0  0
   -0.8005    2.2637    1.8698 H   0  0  0  0  0  0  0  0  0  0  0  0
   -2.1506    1.1454    5.2290 H   0  0  0  0  0  0  0  0  0  0  0  0
   -0.4113    1.3243    7.2321 H   0  0  0  0  0  0  0  0  0  0  0  0
    0.8961    0.2220    6.8367 H   0  0  0  0  0  0  0  0  0  0  0  0
   -0.7820   -0.1957    6.5033 H   0  0  0  0  0  0  0  0  0  0  0  0
  2  1  1  1
  1 31  1  0
  1 32  1  0
  1 33  1  0
  2  8  1  0
  2 11  1  0
  2  3  1  0
  3  4  1  0
  3 34  1  0
  3 35  1  0
  4  5  1  0
  4 36  1  0
  4 37  1  0
  5 29  1  0
  5  6  1  0
  5 38  1  6
  6  7  1  6
  6  8  1  0
  6 17  1  0
  7 39  1  0
  7 40  1  0
  7 41  1  0
  8  9  2  0
  9 10  1  0
  9 42  1  0
 10 11  1  0
 10 43  1  0
 10 44  1  0
 11 12  1  0
 11 45  1  6
 12 16  2  0
 12 13  1  0
 13 14  2  0
 13 46  1  0
 14 15  1  0
 14 47  1  0
 15 16  1  0
 16 48  1  0
 17 18  1  0
 17 19  1  0
 17 49  1  1
 18 50  1  0
 19 29  1  0
 19 20  1  1
 19 21  1  0
 20 51  1  0
 20 52  1  0
 20 53  1  0
 21 23  1  0
 21 22  1  0
 21 54  1  6
 23 22  1  1
 23 28  1  0
 23 24  1  0
 24 25  1  0
 24 55  1  0
 24 56  1  0
 25 26  1  0
 25 27  1  0
 25 57  1  1
 26 58  1  0
 27 28  1  0
 27 29  1  0
 27 59  1  1
 29 30  1  1
 30 60  1  0
 30 61  1  0
 30 62  1  0
M  END
>  <i_m_ct_stereo_status>  (399) 
1

>  <s_m_source_file>  (399) 
/var/tmp/pbs.5076255.sched01/tmpsabrbf27/138opeauupd.sdf

>  <i_m_source_file_index>  (399) 
26

>  <i_lp_mmshare_version>  (399) 
48012

>  <i_f3d_flags>  (399) 
0

>  <s_epik_input>  (399) 
W2NIXTFvW2NIXVtjSF1jMVtDQEhdKFtDSDJdW0NIXTIpW0NAXShbQ0gzXSkoW0NIMl1bQ0gyXTMpQz0yW0NAXShbQ0gzXSkoW0NASF00W09IXSlbQ0BASF0zW0NAQF0oW0NIM10pKFtDQF00KFtDSDNdKVtDQEhdKE81KVtDQEBdNTY3KVtDSF0oTzcpW0NAQEhdKFtDSDJdNilbT0hd

>  <s_epik_cmdline>  (399) 
J2VwaWtfcHl0aG9uJywgJy1waHQnLCAnMi4wJywgJy1waCcsICc3LjAnLCAnLXRuJywgJzgnLCAnLW1hJywgJzIwMCcsICctaW1hZScsICc8aW5maWxlLm1hZT4nLCAnLW9tYWUnLCAnPG91dGZpbGUubWFlPic=

>  <r_lp_tautomer_probability>  (399) 
1

>  <r_epik_Ionization_Penalty>  (399) 
1.45563e-07

>  <r_epik_Ionization_Penalty_Charging>  (399) 
0

>  <r_epik_Ionization_Penalty_Neutral>  (399) 
1.45563e-07

>  <r_epik_State_Penalty>  (399) 
-0

>  <r_epik_Charging_Adjusted_Penalty>  (399) 
0

>  <i_epik_Tot_Q>  (399) 
0

>  <i_epik_Tot_abs_Q>  (399) 
0

>  <s_lp_Force_Field>  (399) 
OPLS3e

>  <r_lp_Energy>  (399) 
77.1146

>  <b_lp_Chiralities_Consistent>  (399) 
1

>  <s_lp_Variant>  (399) 
100:0-1

>  <s_i_glide_gridfile>  (399) 
pfpi4k_grid

>  <i_i_glide_lignum>  (399) 
26

>  <i_i_glide_rotatable_bonds>  (399) 
3

>  <r_i_docking_score>  (399) 
-2.50487

>  <r_i_glide_ligand_efficiency>  (399) 
-0.0834956

>  <r_i_glide_ligand_efficiency_sa>  (399) 
-0.25944

>  <r_i_glide_ligand_efficiency_ln>  (399) 
-0.569133

>  <r_i_glide_gscore>  (399) 
-2.50487

>  <r_i_glide_lipo>  (399) 
-0.181639

>  <r_i_glide_hbond>  (399) 
-0.228459

>  <r_i_glide_metal>  (399) 
-0

>  <r_i_glide_rewards>  (399) 
-0.596464

>  <r_i_glide_evdw>  (399) 
-23.4284

>  <r_i_glide_ecoul>  (399) 
-2.65578

>  <r_i_glide_erotb>  (399) 
0.115881

>  <r_i_glide_esite>  (399) 
-0.0443997

>  <r_i_glide_emodel>  (399) 
-29.2018

>  <r_i_glide_energy>  (399) 
-26.0842

>  <r_i_glide_einternal>  (399) 
1.76248

>  <r_i_glide_intrahb_reward>  (399) 
-0

>  <i_i_glide_confnum>  (399) 
4

>  <i_i_glide_posenum>  (399) 
39

>  <r_i_glide_eff_state_penalty>  (399) 
0

>  <ligand_id>  (399) 
100

>  <original_smiles>  (399) 
CC12CCC3C(C)(C1=CCC2c1ccoc1)C(O)C1(C)C2OC24CC(O)C(O4)C31C

>  <smiles>  (399) 
[H]OC1([H])C([H])([H])C23OC2([H])C2(C([H])([H])[H])C([H])(O[H])C4(C([H])([H])[H])C5=C([H])C([H])([H])C([H])(c6c([H])oc([H])c6[H])C5(C([H])([H])[H])C([H])([H])C([H])([H])C4([H])C2(C([H])([H])[H])C1([H])O3

$$$$
101:0:0
     RDKit          3D

 35 36  0  0  1  0  0  0  0  0999 V2000
    4.1029   -0.3859   -2.8099 C   0  0  0  0  0  0  0  0  0  0  0  0
    3.7734   -1.3051   -4.0216 C   0  0  0  0  0  0  0  0  0  0  0  0
    3.6237   -2.8335   -3.7531 C   0  0  0  0  0  0  0  0  0  0  0  0
    2.4406   -3.2150   -2.8344 C   0  0  0  0  0  0  0  0  0  0  0  0
    2.6438   -2.9984   -1.4123 N   0  0  0  0  0  0  0  0  0  0  0  0
    3.7181   -3.5999   -0.7179 C   0  0  0  0  0  0  0  0  0  0  0  0
    5.0329   -3.1229   -0.9110 C   0  0  0  0  0  0  0  0  0  0  0  0
    6.1092   -3.6857   -0.1794 C   0  0  0  0  0  0  0  0  0  0  0  0
    7.4079   -3.2505   -0.3337 O   0  0  0  0  0  0  0  0  0  0  0  0
    7.8125   -2.9316   -1.6663 C   0  0  0  0  0  0  0  0  0  0  0  0
    5.8771   -4.7287    0.7566 C   0  0  0  0  0  0  0  0  0  0  0  0
    4.5716   -5.2271    0.9104 C   0  0  0  0  0  0  0  0  0  0  0  0
    4.3383   -6.3014    1.7850 C   0  0  0  0  0  0  0  0  0  0  0  0
    3.0331   -6.7964    1.9241 C   0  0  0  0  0  0  0  0  0  0  0  0
    1.9931   -6.1907    1.1978 C   0  0  0  0  0  0  0  0  0  0  0  0
    2.2092   -5.1545    0.3720 N   0  0  0  0  0  0  0  0  0  0  0  0
    3.4663   -4.6732    0.1949 C   0  0  0  0  0  0  0  0  0  0  0  0
    3.9945    0.6817   -3.1025 H   0  0  0  0  0  0  0  0  0  0  0  0
    5.0913   -0.5521   -2.4131 H   0  0  0  0  0  0  0  0  0  0  0  0
    3.3623   -0.5863   -2.0262 H   0  0  0  0  0  0  0  0  0  0  0  0
    2.8639   -0.9744   -4.5248 H   0  0  0  0  0  0  0  0  0  0  0  0
    4.5812   -1.1815   -4.7371 H   0  0  0  0  0  0  0  0  0  0  0  0
    3.4303   -3.3210   -4.7123 H   0  0  0  0  0  0  0  0  0  0  0  0
    4.5550   -3.3111   -3.4383 H   0  0  0  0  0  0  0  0  0  0  0  0
    1.5550   -2.6639   -3.1481 H   0  0  0  0  0  0  0  0  0  0  0  0
    2.1529   -4.2653   -2.9760 H   0  0  0  0  0  0  0  0  0  0  0  0
    1.9707   -2.3846   -0.9566 H   0  0  0  0  0  0  0  0  0  0  0  0
    5.1626   -2.2904   -1.5727 H   0  0  0  0  0  0  0  0  0  0  0  0
    8.7884   -2.4451   -1.6896 H   0  0  0  0  0  0  0  0  0  0  0  0
    7.1599   -2.2747   -2.2378 H   0  0  0  0  0  0  0  0  0  0  0  0
    7.8921   -3.8579   -2.2247 H   0  0  0  0  0  0  0  0  0  0  0  0
    6.7329   -5.1282    1.3003 H   0  0  0  0  0  0  0  0  0  0  0  0
    5.1877   -6.7251    2.3215 H   0  0  0  0  0  0  0  0  0  0  0  0
    2.8367   -7.6258    2.5824 H   0  0  0  0  0  0  0  0  0  0  0  0
    0.9667   -6.5457    1.2693 H   0  0  0  0  0  0  0  0  0  0  0  0
  1  2  1  0
  1 18  1  0
  1 19  1  0
  1 20  1  0
  2  3  1  0
  2 21  1  0
  2 22  1  0
  3  4  1  0
  3 23  1  0
  3 24  1  0
  4  5  1  0
  4 25  1  0
  4 26  1  0
  5  6  1  0
  5 27  1  0
  6 17  2  0
  6  7  1  0
  7  8  2  0
  7 28  1  0
  8  9  1  0
  8 11  1  0
  9 10  1  0
 10 29  1  0
 10 30  1  0
 10 31  1  0
 11 12  2  0
 11 32  1  0
 12 17  1  0
 12 13  1  0
 13 14  2  0
 13 33  1  0
 14 15  1  0
 14 34  1  0
 15 16  2  0
 15 35  1  0
 16 17  1  0
M  END
>  <i_m_ct_stereo_status>  (400) 
1

>  <s_m_source_file>  (400) 
/var/tmp/pbs.5076255.sched01/tmpsabrbf27/138opeauupd.sdf

>  <i_m_source_file_index>  (400) 
27

>  <i_lp_mmshare_version>  (400) 
48012

>  <i_f3d_flags>  (400) 
0

>  <s_epik_input>  (400) 
W0NIM11bQ0gyXVtDSDJdW0NIMl1bTkhdYyhbY0hdYyhbY0hdMSlPW0NIM10pYyhjMTIpbltjSF1bY0hdW2NIXTI=

>  <s_epik_cmdline>  (400) 
J2VwaWtfcHl0aG9uJywgJy1waHQnLCAnMi4wJywgJy1waCcsICc3LjAnLCAnLXRuJywgJzgnLCAnLW1hJywgJzIwMCcsICctaW1hZScsICc8aW5maWxlLm1hZT4nLCAnLW9tYWUnLCAnPG91dGZpbGUubWFlPic=

>  <r_epik_Ionization_Penalty>  (400) 
0.000377889

>  <r_epik_Ionization_Penalty_Charging>  (400) 
0

>  <r_epik_Ionization_Penalty_Neutral>  (400) 
0.000377889

>  <r_epik_State_Penalty>  (400) 
0.000185226

>  <r_epik_Charging_Adjusted_Penalty>  (400) 
0.000185226

>  <i_epik_Tot_Q>  (400) 
0

>  <i_epik_Tot_abs_Q>  (400) 
0

>  <s_lp_Force_Field>  (400) 
OPLS3e

>  <r_lp_Energy>  (400) 
29.2749

>  <b_lp_Chiralities_Consistent>  (400) 
1

>  <s_lp_Variant>  (400) 
101:0-1

>  <s_i_glide_gridfile>  (400) 
pfpi4k_grid

>  <i_i_glide_lignum>  (400) 
27

>  <i_i_glide_rotatable_bonds>  (400) 
5

>  <r_i_docking_score>  (400) 
-3.40405

>  <r_i_glide_ligand_efficiency>  (400) 
-0.200238

>  <r_i_glide_ligand_efficiency_sa>  (400) 
-0.514868

>  <r_i_glide_ligand_efficiency_ln>  (400) 
-0.88804

>  <r_i_glide_gscore>  (400) 
-3.40405

>  <r_i_glide_lipo>  (400) 
-0.892501

>  <r_i_glide_hbond>  (400) 
-0.175822

>  <r_i_glide_metal>  (400) 
-0

>  <r_i_glide_rewards>  (400) 
-1.83883

>  <r_i_glide_evdw>  (400) 
-22.6032

>  <r_i_glide_ecoul>  (400) 
-2.14904

>  <r_i_glide_erotb>  (400) 
0.9662

>  <r_i_glide_esite>  (400) 
-0.0105835

>  <r_i_glide_emodel>  (400) 
-20.2067

>  <r_i_glide_energy>  (400) 
-24.7522

>  <r_i_glide_einternal>  (400) 
15.5008

>  <r_i_glide_intrahb_reward>  (400) 
-0

>  <i_i_glide_confnum>  (400) 
3

>  <i_i_glide_posenum>  (400) 
31

>  <r_i_glide_eff_state_penalty>  (400) 
0

>  <ligand_id>  (400) 
101

>  <original_smiles>  (400) 
CCCCNc1cc(OC)cc2cccnc12

>  <smiles>  (400) 
[H]c1nc2c(N([H])C([H])([H])C([H])([H])C([H])([H])C([H])([H])[H])c([H])c(OC([H])([H])[H])c([H])c2c([H])c1[H]

$$$$
101:0:1
     RDKit          3D

 35 36  0  0  1  0  0  0  0  0999 V2000
    3.7177    0.8038   -4.5700 C   0  0  0  0  0  0  0  0  0  0  0  0
    2.9626   -0.4206   -4.0553 C   0  0  0  0  0  0  0  0  0  0  0  0
    3.9104   -1.5860   -3.8332 C   0  0  0  0  0  0  0  0  0  0  0  0
    3.2142   -2.8939   -3.3555 C   0  0  0  0  0  0  0  0  0  0  0  0
    2.9389   -2.9395   -1.9223 N   0  0  0  0  0  0  0  0  0  0  0  0
    3.8891   -3.4533   -1.0092 C   0  0  0  0  0  0  0  0  0  0  0  0
    5.2185   -2.9791   -1.0737 C   0  0  0  0  0  0  0  0  0  0  0  0
    6.2071   -3.3601   -0.1446 C   0  0  0  0  0  0  0  0  0  0  0  0
    7.4887   -2.8636   -0.1906 O   0  0  0  0  0  0  0  0  0  0  0  0
    8.0638   -2.7837   -1.4908 C   0  0  0  0  0  0  0  0  0  0  0  0
    5.8507   -4.2261    0.9015 C   0  0  0  0  0  0  0  0  0  0  0  0
    4.5430   -4.7566    0.9572 C   0  0  0  0  0  0  0  0  0  0  0  0
    4.2331   -5.6726    1.9715 C   0  0  0  0  0  0  0  0  0  0  0  0
    2.9321   -6.2230    2.0180 C   0  0  0  0  0  0  0  0  0  0  0  0
    2.0085   -5.8128    1.0448 C   0  0  0  0  0  0  0  0  0  0  0  0
    2.2862   -4.9034    0.0883 N   0  0  0  0  0  0  0  0  0  0  0  0
    3.5442   -4.3782    0.0088 C   0  0  0  0  0  0  0  0  0  0  0  0
    3.0317    1.6328   -4.7292 H   0  0  0  0  0  0  0  0  0  0  0  0
    4.2129    0.5836   -5.5160 H   0  0  0  0  0  0  0  0  0  0  0  0
    4.4642    1.1517   -3.8495 H   0  0  0  0  0  0  0  0  0  0  0  0
    2.5094   -0.1817   -3.0973 H   0  0  0  0  0  0  0  0  0  0  0  0
    2.1724   -0.6930   -4.7468 H   0  0  0  0  0  0  0  0  0  0  0  0
    4.4628   -1.7944   -4.7510 H   0  0  0  0  0  0  0  0  0  0  0  0
    4.6281   -1.1679   -3.1311 H   0  0  0  0  0  0  0  0  0  0  0  0
    2.2751   -3.0237   -3.8973 H   0  0  0  0  0  0  0  0  0  0  0  0
    3.7992   -3.7703   -3.6350 H   0  0  0  0  0  0  0  0  0  0  0  0
    1.9639   -3.0057   -1.6569 H   0  0  0  0  0  0  0  0  0  0  0  0
    5.4952   -2.2402   -1.7973 H   0  0  0  0  0  0  0  0  0  0  0  0
    9.0104   -2.2564   -1.4349 H   0  0  0  0  0  0  0  0  0  0  0  0
    7.5019   -2.2519   -2.2566 H   0  0  0  0  0  0  0  0  0  0  0  0
    8.2477   -3.7918   -1.8486 H   0  0  0  0  0  0  0  0  0  0  0  0
    6.6076   -4.4879    1.6307 H   0  0  0  0  0  0  0  0  0  0  0  0
    4.9816   -5.9653    2.6982 H   0  0  0  0  0  0  0  0  0  0  0  0
    2.6688   -6.9384    2.7886 H   0  0  0  0  0  0  0  0  0  0  0  0
    1.0025   -6.2219    1.0605 H   0  0  0  0  0  0  0  0  0  0  0  0
  1  2  1  0
  1 18  1  0
  1 19  1  0
  1 20  1  0
  2  3  1  0
  2 21  1  0
  2 22  1  0
  3  4  1  0
  3 23  1  0
  3 24  1  0
  4  5  1  0
  4 25  1  0
  4 26  1  0
  5  6  1  0
  5 27  1  0
  6 17  2  0
  6  7  1  0
  7  8  2  0
  7 28  1  0
  8  9  1  0
  8 11  1  0
  9 10  1  0
 10 29  1  0
 10 30  1  0
 10 31  1  0
 11 12  2  0
 11 32  1  0
 12 17  1  0
 12 13  1  0
 13 14  2  0
 13 33  1  0
 14 15  1  0
 14 34  1  0
 15 16  2  0
 15 35  1  0
 16 17  1  0
M  END
>  <i_m_ct_stereo_status>  (401) 
1

>  <s_m_source_file>  (401) 
/var/tmp/pbs.5076255.sched01/tmpsabrbf27/138opeauupd.sdf

>  <i_m_source_file_index>  (401) 
27

>  <i_lp_mmshare_version>  (401) 
48012

>  <i_f3d_flags>  (401) 
0

>  <s_epik_input>  (401) 
W0NIM11bQ0gyXVtDSDJdW0NIMl1bTkhdYyhbY0hdYyhbY0hdMSlPW0NIM10pYyhjMTIpbltjSF1bY0hdW2NIXTI=

>  <s_epik_cmdline>  (401) 
J2VwaWtfcHl0aG9uJywgJy1waHQnLCAnMi4wJywgJy1waCcsICc3LjAnLCAnLXRuJywgJzgnLCAnLW1hJywgJzIwMCcsICctaW1hZScsICc8aW5maWxlLm1hZT4nLCAnLW9tYWUnLCAnPG91dGZpbGUubWFlPic=

>  <r_epik_Ionization_Penalty>  (401) 
0.000377889

>  <r_epik_Ionization_Penalty_Charging>  (401) 
0

>  <r_epik_Ionization_Penalty_Neutral>  (401) 
0.000377889

>  <r_epik_State_Penalty>  (401) 
0.000185226

>  <r_epik_Charging_Adjusted_Penalty>  (401) 
0.000185226

>  <i_epik_Tot_Q>  (401) 
0

>  <i_epik_Tot_abs_Q>  (401) 
0

>  <s_lp_Force_Field>  (401) 
OPLS3e

>  <r_lp_Energy>  (401) 
29.2749

>  <b_lp_Chiralities_Consistent>  (401) 
1

>  <s_lp_Variant>  (401) 
101:0-1

>  <s_i_glide_gridfile>  (401) 
pfpi4k_grid

>  <i_i_glide_lignum>  (401) 
27

>  <i_i_glide_rotatable_bonds>  (401) 
5

>  <r_i_docking_score>  (401) 
-2.64913

>  <r_i_glide_ligand_efficiency>  (401) 
-0.155831

>  <r_i_glide_ligand_efficiency_sa>  (401) 
-0.400686

>  <r_i_glide_ligand_efficiency_ln>  (401) 
-0.6911

>  <r_i_glide_gscore>  (401) 
-2.64913

>  <r_i_glide_lipo>  (401) 
-0.784378

>  <r_i_glide_hbond>  (401) 
-0.000120281

>  <r_i_glide_metal>  (401) 
-0

>  <r_i_glide_rewards>  (401) 
-1.83883

>  <r_i_glide_evdw>  (401) 
-24.1587

>  <r_i_glide_ecoul>  (401) 
1.53255

>  <r_i_glide_erotb>  (401) 
0.9662

>  <r_i_glide_esite>  (401) 
-0.0139548

>  <r_i_glide_emodel>  (401) 
-20.5832

>  <r_i_glide_energy>  (401) 
-22.6262

>  <r_i_glide_einternal>  (401) 
11.246

>  <r_i_glide_intrahb_reward>  (401) 
-0

>  <i_i_glide_confnum>  (401) 
3

>  <i_i_glide_posenum>  (401) 
3

>  <r_i_glide_eff_state_penalty>  (401) 
0

>  <ligand_id>  (401) 
101

>  <original_smiles>  (401) 
CCCCNc1cc(OC)cc2cccnc12

>  <smiles>  (401) 
[H]c1nc2c(N([H])C([H])([H])C([H])([H])C([H])([H])C([H])([H])[H])c([H])c(OC([H])([H])[H])c([H])c2c([H])c1[H]

$$$$
101:0:2
     RDKit          3D

 35 36  0  0  1  0  0  0  0  0999 V2000
   -5.3838    5.0714    1.8374 C   0  0  0  0  0  0  0  0  0  0  0  0
   -4.9049    3.7703    2.4775 C   0  0  0  0  0  0  0  0  0  0  0  0
   -3.3961    3.5276    2.3117 C   0  0  0  0  0  0  0  0  0  0  0  0
   -2.7253    2.8894    3.5355 C   0  0  0  0  0  0  0  0  0  0  0  0
   -1.3467    2.4588    3.2686 N   0  0  0  0  0  0  0  0  0  0  0  0
   -0.7805    1.2663    3.7804 C   0  0  0  0  0  0  0  0  0  0  0  0
   -1.5537    0.3433    4.5224 C   0  0  0  0  0  0  0  0  0  0  0  0
   -1.0146   -0.8588    5.0264 C   0  0  0  0  0  0  0  0  0  0  0  0
   -1.8892   -1.6712    5.7003 O   0  0  0  0  0  0  0  0  0  0  0  0
   -1.3782   -2.8255    6.3500 C   0  0  0  0  0  0  0  0  0  0  0  0
    0.3540   -1.1471    4.7998 C   0  0  0  0  0  0  0  0  0  0  0  0
    1.1360   -0.2346    4.0656 C   0  0  0  0  0  0  0  0  0  0  0  0
    2.4903   -0.5422    3.8510 C   0  0  0  0  0  0  0  0  0  0  0  0
    3.2783    0.3740    3.1190 C   0  0  0  0  0  0  0  0  0  0  0  0
    2.6536    1.5480    2.6446 C   0  0  0  0  0  0  0  0  0  0  0  0
    1.3598    1.8313    2.8539 N   0  0  0  0  0  0  0  0  0  0  0  0
    0.5911    0.9733    3.5434 C   0  0  0  0  0  0  0  0  0  0  0  0
   -6.4582    5.1846    1.9889 H   0  0  0  0  0  0  0  0  0  0  0  0
   -5.1866    5.0835    0.7646 H   0  0  0  0  0  0  0  0  0  0  0  0
   -4.8894    5.9296    2.2930 H   0  0  0  0  0  0  0  0  0  0  0  0
   -5.2085    3.7443    3.5168 H   0  0  0  0  0  0  0  0  0  0  0  0
   -5.4336    2.9312    2.0230 H   0  0  0  0  0  0  0  0  0  0  0  0
   -3.3358    2.8399    1.4690 H   0  0  0  0  0  0  0  0  0  0  0  0
   -2.8627    4.4529    2.0791 H   0  0  0  0  0  0  0  0  0  0  0  0
   -2.7099    3.5920    4.3693 H   0  0  0  0  0  0  0  0  0  0  0  0
   -3.3752    2.0835    3.8182 H   0  0  0  0  0  0  0  0  0  0  0  0
   -0.7274    3.0574    2.7219 H   0  0  0  0  0  0  0  0  0  0  0  0
   -2.5816    0.5060    4.7287 H   0  0  0  0  0  0  0  0  0  0  0  0
   -2.2017   -3.3417    6.8508 H   0  0  0  0  0  0  0  0  0  0  0  0
   -0.6373   -2.5609    7.1061 H   0  0  0  0  0  0  0  0  0  0  0  0
   -0.9392   -3.5193    5.6369 H   0  0  0  0  0  0  0  0  0  0  0  0
    0.8011   -2.0501    5.1749 H   0  0  0  0  0  0  0  0  0  0  0  0
    2.9341   -1.4433    4.2360 H   0  0  0  0  0  0  0  0  0  0  0  0
    4.3206    0.1862    2.9374 H   0  0  0  0  0  0  0  0  0  0  0  0
    3.2328    2.2788    2.1073 H   0  0  0  0  0  0  0  0  0  0  0  0
  1  2  1  0
  1 18  1  0
  1 19  1  0
  1 20  1  0
  2  3  1  0
  2 21  1  0
  2 22  1  0
  3  4  1  0
  3 23  1  0
  3 24  1  0
  4  5  1  0
  4 25  1  0
  4 26  1  0
  5  6  1  0
  5 27  1  0
  6 17  2  0
  6  7  1  0
  7  8  2  0
  7 28  1  0
  8  9  1  0
  8 11  1  0
  9 10  1  0
 10 29  1  0
 10 30  1  0
 10 31  1  0
 11 12  2  0
 11 32  1  0
 12 17  1  0
 12 13  1  0
 13 14  2  0
 13 33  1  0
 14 15  1  0
 14 34  1  0
 15 16  2  0
 15 35  1  0
 16 17  1  0
M  END
>  <i_m_ct_stereo_status>  (402) 
1

>  <s_m_source_file>  (402) 
/var/tmp/pbs.5076255.sched01/tmpsabrbf27/138opeauupd.sdf

>  <i_m_source_file_index>  (402) 
27

>  <i_lp_mmshare_version>  (402) 
48012

>  <i_f3d_flags>  (402) 
0

>  <s_epik_input>  (402) 
W0NIM11bQ0gyXVtDSDJdW0NIMl1bTkhdYyhbY0hdYyhbY0hdMSlPW0NIM10pYyhjMTIpbltjSF1bY0hdW2NIXTI=

>  <s_epik_cmdline>  (402) 
J2VwaWtfcHl0aG9uJywgJy1waHQnLCAnMi4wJywgJy1waCcsICc3LjAnLCAnLXRuJywgJzgnLCAnLW1hJywgJzIwMCcsICctaW1hZScsICc8aW5maWxlLm1hZT4nLCAnLW9tYWUnLCAnPG91dGZpbGUubWFlPic=

>  <r_epik_Ionization_Penalty>  (402) 
0.000377889

>  <r_epik_Ionization_Penalty_Charging>  (402) 
0

>  <r_epik_Ionization_Penalty_Neutral>  (402) 
0.000377889

>  <r_epik_State_Penalty>  (402) 
0.000185226

>  <r_epik_Charging_Adjusted_Penalty>  (402) 
0.000185226

>  <i_epik_Tot_Q>  (402) 
0

>  <i_epik_Tot_abs_Q>  (402) 
0

>  <s_lp_Force_Field>  (402) 
OPLS3e

>  <r_lp_Energy>  (402) 
29.2749

>  <b_lp_Chiralities_Consistent>  (402) 
1

>  <s_lp_Variant>  (402) 
101:0-1

>  <s_i_glide_gridfile>  (402) 
pfpi4k_grid

>  <i_i_glide_lignum>  (402) 
27

>  <i_i_glide_rotatable_bonds>  (402) 
5

>  <r_i_docking_score>  (402) 
-2.26129

>  <r_i_glide_ligand_efficiency>  (402) 
-0.133017

>  <r_i_glide_ligand_efficiency_sa>  (402) 
-0.342024

>  <r_i_glide_ligand_efficiency_ln>  (402) 
-0.589919

>  <r_i_glide_gscore>  (402) 
-2.26129

>  <r_i_glide_lipo>  (402) 
-0.330119

>  <r_i_glide_hbond>  (402) 
-0.000197864

>  <r_i_glide_metal>  (402) 
-0

>  <r_i_glide_rewards>  (402) 
-1.83883

>  <r_i_glide_evdw>  (402) 
-17.3235

>  <r_i_glide_ecoul>  (402) 
-0.966637

>  <r_i_glide_erotb>  (402) 
0.9662

>  <r_i_glide_esite>  (402) 
-0.0471707

>  <r_i_glide_emodel>  (402) 
-19.7562

>  <r_i_glide_energy>  (402) 
-18.2902

>  <r_i_glide_einternal>  (402) 
3.15072

>  <r_i_glide_intrahb_reward>  (402) 
-0

>  <i_i_glide_confnum>  (402) 
4

>  <i_i_glide_posenum>  (402) 
24

>  <r_i_glide_eff_state_penalty>  (402) 
0

>  <ligand_id>  (402) 
101

>  <original_smiles>  (402) 
CCCCNc1cc(OC)cc2cccnc12

>  <smiles>  (402) 
[H]c1nc2c(N([H])C([H])([H])C([H])([H])C([H])([H])C([H])([H])[H])c([H])c(OC([H])([H])[H])c([H])c2c([H])c1[H]

$$$$
102:0:0
     RDKit          3D

 44 50  0  0  1  0  0  0  0  0999 V2000
    4.8077   -3.2250    5.1060 O   0  0  0  0  0  0  0  0  0  0  0  0
    5.0005   -2.7612    3.9834 C   0  0  0  0  0  0  0  0  0  0  0  0
    4.9679   -1.2832    3.7635 C   0  0  0  0  0  0  0  0  0  0  0  0
    4.6392   -0.5764    2.6466 C   0  0  0  0  0  0  0  0  0  0  0  0
    4.1291   -1.0240    1.2631 C   0  0  1  0  0  0  0  0  0  0  0  0
    3.0813   -0.1503    0.8904 O   0  0  0  0  0  0  0  0  0  0  0  0
    5.2854   -0.9422    0.2006 C   0  0  1  0  0  0  0  0  0  0  0  0
    6.4290   -1.8498    0.6551 C   0  0  0  0  0  0  0  0  0  0  0  0
    5.7740   -3.1975    0.3734 C   0  0  2  0  0  0  0  0  0  0  0  0
    5.2233   -2.9532   -1.0275 C   0  0  0  0  0  0  0  0  0  0  0  0
    5.0508   -3.8503   -2.0845 C   0  0  0  0  0  0  0  0  0  0  0  0
    4.5466   -3.1917   -3.2394 C   0  0  0  0  0  0  0  0  0  0  0  0
    4.2650   -1.8589   -3.3484 N   0  0  0  0  0  0  0  0  0  0  0  0
    4.4288   -1.0077   -2.2978 C   0  0  0  0  0  0  0  0  0  0  0  0
    4.9298   -1.5913   -1.1283 C   0  0  0  0  0  0  0  0  0  0  0  0
    4.6818   -3.4516    1.4856 C   0  0  1  0  0  0  0  0  0  0  0  0
    3.8793   -4.6625    1.3194 C   0  0  0  0  0  0  0  0  0  0  0  0
    2.7221   -4.5635    0.5853 C   0  0  0  0  0  0  0  0  0  0  0  0
    1.9188   -5.7243    0.5275 C   0  0  0  0  0  0  0  0  0  0  0  0
    2.3268   -6.8587    1.2892 C   0  0  0  0  0  0  0  0  0  0  0  0
    3.4282   -6.7918    2.1921 C   0  0  0  0  0  0  0  0  0  0  0  0
    3.7127   -7.8466    3.0095 O   0  0  0  0  0  0  0  0  0  0  0  0
    4.2063   -5.6115    2.2501 C   0  0  0  0  0  0  0  0  0  0  0  0
    5.1051   -5.1403    3.1761 O   0  0  0  0  0  0  0  0  0  0  0  0
    5.3592   -3.7441    2.8450 C   0  0  2  0  0  0  0  0  0  0  0  0
    2.5434   -3.0599    0.3747 C   0  0  0  0  0  0  0  0  0  0  0  0
    3.5405   -2.4340    1.3993 C   0  0  2  0  0  0  0  0  0  0  0  0
    5.2442   -0.6938    4.6314 H   0  0  0  0  0  0  0  0  0  0  0  0
    4.6927    0.4980    2.7431 H   0  0  0  0  0  0  0  0  0  0  0  0
    2.4746   -0.5856    0.2981 H   0  0  0  0  0  0  0  0  0  0  0  0
    5.6364    0.0811    0.0690 H   0  0  0  0  0  0  0  0  0  0  0  0
    7.2959   -1.7182    0.0135 H   0  0  0  0  0  0  0  0  0  0  0  0
    6.7798   -1.6989    1.6737 H   0  0  0  0  0  0  0  0  0  0  0  0
    6.5062   -4.0027    0.3563 H   0  0  0  0  0  0  0  0  0  0  0  0
    5.2667   -4.9103   -2.0428 H   0  0  0  0  0  0  0  0  0  0  0  0
    4.3702   -3.7648   -4.1365 H   0  0  0  0  0  0  0  0  0  0  0  0
    4.2158    0.0466   -2.4206 H   0  0  0  0  0  0  0  0  0  0  0  0
    1.0015   -5.7425   -0.0330 H   0  0  0  0  0  0  0  0  0  0  0  0
    1.7348   -7.7604    1.2406 H   0  0  0  0  0  0  0  0  0  0  0  0
    3.1633   -8.6047    2.8645 H   0  0  0  0  0  0  0  0  0  0  0  0
    6.4324   -3.6879    2.7003 H   0  0  0  0  0  0  0  0  0  0  0  0
    2.7029   -2.8152   -0.6699 H   0  0  0  0  0  0  0  0  0  0  0  0
    1.5559   -2.6871    0.6229 H   0  0  0  0  0  0  0  0  0  0  0  0
    2.9544   -2.4479    2.3210 H   0  0  0  0  0  0  0  0  0  0  0  0
  1  2  2  0
  2 25  1  0
  2  3  1  0
  3  4  2  0
  3 28  1  0
  4  5  1  0
  4 29  1  0
  5 27  1  0
  5  6  1  6
  5  7  1  0
  6 30  1  0
  7 15  1  0
  7  8  1  0
  7 31  1  6
  8  9  1  0
  8 32  1  0
  8 33  1  0
  9 10  1  0
  9 16  1  0
  9 34  1  6
 10 15  2  0
 10 11  1  0
 11 12  2  0
 11 35  1  0
 12 13  1  0
 12 36  1  0
 13 14  2  0
 14 15  1  0
 14 37  1  0
 16 25  1  0
 16 27  1  0
 16 17  1  6
 17 23  2  0
 17 18  1  0
 18 19  2  0
 18 26  1  0
 19 20  1  0
 19 38  1  0
 20 21  2  0
 20 39  1  0
 21 22  1  0
 21 23  1  0
 22 40  1  0
 23 24  1  0
 24 25  1  0
 25 41  1  6
 26 27  1  0
 26 42  1  0
 26 43  1  0
 27 44  1  1
M  END
>  <i_m_ct_stereo_status>  (403) 
1

>  <s_m_source_file>  (403) 
/var/tmp/pbs.5076255.sched01/tmpsabrbf27/138opeauupd.sdf

>  <i_m_source_file_index>  (403) 
28

>  <i_lp_mmshare_version>  (403) 
48012

>  <i_f3d_flags>  (403) 
0

>  <s_epik_input>  (403) 
W0NIXTE9W0NIXUMoPU8pW0NASF0yT2MoYyhbT0hdKVtjSF1bY0hdMyljNGMzW0NIMl1bQ0BASF01W0NAXTEoW09IXSlbQ0BASF0oW0NIMl02KWMoYzdbQ0BASF02W0NAXTI0NSlbY0hdbltjSF1bY0hdNw==

>  <s_epik_cmdline>  (403) 
J2VwaWtfcHl0aG9uJywgJy1waHQnLCAnMi4wJywgJy1waCcsICc3LjAnLCAnLXRuJywgJzgnLCAnLW1hJywgJzIwMCcsICctaW1hZScsICc8aW5maWxlLm1hZT4nLCAnLW9tYWUnLCAnPG91dGZpbGUubWFlPic=

>  <r_lp_tautomer_probability>  (403) 
1

>  <r_epik_Ionization_Penalty>  (403) 
0.30682

>  <r_epik_Ionization_Penalty_Charging>  (403) 
0

>  <r_epik_Ionization_Penalty_Neutral>  (403) 
0.30682

>  <r_epik_State_Penalty>  (403) 
0.276702

>  <r_epik_Charging_Adjusted_Penalty>  (403) 
0.276702

>  <i_epik_Tot_Q>  (403) 
0

>  <i_epik_Tot_abs_Q>  (403) 
0

>  <s_lp_Force_Field>  (403) 
OPLS3e

>  <r_lp_Energy>  (403) 
86.0495

>  <b_lp_Chiralities_Consistent>  (403) 
1

>  <s_lp_Variant>  (403) 
102:0-1

>  <s_i_glide_gridfile>  (403) 
pfpi4k_grid

>  <i_i_glide_lignum>  (403) 
28

>  <i_i_glide_rotatable_bonds>  (403) 
2

>  <r_i_docking_score>  (403) 
-3.52166

>  <r_i_glide_ligand_efficiency>  (403) 
-0.130432

>  <r_i_glide_ligand_efficiency_sa>  (403) 
-0.391295

>  <r_i_glide_ligand_efficiency_ln>  (403) 
-0.819784

>  <r_i_glide_gscore>  (403) 
-3.52166

>  <r_i_glide_lipo>  (403) 
-0.635783

>  <r_i_glide_hbond>  (403) 
-0.132848

>  <r_i_glide_metal>  (403) 
-0

>  <r_i_glide_rewards>  (403) 
-1.0179

>  <r_i_glide_evdw>  (403) 
-25.6966

>  <r_i_glide_ecoul>  (403) 
-3.002

>  <r_i_glide_erotb>  (403) 
0

>  <r_i_glide_esite>  (403) 
0

>  <r_i_glide_emodel>  (403) 
-34.2536

>  <r_i_glide_energy>  (403) 
-28.6986

>  <r_i_glide_einternal>  (403) 
0.442623

>  <r_i_glide_intrahb_reward>  (403) 
-0

>  <i_i_glide_confnum>  (403) 
1

>  <i_i_glide_posenum>  (403) 
38

>  <r_i_glide_eff_state_penalty>  (403) 
0

>  <ligand_id>  (403) 
102

>  <original_smiles>  (403) 
O=C1C=CC2(O)C3CC(c4ccncc43)C34c5c(ccc(O)c5OC13)CC24

>  <smiles>  (403) 
[H]Oc1c([H])c([H])c2c3c1OC1([H])C(=O)C([H])=C([H])C4(O[H])C5([H])c6c([H])nc([H])c([H])c6C([H])(C5([H])[H])C31C4([H])C2([H])[H]

$$$$
102:0:1
     RDKit          3D

 44 50  0  0  1  0  0  0  0  0999 V2000
    4.8103   -3.2275    5.0992 O   0  0  0  0  0  0  0  0  0  0  0  0
    5.0012   -2.7615    3.9767 C   0  0  0  0  0  0  0  0  0  0  0  0
    4.9666   -1.2829    3.7572 C   0  0  0  0  0  0  0  0  0  0  0  0
    4.6337   -0.5756    2.6422 C   0  0  0  0  0  0  0  0  0  0  0  0
    4.1199   -1.0231    1.2601 C   0  0  1  0  0  0  0  0  0  0  0  0
    3.0709   -0.1498    0.8894 O   0  0  0  0  0  0  0  0  0  0  0  0
    5.2733   -0.9400    0.1953 C   0  0  1  0  0  0  0  0  0  0  0  0
    6.4192   -1.8470    0.6443 C   0  0  0  0  0  0  0  0  0  0  0  0
    5.7648   -3.1946    0.3641 C   0  0  2  0  0  0  0  0  0  0  0  0
    5.2092   -2.9503   -1.0348 C   0  0  0  0  0  0  0  0  0  0  0  0
    5.0338   -3.8469   -2.0912 C   0  0  0  0  0  0  0  0  0  0  0  0
    4.5256   -3.1883   -3.2450 C   0  0  0  0  0  0  0  0  0  0  0  0
    4.2434   -1.8566   -3.3528 N   0  0  0  0  0  0  0  0  0  0  0  0
    4.4112   -1.0056   -2.3022 C   0  0  0  0  0  0  0  0  0  0  0  0
    4.9152   -1.5884   -1.1340 C   0  0  0  0  0  0  0  0  0  0  0  0
    4.6767   -3.4488    1.4791 C   0  0  1  0  0  0  0  0  0  0  0  0
    3.8744   -4.6590    1.3127 C   0  0  0  0  0  0  0  0  0  0  0  0
    2.7139   -4.5609    0.5844 C   0  0  0  0  0  0  0  0  0  0  0  0
    1.9119   -5.7234    0.5279 C   0  0  0  0  0  0  0  0  0  0  0  0
    2.3242   -6.8565    1.2908 C   0  0  0  0  0  0  0  0  0  0  0  0
    3.4285   -6.7847    2.1880 C   0  0  0  0  0  0  0  0  0  0  0  0
    3.7148   -7.8365    3.0063 O   0  0  0  0  0  0  0  0  0  0  0  0
    4.2064   -5.6068    2.2415 C   0  0  0  0  0  0  0  0  0  0  0  0
    5.1062   -5.1408    3.1670 O   0  0  0  0  0  0  0  0  0  0  0  0
    5.3584   -3.7433    2.8367 C   0  0  2  0  0  0  0  0  0  0  0  0
    2.5333   -3.0584    0.3743 C   0  0  0  0  0  0  0  0  0  0  0  0
    3.5333   -2.4332    1.3968 C   0  0  2  0  0  0  0  0  0  0  0  0
    5.2448   -0.6939    4.6241 H   0  0  0  0  0  0  0  0  0  0  0  0
    4.6882    0.4993    2.7378 H   0  0  0  0  0  0  0  0  0  0  0  0
    2.4588   -0.5880    0.3052 H   0  0  0  0  0  0  0  0  0  0  0  0
    5.6236    0.0838    0.0677 H   0  0  0  0  0  0  0  0  0  0  0  0
    7.2843   -1.7145    0.0003 H   0  0  0  0  0  0  0  0  0  0  0  0
    6.7727   -1.6960    1.6615 H   0  0  0  0  0  0  0  0  0  0  0  0
    6.4972   -3.9998    0.3442 H   0  0  0  0  0  0  0  0  0  0  0  0
    5.2499   -4.9063   -2.0512 H   0  0  0  0  0  0  0  0  0  0  0  0
    4.3475   -3.7612   -4.1417 H   0  0  0  0  0  0  0  0  0  0  0  0
    4.1991    0.0484   -2.4237 H   0  0  0  0  0  0  0  0  0  0  0  0
    0.9924   -5.7452   -0.0282 H   0  0  0  0  0  0  0  0  0  0  0  0
    1.7378   -7.7630    1.2528 H   0  0  0  0  0  0  0  0  0  0  0  0
    4.4702   -7.6840    3.5555 H   0  0  0  0  0  0  0  0  0  0  0  0
    6.4311   -3.6839    2.6888 H   0  0  0  0  0  0  0  0  0  0  0  0
    2.6900   -2.8133   -0.6709 H   0  0  0  0  0  0  0  0  0  0  0  0
    1.5469   -2.6855    0.6261 H   0  0  0  0  0  0  0  0  0  0  0  0
    2.9496   -2.4481    2.3199 H   0  0  0  0  0  0  0  0  0  0  0  0
  1  2  2  0
  2 25  1  0
  2  3  1  0
  3  4  2  0
  3 28  1  0
  4  5  1  0
  4 29  1  0
  5 27  1  0
  5  6  1  6
  5  7  1  0
  6 30  1  0
  7 15  1  0
  7  8  1  0
  7 31  1  6
  8  9  1  0
  8 32  1  0
  8 33  1  0
  9 10  1  0
  9 16  1  0
  9 34  1  6
 10 15  2  0
 10 11  1  0
 11 12  2  0
 11 35  1  0
 12 13  1  0
 12 36  1  0
 13 14  2  0
 14 15  1  0
 14 37  1  0
 16 25  1  0
 16 27  1  0
 16 17  1  6
 17 23  2  0
 17 18  1  0
 18 19  2  0
 18 26  1  0
 19 20  1  0
 19 38  1  0
 20 21  2  0
 20 39  1  0
 21 22  1  0
 21 23  1  0
 22 40  1  0
 23 24  1  0
 24 25  1  0
 25 41  1  6
 26 27  1  0
 26 42  1  0
 26 43  1  0
 27 44  1  1
M  END
>  <i_m_ct_stereo_status>  (404) 
1

>  <s_m_source_file>  (404) 
/var/tmp/pbs.5076255.sched01/tmpsabrbf27/138opeauupd.sdf

>  <i_m_source_file_index>  (404) 
28

>  <i_lp_mmshare_version>  (404) 
48012

>  <i_f3d_flags>  (404) 
0

>  <s_epik_input>  (404) 
W0NIXTE9W0NIXUMoPU8pW0NASF0yT2MoYyhbT0hdKVtjSF1bY0hdMyljNGMzW0NIMl1bQ0BASF01W0NAXTEoW09IXSlbQ0BASF0oW0NIMl02KWMoYzdbQ0BASF02W0NAXTI0NSlbY0hdbltjSF1bY0hdNw==

>  <s_epik_cmdline>  (404) 
J2VwaWtfcHl0aG9uJywgJy1waHQnLCAnMi4wJywgJy1waCcsICc3LjAnLCAnLXRuJywgJzgnLCAnLW1hJywgJzIwMCcsICctaW1hZScsICc8aW5maWxlLm1hZT4nLCAnLW9tYWUnLCAnPG91dGZpbGUubWFlPic=

>  <r_lp_tautomer_probability>  (404) 
1

>  <r_epik_Ionization_Penalty>  (404) 
0.30682

>  <r_epik_Ionization_Penalty_Charging>  (404) 
0

>  <r_epik_Ionization_Penalty_Neutral>  (404) 
0.30682

>  <r_epik_State_Penalty>  (404) 
0.276702

>  <r_epik_Charging_Adjusted_Penalty>  (404) 
0.276702

>  <i_epik_Tot_Q>  (404) 
0

>  <i_epik_Tot_abs_Q>  (404) 
0

>  <s_lp_Force_Field>  (404) 
OPLS3e

>  <r_lp_Energy>  (404) 
86.0495

>  <b_lp_Chiralities_Consistent>  (404) 
1

>  <s_lp_Variant>  (404) 
102:0-1

>  <s_i_glide_gridfile>  (404) 
pfpi4k_grid

>  <i_i_glide_lignum>  (404) 
28

>  <i_i_glide_rotatable_bonds>  (404) 
2

>  <r_i_docking_score>  (404) 
-3.46792

>  <r_i_glide_ligand_efficiency>  (404) 
-0.128441

>  <r_i_glide_ligand_efficiency_sa>  (404) 
-0.385324

>  <r_i_glide_ligand_efficiency_ln>  (404) 
-0.807274

>  <r_i_glide_gscore>  (404) 
-3.46792

>  <r_i_glide_lipo>  (404) 
-0.631766

>  <r_i_glide_hbond>  (404) 
-0.136823

>  <r_i_glide_metal>  (404) 
-0

>  <r_i_glide_rewards>  (404) 
-1.01806

>  <r_i_glide_evdw>  (404) 
-25.6845

>  <r_i_glide_ecoul>  (404) 
-2.64697

>  <r_i_glide_erotb>  (404) 
0

>  <r_i_glide_esite>  (404) 
0

>  <r_i_glide_emodel>  (404) 
-33.8018

>  <r_i_glide_energy>  (404) 
-28.3314

>  <r_i_glide_einternal>  (404) 
0.446742

>  <r_i_glide_intrahb_reward>  (404) 
-0

>  <i_i_glide_confnum>  (404) 
1

>  <i_i_glide_posenum>  (404) 
15

>  <r_i_glide_eff_state_penalty>  (404) 
0

>  <ligand_id>  (404) 
102

>  <original_smiles>  (404) 
O=C1C=CC2(O)C3CC(c4ccncc43)C34c5c(ccc(O)c5OC13)CC24

>  <smiles>  (404) 
[H]Oc1c([H])c([H])c2c3c1OC1([H])C(=O)C([H])=C([H])C4(O[H])C5([H])c6c([H])nc([H])c([H])c6C([H])(C5([H])[H])C31C4([H])C2([H])[H]

$$$$
102:1:0
     RDKit          3D

 45 51  0  0  1  0  0  0  0  0999 V2000
    0.1010   -5.6472    8.6740 O   0  0  0  0  0  0  0  0  0  0  0  0
    0.2416   -6.5857    7.8938 C   0  0  0  0  0  0  0  0  0  0  0  0
    0.2043   -7.9990    8.3843 C   0  0  0  0  0  0  0  0  0  0  0  0
    0.7626   -9.1194    7.8522 C   0  0  0  0  0  0  0  0  0  0  0  0
    1.7176   -9.3308    6.6553 C   0  0  1  0  0  0  0  0  0  0  0  0
    2.7126  -10.2582    7.0481 O   0  0  0  0  0  0  0  0  0  0  0  0
    0.9344   -9.9379    5.4372 C   0  0  1  0  0  0  0  0  0  0  0  0
   -0.1850   -8.9760    5.0515 C   0  0  0  0  0  0  0  0  0  0  0  0
    0.6646   -7.8807    4.4280 C   0  0  2  0  0  0  0  0  0  0  0  0
    1.5979   -8.6969    3.5436 C   0  0  0  0  0  0  0  0  0  0  0  0
    2.1680   -8.3493    2.3069 C   0  0  0  0  0  0  0  0  0  0  0  0
    2.9473   -9.4340    1.7907 C   0  0  0  0  0  0  0  0  0  0  0  0
    3.1023  -10.6396    2.4244 N   0  0  0  0  0  0  0  0  0  0  0  0
    2.5310  -10.9724    3.6158 C   0  0  0  0  0  0  0  0  0  0  0  0
    1.7625   -9.9370    4.1661 C   0  0  0  0  0  0  0  0  0  0  0  0
    1.3764   -7.0960    5.5977 C   0  0  1  0  0  0  0  0  0  0  0  0
    2.3155   -6.0540    5.1699 C   0  0  0  0  0  0  0  0  0  0  0  0
    3.6240   -6.4180    4.9522 C   0  0  0  0  0  0  0  0  0  0  0  0
    4.5238   -5.3683    4.6579 C   0  0  0  0  0  0  0  0  0  0  0  0
    4.0039   -4.0385    4.6447 C   0  0  0  0  0  0  0  0  0  0  0  0
    2.6785   -3.7446    5.0804 C   0  0  0  0  0  0  0  0  0  0  0  0
    2.2604   -2.4501    5.1911 O   0  0  0  0  0  0  0  0  0  0  0  0
    1.7997   -4.8082    5.4192 C   0  0  0  0  0  0  0  0  0  0  0  0
    0.6130   -4.8554    6.1130 O   0  0  0  0  0  0  0  0  0  0  0  0
    0.3330   -6.2595    6.3871 C   0  0  2  0  0  0  0  0  0  0  0  0
    3.7336   -7.8211    5.5432 C   0  0  0  0  0  0  0  0  0  0  0  0
    2.3886   -7.9829    6.3449 C   0  0  2  0  0  0  0  0  0  0  0  0
   -0.3893   -8.1643    9.2768 H   0  0  0  0  0  0  0  0  0  0  0  0
    0.5732  -10.0412    8.3788 H   0  0  0  0  0  0  0  0  0  0  0  0
    2.2952  -11.0958    7.2843 H   0  0  0  0  0  0  0  0  0  0  0  0
    0.5383  -10.9317    5.6537 H   0  0  0  0  0  0  0  0  0  0  0  0
   -0.8027   -9.4343    4.2877 H   0  0  0  0  0  0  0  0  0  0  0  0
   -0.8545   -8.6764    5.8530 H   0  0  0  0  0  0  0  0  0  0  0  0
    0.0569   -7.2118    3.8210 H   0  0  0  0  0  0  0  0  0  0  0  0
    2.0248   -7.4025    1.7997 H   0  0  0  0  0  0  0  0  0  0  0  0
    3.4563   -9.3751    0.8351 H   0  0  0  0  0  0  0  0  0  0  0  0
    2.6764  -11.9700    4.0061 H   0  0  0  0  0  0  0  0  0  0  0  0
    5.5719   -5.5634    4.5071 H   0  0  0  0  0  0  0  0  0  0  0  0
    4.6710   -3.2293    4.3844 H   0  0  0  0  0  0  0  0  0  0  0  0
    2.9046   -1.8151    4.9077 H   0  0  0  0  0  0  0  0  0  0  0  0
   -0.6630   -6.4251    5.9777 H   0  0  0  0  0  0  0  0  0  0  0  0
    3.8703   -8.5329    4.7372 H   0  0  0  0  0  0  0  0  0  0  0  0
    4.5905   -7.9229    6.2054 H   0  0  0  0  0  0  0  0  0  0  0  0
    2.6516   -7.5220    7.2988 H   0  0  0  0  0  0  0  0  0  0  0  0
    3.6444  -11.3577    1.9031 H   0  0  0  0  0  0  0  0  0  0  0  0
  1  2  2  0
  2 25  1  0
  2  3  1  0
  3  4  2  0
  3 28  1  0
  4  5  1  0
  4 29  1  0
  5 27  1  0
  5  6  1  1
  5  7  1  0
  6 30  1  0
  7 15  1  0
  7  8  1  0
  7 31  1  1
  8  9  1  0
  8 32  1  0
  8 33  1  0
  9 10  1  0
  9 16  1  0
  9 34  1  6
 10 15  2  0
 10 11  1  0
 11 12  2  0
 11 35  1  0
 12 13  1  0
 12 36  1  0
 13 14  2  0
 13 45  1  0
 14 15  1  0
 14 37  1  0
 16 25  1  0
 16 27  1  0
 16 17  1  6
 17 23  2  0
 17 18  1  0
 18 19  2  0
 18 26  1  0
 19 20  1  0
 19 38  1  0
 20 21  2  0
 20 39  1  0
 21 22  1  0
 21 23  1  0
 22 40  1  0
 23 24  1  0
 24 25  1  0
 25 41  1  6
 26 27  1  0
 26 42  1  0
 26 43  1  0
 27 44  1  1
M  CHG  1  13   1
M  END
>  <i_m_ct_stereo_status>  (405) 
1

>  <s_m_source_file>  (405) 
/var/tmp/pbs.5076255.sched01/tmpsabrbf27/138opeauupd.sdf

>  <i_m_source_file_index>  (405) 
29

>  <i_lp_mmshare_version>  (405) 
48012

>  <i_f3d_flags>  (405) 
0

>  <s_epik_input>  (405) 
W0NIXTE9W0NIXUMoPU8pW0NASF0yT2MoYyhbT0hdKVtjSF1bY0hdMyljNGMzW0NIMl1bQ0BASF01W0NAXTEoW09IXSlbQ0BASF0oW0NIMl02KWMoYzdbQ0BASF02W0NAXTI0NSlbY0hdbltjSF1bY0hdNw==

>  <s_epik_cmdline>  (405) 
J2VwaWtfcHl0aG9uJywgJy1waHQnLCAnMi4wJywgJy1waCcsICc3LjAnLCAnLXRuJywgJzgnLCAnLW1hJywgJzIwMCcsICctaW1hZScsICc8aW5maWxlLm1hZT4nLCAnLW9tYWUnLCAnPG91dGZpbGUubWFlPic=

>  <r_lp_tautomer_probability>  (405) 
1

>  <r_epik_Ionization_Penalty>  (405) 
0.549058

>  <r_epik_Ionization_Penalty_Charging>  (405) 
0.542946

>  <r_epik_Ionization_Penalty_Neutral>  (405) 
0.00611238

>  <r_epik_State_Penalty>  (405) 
0.593809

>  <r_epik_Charging_Adjusted_Penalty>  (405) 
1.13675

>  <i_epik_Tot_Q>  (405) 
1

>  <i_epik_Tot_abs_Q>  (405) 
1

>  <s_lp_Force_Field>  (405) 
OPLS3e

>  <r_lp_Energy>  (405) 
93.1306

>  <b_lp_Chiralities_Consistent>  (405) 
1

>  <s_lp_Variant>  (405) 
102:0-2

>  <s_i_glide_gridfile>  (405) 
pfpi4k_grid

>  <i_i_glide_lignum>  (405) 
29

>  <i_i_glide_rotatable_bonds>  (405) 
2

>  <r_i_docking_score>  (405) 
-3.6647

>  <r_i_glide_ligand_efficiency>  (405) 
-0.13573

>  <r_i_glide_ligand_efficiency_sa>  (405) 
-0.407189

>  <r_i_glide_ligand_efficiency_ln>  (405) 
-0.853083

>  <r_i_glide_gscore>  (405) 
-3.6647

>  <r_i_glide_lipo>  (405) 
0

>  <r_i_glide_hbond>  (405) 
-0.352863

>  <r_i_glide_metal>  (405) 
-0

>  <r_i_glide_rewards>  (405) 
-0.951937

>  <r_i_glide_evdw>  (405) 
-16.8577

>  <r_i_glide_ecoul>  (405) 
-9.52675

>  <r_i_glide_erotb>  (405) 
0

>  <r_i_glide_esite>  (405) 
-0.0880053

>  <r_i_glide_emodel>  (405) 
-35.6017

>  <r_i_glide_energy>  (405) 
-26.3845

>  <r_i_glide_einternal>  (405) 
0.0247988

>  <r_i_glide_intrahb_reward>  (405) 
-0

>  <i_i_glide_confnum>  (405) 
1

>  <i_i_glide_posenum>  (405) 
31

>  <r_i_glide_eff_state_penalty>  (405) 
0

>  <ligand_id>  (405) 
102

>  <original_smiles>  (405) 
O=C1C=CC2(O)C3CC(c4ccncc43)C34c5c(ccc(O)c5OC13)CC24

>  <smiles>  (405) 
[H]Oc1c([H])c([H])c2c3c1OC1([H])C(=O)C([H])=C([H])C4(O[H])C5([H])c6c(c([H])c([H])[n+]([H])c6[H])C([H])(C5([H])[H])C31C4([H])C2([H])[H]

$$$$
102:1:1
     RDKit          3D

 45 51  0  0  1  0  0  0  0  0999 V2000
    0.1331   -5.5689    8.6148 O   0  0  0  0  0  0  0  0  0  0  0  0
    0.2766   -6.5275    7.8550 C   0  0  0  0  0  0  0  0  0  0  0  0
    0.2145   -7.9297    8.3768 C   0  0  0  0  0  0  0  0  0  0  0  0
    0.7709   -9.0742    7.8807 C   0  0  0  0  0  0  0  0  0  0  0  0
    1.7352   -9.3275    6.7096 C   0  0  1  0  0  0  0  0  0  0  0  0
    2.7150  -10.2568    7.1208 O   0  0  0  0  0  0  0  0  0  0  0  0
    0.9696   -9.9451    5.4871 C   0  0  1  0  0  0  0  0  0  0  0  0
   -0.1287   -8.9794    5.0605 C   0  0  0  0  0  0  0  0  0  0  0  0
    0.7453   -7.9036    4.4302 C   0  0  2  0  0  0  0  0  0  0  0  0
    1.6803   -8.7500    3.5814 C   0  0  0  0  0  0  0  0  0  0  0  0
    2.2814   -8.4398    2.3479 C   0  0  0  0  0  0  0  0  0  0  0  0
    3.0538   -9.5324    1.8487 C   0  0  0  0  0  0  0  0  0  0  0  0
    3.1726  -10.7328    2.4949 N   0  0  0  0  0  0  0  0  0  0  0  0
    2.5847  -11.0272    3.6884 C   0  0  0  0  0  0  0  0  0  0  0  0
    1.8189   -9.9831    4.2251 C   0  0  0  0  0  0  0  0  0  0  0  0
    1.4467   -7.1069    5.5956 C   0  0  1  0  0  0  0  0  0  0  0  0
    2.4044   -6.0918    5.1649 C   0  0  0  0  0  0  0  0  0  0  0  0
    3.7163   -6.4735    4.9856 C   0  0  0  0  0  0  0  0  0  0  0  0
    4.6294   -5.4436    4.6822 C   0  0  0  0  0  0  0  0  0  0  0  0
    4.1338   -4.1061    4.6262 C   0  0  0  0  0  0  0  0  0  0  0  0
    2.8017   -3.7903    5.0311 C   0  0  0  0  0  0  0  0  0  0  0  0
    2.4052   -2.4890    5.1106 O   0  0  0  0  0  0  0  0  0  0  0  0
    1.9039   -4.8336    5.3714 C   0  0  0  0  0  0  0  0  0  0  0  0
    0.7054   -4.8397    6.0417 O   0  0  0  0  0  0  0  0  0  0  0  0
    0.3993   -6.2346    6.3457 C   0  0  2  0  0  0  0  0  0  0  0  0
    3.7941   -7.8656    5.6052 C   0  0  0  0  0  0  0  0  0  0  0  0
    2.4337   -7.9896    6.3810 C   0  0  2  0  0  0  0  0  0  0  0  0
   -0.3991   -8.0624    9.2602 H   0  0  0  0  0  0  0  0  0  0  0  0
    0.5476   -9.9769    8.4285 H   0  0  0  0  0  0  0  0  0  0  0  0
    2.2782  -11.1112    7.3049 H   0  0  0  0  0  0  0  0  0  0  0  0
    0.5519  -10.9251    5.7143 H   0  0  0  0  0  0  0  0  0  0  0  0
   -0.7476   -9.4341    4.2940 H   0  0  0  0  0  0  0  0  0  0  0  0
   -0.8103   -8.6593    5.8461 H   0  0  0  0  0  0  0  0  0  0  0  0
    0.1588   -7.2411    3.7996 H   0  0  0  0  0  0  0  0  0  0  0  0
    2.1609   -7.4982    1.8237 H   0  0  0  0  0  0  0  0  0  0  0  0
    3.5819   -9.5028    0.9090 H   0  0  0  0  0  0  0  0  0  0  0  0
    2.7154  -12.0203    4.1184 H   0  0  0  0  0  0  0  0  0  0  0  0
    5.6822   -5.6520    4.5543 H   0  0  0  0  0  0  0  0  0  0  0  0
    4.8067   -3.3040    4.3677 H   0  0  0  0  0  0  0  0  0  0  0  0
    1.5106   -2.3891    5.3966 H   0  0  0  0  0  0  0  0  0  0  0  0
   -0.5923   -6.4005    5.9230 H   0  0  0  0  0  0  0  0  0  0  0  0
    3.9376   -8.5957    4.8181 H   0  0  0  0  0  0  0  0  0  0  0  0
    4.6372   -7.9607    6.2856 H   0  0  0  0  0  0  0  0  0  0  0  0
    2.6835   -7.5109    7.3324 H   0  0  0  0  0  0  0  0  0  0  0  0
    3.7146  -11.4558    1.9909 H   0  0  0  0  0  0  0  0  0  0  0  0
  1  2  2  0
  2 25  1  0
  2  3  1  0
  3  4  2  0
  3 28  1  0
  4  5  1  0
  4 29  1  0
  5 27  1  0
  5  6  1  1
  5  7  1  0
  6 30  1  0
  7 15  1  0
  7  8  1  0
  7 31  1  1
  8  9  1  0
  8 32  1  0
  8 33  1  0
  9 10  1  0
  9 16  1  0
  9 34  1  6
 10 15  2  0
 10 11  1  0
 11 12  2  0
 11 35  1  0
 12 13  1  0
 12 36  1  0
 13 14  2  0
 13 45  1  0
 14 15  1  0
 14 37  1  0
 16 25  1  0
 16 27  1  0
 16 17  1  6
 17 23  2  0
 17 18  1  0
 18 19  2  0
 18 26  1  0
 19 20  1  0
 19 38  1  0
 20 21  2  0
 20 39  1  0
 21 22  1  0
 21 23  1  0
 22 40  1  0
 23 24  1  0
 24 25  1  0
 25 41  1  6
 26 27  1  0
 26 42  1  0
 26 43  1  0
 27 44  1  1
M  CHG  1  13   1
M  END
>  <i_m_ct_stereo_status>  (406) 
1

>  <s_m_source_file>  (406) 
/var/tmp/pbs.5076255.sched01/tmpsabrbf27/138opeauupd.sdf

>  <i_m_source_file_index>  (406) 
29

>  <i_lp_mmshare_version>  (406) 
48012

>  <i_f3d_flags>  (406) 
0

>  <s_epik_input>  (406) 
W0NIXTE9W0NIXUMoPU8pW0NASF0yT2MoYyhbT0hdKVtjSF1bY0hdMyljNGMzW0NIMl1bQ0BASF01W0NAXTEoW09IXSlbQ0BASF0oW0NIMl02KWMoYzdbQ0BASF02W0NAXTI0NSlbY0hdbltjSF1bY0hdNw==

>  <s_epik_cmdline>  (406) 
J2VwaWtfcHl0aG9uJywgJy1waHQnLCAnMi4wJywgJy1waCcsICc3LjAnLCAnLXRuJywgJzgnLCAnLW1hJywgJzIwMCcsICctaW1hZScsICc8aW5maWxlLm1hZT4nLCAnLW9tYWUnLCAnPG91dGZpbGUubWFlPic=

>  <r_lp_tautomer_probability>  (406) 
1

>  <r_epik_Ionization_Penalty>  (406) 
0.549058

>  <r_epik_Ionization_Penalty_Charging>  (406) 
0.542946

>  <r_epik_Ionization_Penalty_Neutral>  (406) 
0.00611238

>  <r_epik_State_Penalty>  (406) 
0.593809

>  <r_epik_Charging_Adjusted_Penalty>  (406) 
1.13675

>  <i_epik_Tot_Q>  (406) 
1

>  <i_epik_Tot_abs_Q>  (406) 
1

>  <s_lp_Force_Field>  (406) 
OPLS3e

>  <r_lp_Energy>  (406) 
93.1306

>  <b_lp_Chiralities_Consistent>  (406) 
1

>  <s_lp_Variant>  (406) 
102:0-2

>  <s_i_glide_gridfile>  (406) 
pfpi4k_grid

>  <i_i_glide_lignum>  (406) 
29

>  <i_i_glide_rotatable_bonds>  (406) 
2

>  <r_i_docking_score>  (406) 
-3.62571

>  <r_i_glide_ligand_efficiency>  (406) 
-0.134285

>  <r_i_glide_ligand_efficiency_sa>  (406) 
-0.402856

>  <r_i_glide_ligand_efficiency_ln>  (406) 
-0.844005

>  <r_i_glide_gscore>  (406) 
-3.62571

>  <r_i_glide_lipo>  (406) 
-0.000167904

>  <r_i_glide_hbond>  (406) 
-0.331617

>  <r_i_glide_metal>  (406) 
-0

>  <r_i_glide_rewards>  (406) 
-0.951937

>  <r_i_glide_evdw>  (406) 
-16.5086

>  <r_i_glide_ecoul>  (406) 
-9.51344

>  <r_i_glide_erotb>  (406) 
0

>  <r_i_glide_esite>  (406) 
-0.0895369

>  <r_i_glide_emodel>  (406) 
-35.1578

>  <r_i_glide_energy>  (406) 
-26.0221

>  <r_i_glide_einternal>  (406) 
0.0112422

>  <r_i_glide_intrahb_reward>  (406) 
-0

>  <i_i_glide_confnum>  (406) 
1

>  <i_i_glide_posenum>  (406) 
16

>  <r_i_glide_eff_state_penalty>  (406) 
0

>  <ligand_id>  (406) 
102

>  <original_smiles>  (406) 
O=C1C=CC2(O)C3CC(c4ccncc43)C34c5c(ccc(O)c5OC13)CC24

>  <smiles>  (406) 
[H]Oc1c([H])c([H])c2c3c1OC1([H])C(=O)C([H])=C([H])C4(O[H])C5([H])c6c(c([H])c([H])[n+]([H])c6[H])C([H])(C5([H])[H])C31C4([H])C2([H])[H]

$$$$
102:1:2
     RDKit          3D

 45 51  0  0  1  0  0  0  0  0999 V2000
    2.5624   -2.7139    4.6360 O   0  0  0  0  0  0  0  0  0  0  0  0
    2.0948   -3.8139    4.9132 C   0  0  0  0  0  0  0  0  0  0  0  0
    2.0042   -4.2749    6.3356 C   0  0  0  0  0  0  0  0  0  0  0  0
    2.0230   -5.5390    6.8370 C   0  0  0  0  0  0  0  0  0  0  0  0
    2.2188   -6.9134    6.1687 C   0  0  1  0  0  0  0  0  0  0  0  0
    3.0942   -7.6720    6.9819 O   0  0  0  0  0  0  0  0  0  0  0  0
    0.8455   -7.6643    6.0596 C   0  0  1  0  0  0  0  0  0  0  0  0
   -0.1117   -6.8065    5.2376 C   0  0  0  0  0  0  0  0  0  0  0  0
    0.5219   -7.0153    3.8630 C   0  0  2  0  0  0  0  0  0  0  0  0
    0.7204   -8.5267    3.8581 C   0  0  0  0  0  0  0  0  0  0  0  0
    0.6727   -9.4305    2.7824 C   0  0  0  0  0  0  0  0  0  0  0  0
    0.8667  -10.7821    3.2169 C   0  0  0  0  0  0  0  0  0  0  0  0
    1.0674  -11.1330    4.5238 N   0  0  0  0  0  0  0  0  0  0  0  0
    1.0992  -10.2512    5.5546 C   0  0  0  0  0  0  0  0  0  0  0  0
    0.9217   -8.9106    5.1871 C   0  0  0  0  0  0  0  0  0  0  0  0
    1.8531   -6.1700    3.8128 C   0  0  1  0  0  0  0  0  0  0  0  0
    2.6494   -6.3243    2.5953 C   0  0  0  0  0  0  0  0  0  0  0  0
    3.5903   -7.3308    2.5611 C   0  0  0  0  0  0  0  0  0  0  0  0
    4.4121   -7.3779    1.4153 C   0  0  0  0  0  0  0  0  0  0  0  0
    4.2234   -6.3746    0.4208 C   0  0  0  0  0  0  0  0  0  0  0  0
    3.3576   -5.2575    0.6351 C   0  0  0  0  0  0  0  0  0  0  0  0
    3.2843   -4.2576   -0.2908 O   0  0  0  0  0  0  0  0  0  0  0  0
    2.5828   -5.1967    1.8214 C   0  0  0  0  0  0  0  0  0  0  0  0
    1.9014   -4.1763    2.4412 O   0  0  0  0  0  0  0  0  0  0  0  0
    1.5106   -4.6555    3.7609 C   0  0  2  0  0  0  0  0  0  0  0  0
    3.6937   -7.8016    4.0087 C   0  0  0  0  0  0  0  0  0  0  0  0
    2.9057   -6.6951    4.8046 C   0  0  2  0  0  0  0  0  0  0  0  0
    1.9118   -3.4705    7.0606 H   0  0  0  0  0  0  0  0  0  0  0  0
    1.9495   -5.6098    7.9112 H   0  0  0  0  0  0  0  0  0  0  0  0
    2.6663   -8.4673    7.2649 H   0  0  0  0  0  0  0  0  0  0  0  0
    0.4266   -7.8893    7.0395 H   0  0  0  0  0  0  0  0  0  0  0  0
   -1.1030   -7.2484    5.2526 H   0  0  0  0  0  0  0  0  0  0  0  0
   -0.2313   -5.7711    5.5575 H   0  0  0  0  0  0  0  0  0  0  0  0
   -0.1594   -6.7287    3.0665 H   0  0  0  0  0  0  0  0  0  0  0  0
    0.5025   -9.1505    1.7470 H   0  0  0  0  0  0  0  0  0  0  0  0
    0.8602  -11.6145    2.5279 H   0  0  0  0  0  0  0  0  0  0  0  0
    1.2435  -10.6530    6.5455 H   0  0  0  0  0  0  0  0  0  0  0  0
    5.1876   -8.1251    1.3163 H   0  0  0  0  0  0  0  0  0  0  0  0
    4.8096   -6.4169   -0.4844 H   0  0  0  0  0  0  0  0  0  0  0  0
    3.6159   -4.5010   -1.1455 H   0  0  0  0  0  0  0  0  0  0  0  0
    0.4306   -4.5126    3.7974 H   0  0  0  0  0  0  0  0  0  0  0  0
    3.2794   -8.7992    4.0794 H   0  0  0  0  0  0  0  0  0  0  0  0
    4.7271   -7.8622    4.3487 H   0  0  0  0  0  0  0  0  0  0  0  0
    3.6847   -5.9421    4.9503 H   0  0  0  0  0  0  0  0  0  0  0  0
    1.1942  -12.1233    4.7536 H   0  0  0  0  0  0  0  0  0  0  0  0
  1  2  2  0
  2 25  1  0
  2  3  1  0
  3  4  2  0
  3 28  1  0
  4  5  1  0
  4 29  1  0
  5 27  1  0
  5  6  1  1
  5  7  1  0
  6 30  1  0
  7 15  1  0
  7  8  1  0
  7 31  1  1
  8  9  1  0
  8 32  1  0
  8 33  1  0
  9 10  1  0
  9 16  1  0
  9 34  1  6
 10 15  2  0
 10 11  1  0
 11 12  2  0
 11 35  1  0
 12 13  1  0
 12 36  1  0
 13 14  2  0
 13 45  1  0
 14 15  1  0
 14 37  1  0
 16 25  1  0
 16 27  1  0
 16 17  1  6
 17 23  2  0
 17 18  1  0
 18 19  2  0
 18 26  1  0
 19 20  1  0
 19 38  1  0
 20 21  2  0
 20 39  1  0
 21 22  1  0
 21 23  1  0
 22 40  1  0
 23 24  1  0
 24 25  1  0
 25 41  1  6
 26 27  1  0
 26 42  1  0
 26 43  1  0
 27 44  1  1
M  CHG  1  13   1
M  END
>  <i_m_ct_stereo_status>  (407) 
1

>  <s_m_source_file>  (407) 
/var/tmp/pbs.5076255.sched01/tmpsabrbf27/138opeauupd.sdf

>  <i_m_source_file_index>  (407) 
29

>  <i_lp_mmshare_version>  (407) 
48012

>  <i_f3d_flags>  (407) 
0

>  <s_epik_input>  (407) 
W0NIXTE9W0NIXUMoPU8pW0NASF0yT2MoYyhbT0hdKVtjSF1bY0hdMyljNGMzW0NIMl1bQ0BASF01W0NAXTEoW09IXSlbQ0BASF0oW0NIMl02KWMoYzdbQ0BASF02W0NAXTI0NSlbY0hdbltjSF1bY0hdNw==

>  <s_epik_cmdline>  (407) 
J2VwaWtfcHl0aG9uJywgJy1waHQnLCAnMi4wJywgJy1waCcsICc3LjAnLCAnLXRuJywgJzgnLCAnLW1hJywgJzIwMCcsICctaW1hZScsICc8aW5maWxlLm1hZT4nLCAnLW9tYWUnLCAnPG91dGZpbGUubWFlPic=

>  <r_lp_tautomer_probability>  (407) 
1

>  <r_epik_Ionization_Penalty>  (407) 
0.549058

>  <r_epik_Ionization_Penalty_Charging>  (407) 
0.542946

>  <r_epik_Ionization_Penalty_Neutral>  (407) 
0.00611238

>  <r_epik_State_Penalty>  (407) 
0.593809

>  <r_epik_Charging_Adjusted_Penalty>  (407) 
1.13675

>  <i_epik_Tot_Q>  (407) 
1

>  <i_epik_Tot_abs_Q>  (407) 
1

>  <s_lp_Force_Field>  (407) 
OPLS3e

>  <r_lp_Energy>  (407) 
93.1306

>  <b_lp_Chiralities_Consistent>  (407) 
1

>  <s_lp_Variant>  (407) 
102:0-2

>  <s_i_glide_gridfile>  (407) 
pfpi4k_grid

>  <i_i_glide_lignum>  (407) 
29

>  <i_i_glide_rotatable_bonds>  (407) 
2

>  <r_i_docking_score>  (407) 
-3.1338

>  <r_i_glide_ligand_efficiency>  (407) 
-0.116067

>  <r_i_glide_ligand_efficiency_sa>  (407) 
-0.3482

>  <r_i_glide_ligand_efficiency_ln>  (407) 
-0.729497

>  <r_i_glide_gscore>  (407) 
-3.1338

>  <r_i_glide_lipo>  (407) 
-0.358038

>  <r_i_glide_hbond>  (407) 
0

>  <r_i_glide_metal>  (407) 
-0

>  <r_i_glide_rewards>  (407) 
-0.952143

>  <r_i_glide_evdw>  (407) 
-20.4492

>  <r_i_glide_ecoul>  (407) 
-5.34107

>  <r_i_glide_erotb>  (407) 
0

>  <r_i_glide_esite>  (407) 
0

>  <r_i_glide_emodel>  (407) 
-32.9984

>  <r_i_glide_energy>  (407) 
-25.7903

>  <r_i_glide_einternal>  (407) 
1.22723

>  <r_i_glide_intrahb_reward>  (407) 
-0

>  <i_i_glide_confnum>  (407) 
2

>  <i_i_glide_posenum>  (407) 
11

>  <r_i_glide_eff_state_penalty>  (407) 
0

>  <ligand_id>  (407) 
102

>  <original_smiles>  (407) 
O=C1C=CC2(O)C3CC(c4ccncc43)C34c5c(ccc(O)c5OC13)CC24

>  <smiles>  (407) 
[H]Oc1c([H])c([H])c2c3c1OC1([H])C(=O)C([H])=C([H])C4(O[H])C5([H])c6c(c([H])c([H])[n+]([H])c6[H])C([H])(C5([H])[H])C31C4([H])C2([H])[H]

$$$$
103:0:0
     RDKit          3D

 90 94  0  0  1  0  0  0  0  0999 V2000
    2.5440   -9.5251    8.2456 C   0  0  0  0  0  0  0  0  0  0  0  0
    2.2217   -8.3768    7.4507 O   0  0  0  0  0  0  0  0  0  0  0  0
    3.3130   -7.8937    6.6674 C   0  0  0  0  0  0  0  0  0  0  0  0
    2.7651   -6.8345    5.6537 C   0  0  2  0  0  0  0  0  0  0  0  0
    1.9425   -7.3734    4.4539 C   0  0  1  0  0  0  0  0  0  0  0  0
    2.8943   -7.4298    3.2429 C   0  0  1  0  0  0  0  0  0  0  0  0
    3.8590   -8.6306    3.1530 C   0  0  0  0  0  0  0  0  0  0  0  0
    2.0471   -7.3558    1.9423 C   0  0  0  0  0  0  0  0  0  0  0  0
    0.9175   -8.4027    1.9390 C   0  0  0  0  0  0  0  0  0  0  0  0
    0.0226   -8.3332    3.1835 C   0  0  1  0  0  0  0  0  0  0  0  0
   -0.9625   -9.3580    3.1310 O   0  0  0  0  0  0  0  0  0  0  0  0
   -2.0807   -9.0635    2.3224 C   0  0  0  0  0  0  0  0  0  0  0  0
    0.8099   -8.4562    4.5292 C   0  0  0  0  0  0  0  0  0  0  0  0
    1.3091   -9.9103    4.7068 C   0  0  0  0  0  0  0  0  0  0  0  0
   -0.2297   -8.1224    5.6244 C   0  0  0  0  0  0  0  0  0  0  0  0
    3.7198   -6.1769    3.4751 C   0  0  0  0  0  0  0  0  0  0  0  0
    4.1548   -5.3330    2.5456 C   0  0  0  0  0  0  0  0  0  0  0  0
    4.8467   -4.0835    2.8962 C   0  0  0  0  0  0  0  0  0  0  0  0
    5.6856   -3.6183    2.1590 O   0  0  0  0  0  0  0  0  0  0  0  0
    4.6136   -3.4511    4.3159 C   0  0  2  0  0  0  0  0  0  0  0  0
    3.6327   -4.3225    5.2100 C   0  0  1  0  0  0  0  0  0  0  0  0
    3.8532   -4.0637    6.7260 C   0  0  0  0  0  0  0  0  0  0  0  0
    2.1876   -3.8786    4.8334 C   0  0  0  0  0  0  0  0  0  0  0  0
    1.9148   -2.3730    4.9771 C   0  0  0  0  0  0  0  0  0  0  0  0
    2.9024   -1.3883    4.2881 C   0  0  2  0  0  0  0  0  0  0  0  0
    2.7101   -0.0552    5.0714 C   0  0  0  0  0  0  0  0  0  0  0  0
    2.5998   -1.1223    2.7452 C   0  0  0  0  0  0  0  0  0  0  0  0
    1.9599   -2.3002    1.9953 C   0  0  0  0  0  0  0  0  0  0  0  0
    1.5857    0.0398    2.4906 C   0  0  0  0  0  0  0  0  0  0  0  0
    3.9934   -0.8922    2.1021 C   0  0  1  0  0  0  0  0  0  0  0  0
    4.1381    0.4134    1.3203 C   0  0  0  0  0  0  0  0  0  0  0  0
    5.0260   -1.0147    3.2276 C   0  0  0  0  0  0  0  0  0  0  0  0
    4.4123   -1.8563    4.3796 C   0  0  2  0  0  0  0  0  0  0  0  0
    5.1760   -1.3460    5.6469 C   0  0  0  0  0  0  0  0  0  0  0  0
    3.8528   -5.8855    4.9882 C   0  0  1  0  0  0  0  0  0  0  0  0
    5.2967   -6.2970    5.3902 C   0  0  0  0  0  0  0  0  0  0  0  0
    1.6087   -9.8809    8.6866 H   0  0  0  0  0  0  0  0  0  0  0  0
    3.2403   -9.3024    9.0538 H   0  0  0  0  0  0  0  0  0  0  0  0
    2.9407  -10.3444    7.6477 H   0  0  0  0  0  0  0  0  0  0  0  0
    4.0074   -7.4482    7.3700 H   0  0  0  0  0  0  0  0  0  0  0  0
    3.8484   -8.7105    6.1748 H   0  0  0  0  0  0  0  0  0  0  0  0
    2.0926   -6.2388    6.2680 H   0  0  0  0  0  0  0  0  0  0  0  0
    1.3452   -6.4902    4.2358 H   0  0  0  0  0  0  0  0  0  0  0  0
    3.4076   -9.5032    2.6918 H   0  0  0  0  0  0  0  0  0  0  0  0
    4.2431   -8.9365    4.1170 H   0  0  0  0  0  0  0  0  0  0  0  0
    4.7274   -8.3826    2.5438 H   0  0  0  0  0  0  0  0  0  0  0  0
    1.6042   -6.3636    1.8298 H   0  0  0  0  0  0  0  0  0  0  0  0
    2.6821   -7.5108    1.0683 H   0  0  0  0  0  0  0  0  0  0  0  0
    0.2969   -8.2425    1.0753 H   0  0  0  0  0  0  0  0  0  0  0  0
    1.2983   -9.4076    1.8055 H   0  0  0  0  0  0  0  0  0  0  0  0
   -0.4784   -7.3623    3.1774 H   0  0  0  0  0  0  0  0  0  0  0  0
   -2.8261   -9.8431    2.4356 H   0  0  0  0  0  0  0  0  0  0  0  0
   -1.7958   -9.0460    1.2771 H   0  0  0  0  0  0  0  0  0  0  0  0
   -2.5393   -8.1125    2.5912 H   0  0  0  0  0  0  0  0  0  0  0  0
    0.4950  -10.5848    4.9749 H   0  0  0  0  0  0  0  0  0  0  0  0
    2.0636  -10.0068    5.4822 H   0  0  0  0  0  0  0  0  0  0  0  0
    1.7403  -10.3239    3.8041 H   0  0  0  0  0  0  0  0  0  0  0  0
   -1.0744   -8.8120    5.5654 H   0  0  0  0  0  0  0  0  0  0  0  0
   -0.6229   -7.1099    5.5118 H   0  0  0  0  0  0  0  0  0  0  0  0
    0.1531   -8.2098    6.6586 H   0  0  0  0  0  0  0  0  0  0  0  0
    4.0143   -5.5470    1.4757 H   0  0  0  0  0  0  0  0  0  0  0  0
    5.6040   -3.6012    4.7447 H   0  0  0  0  0  0  0  0  0  0  0  0
    3.4174   -4.8435    7.3492 H   0  0  0  0  0  0  0  0  0  0  0  0
    3.4017   -3.1462    7.0754 H   0  0  0  0  0  0  0  0  0  0  0  0
    4.9134   -4.0097    6.9737 H   0  0  0  0  0  0  0  0  0  0  0  0
    1.9362   -4.2039    3.8251 H   0  0  0  0  0  0  0  0  0  0  0  0
    1.4558   -4.3767    5.4633 H   0  0  0  0  0  0  0  0  0  0  0  0
    0.9186   -2.1792    4.6052 H   0  0  0  0  0  0  0  0  0  0  0  0
    1.8426   -2.1296    6.0414 H   0  0  0  0  0  0  0  0  0  0  0  0
    3.3294    0.7528    4.6825 H   0  0  0  0  0  0  0  0  0  0  0  0
    2.9425   -0.1653    6.1286 H   0  0  0  0  0  0  0  0  0  0  0  0
    1.6746    0.2821    5.0532 H   0  0  0  0  0  0  0  0  0  0  0  0
    1.8159   -2.0547    0.9423 H   0  0  0  0  0  0  0  0  0  0  0  0
    0.9919   -2.5405    2.4205 H   0  0  0  0  0  0  0  0  0  0  0  0
    2.5616   -3.1965    1.9993 H   0  0  0  0  0  0  0  0  0  0  0  0
    1.3651    0.1548    1.4285 H   0  0  0  0  0  0  0  0  0  0  0  0
    1.9276    1.0152    2.8351 H   0  0  0  0  0  0  0  0  0  0  0  0
    0.6351   -0.1504    2.9840 H   0  0  0  0  0  0  0  0  0  0  0  0
    4.1916   -1.6816    1.3806 H   0  0  0  0  0  0  0  0  0  0  0  0
    3.8081    1.2479    1.9393 H   0  0  0  0  0  0  0  0  0  0  0  0
    3.4707    0.4322    0.4727 H   0  0  0  0  0  0  0  0  0  0  0  0
    5.1535    0.5512    0.9479 H   0  0  0  0  0  0  0  0  0  0  0  0
    5.9954   -1.3607    2.8748 H   0  0  0  0  0  0  0  0  0  0  0  0
    5.2237    0.0010    3.5697 H   0  0  0  0  0  0  0  0  0  0  0  0
    5.2964   -0.2607    5.6718 H   0  0  0  0  0  0  0  0  0  0  0  0
    6.1866   -1.7498    5.6827 H   0  0  0  0  0  0  0  0  0  0  0  0
    4.6985   -1.5947    6.5866 H   0  0  0  0  0  0  0  0  0  0  0  0
    5.4979   -6.1524    6.4511 H   0  0  0  0  0  0  0  0  0  0  0  0
    6.0562   -5.7431    4.8473 H   0  0  0  0  0  0  0  0  0  0  0  0
    5.4837   -7.3431    5.1665 H   0  0  0  0  0  0  0  0  0  0  0  0
  1  2  1  0
  1 37  1  0
  1 38  1  0
  1 39  1  0
  2  3  1  0
  3  4  1  0
  3 40  1  0
  3 41  1  0
  4 35  1  0
  4  5  1  0
  4 42  1  1
  5 13  1  0
  5  6  1  0
  5 43  1  6
  6  7  1  6
  6  8  1  0
  6 16  1  0
  7 44  1  0
  7 45  1  0
  7 46  1  0
  8  9  1  0
  8 47  1  0
  8 48  1  0
  9 10  1  0
  9 49  1  0
  9 50  1  0
 10 11  1  0
 10 13  1  0
 10 51  1  1
 11 12  1  0
 12 52  1  0
 12 53  1  0
 12 54  1  0
 13 14  1  0
 13 15  1  0
 14 55  1  0
 14 56  1  0
 14 57  1  0
 15 58  1  0
 15 59  1  0
 15 60  1  0
 16 35  1  0
 16 17  2  0
 17 18  1  0
 17 61  1  0
 18 19  2  0
 18 20  1  0
 20 33  1  0
 20 21  1  0
 20 62  1  1
 21 22  1  1
 21 23  1  0
 21 35  1  0
 22 63  1  0
 22 64  1  0
 22 65  1  0
 23 24  1  0
 23 66  1  0
 23 67  1  0
 24 25  1  0
 24 68  1  0
 24 69  1  0
 25 33  1  0
 25 26  1  1
 25 27  1  0
 26 70  1  0
 26 71  1  0
 26 72  1  0
 27 28  1  0
 27 29  1  0
 27 30  1  0
 28 73  1  0
 28 74  1  0
 28 75  1  0
 29 76  1  0
 29 77  1  0
 29 78  1  0
 30 31  1  0
 30 32  1  0
 30 79  1  6
 31 80  1  0
 31 81  1  0
 31 82  1  0
 32 33  1  0
 32 83  1  0
 32 84  1  0
 33 34  1  1
 34 85  1  0
 34 86  1  0
 34 87  1  0
 35 36  1  1
 36 88  1  0
 36 89  1  0
 36 90  1  0
M  END
>  <i_m_ct_stereo_status>  (408) 
1

>  <s_m_source_file>  (408) 
/var/tmp/pbs.5076255.sched01/tmpsabrbf27/138opeauupd.sdf

>  <i_m_source_file_index>  (408) 
30

>  <i_lp_mmshare_version>  (408) 
48012

>  <i_f3d_flags>  (408) 
0

>  <s_epik_input>  (408) 
W0NIMl0xW0NIMl1bQ0BASF0oT1tDSDNdKUMoW0NIM10pKFtDSDNdKVtDQEhdKFtDQEBdMTJbQ0gzXSlbQ0BASF0oW0NIMl1PW0NIM10pW0NAQF0zKFtDSDNdKUMyPVtDSF1DKD1PKVtDQEBIXTRbQ0BAXTMoW0NIM10pW0NIMl1bQ0gyXVtDQEBdNShbQ0gzXSlbQ0BdNChbQ0gzXSlbQ0gyXVtDQEhdKFtDSDNdKUM1KFtDSDNdKVtDSDNd

>  <s_epik_cmdline>  (408) 
J2VwaWtfcHl0aG9uJywgJy1waHQnLCAnMi4wJywgJy1waCcsICc3LjAnLCAnLXRuJywgJzgnLCAnLW1hJywgJzIwMCcsICctaW1hZScsICc8aW5maWxlLm1hZT4nLCAnLW9tYWUnLCAnPG91dGZpbGUubWFlPic=

>  <r_lp_tautomer_probability>  (408) 
1

>  <r_epik_Ionization_Penalty>  (408) 
5.6539e-11

>  <r_epik_Ionization_Penalty_Charging>  (408) 
0

>  <r_epik_Ionization_Penalty_Neutral>  (408) 
5.6539e-11

>  <r_epik_State_Penalty>  (408) 
-0

>  <r_epik_Charging_Adjusted_Penalty>  (408) 
0

>  <i_epik_Tot_Q>  (408) 
0

>  <i_epik_Tot_abs_Q>  (408) 
0

>  <s_lp_Force_Field>  (408) 
OPLS3e

>  <r_lp_Energy>  (408) 
112.869

>  <b_lp_Chiralities_Consistent>  (408) 
1

>  <s_lp_Variant>  (408) 
103:0-1

>  <s_i_glide_gridfile>  (408) 
pfpi4k_grid

>  <i_i_glide_lignum>  (408) 
30

>  <i_i_glide_rotatable_bonds>  (408) 
3

>  <r_i_docking_score>  (408) 
-1.41163

>  <r_i_glide_ligand_efficiency>  (408) 
-0.0392118

>  <r_i_glide_ligand_efficiency_sa>  (408) 
-0.129475

>  <r_i_glide_ligand_efficiency_ln>  (408) 
-0.307979

>  <r_i_glide_gscore>  (408) 
-1.41163

>  <r_i_glide_lipo>  (408) 
-0.425886

>  <r_i_glide_hbond>  (408) 
0

>  <r_i_glide_metal>  (408) 
-0

>  <r_i_glide_rewards>  (408) 
-0.0359305

>  <r_i_glide_evdw>  (408) 
-20.3498

>  <r_i_glide_ecoul>  (408) 
-0.0956707

>  <r_i_glide_erotb>  (408) 
0.0820332

>  <r_i_glide_esite>  (408) 
0

>  <r_i_glide_emodel>  (408) 
-20.8776

>  <r_i_glide_energy>  (408) 
-20.4455

>  <r_i_glide_einternal>  (408) 
0.851314

>  <r_i_glide_intrahb_reward>  (408) 
-0

>  <i_i_glide_confnum>  (408) 
2

>  <i_i_glide_posenum>  (408) 
38

>  <r_i_glide_eff_state_penalty>  (408) 
0

>  <ligand_id>  (408) 
103

>  <original_smiles>  (408) 
COCC1C2C(C)(CCC(OC)C2(C)C)C2=CC(=O)C3C(C)(CCC4(C)C(C)(C)C(C)CC34C)C21C

>  <smiles>  (408) 
[H]C1=C2C3(C([H])([H])[H])C([H])([H])C([H])([H])C([H])(OC([H])([H])[H])C(C([H])([H])[H])(C([H])([H])[H])C3([H])C([H])(C([H])([H])OC([H])([H])[H])C2(C([H])([H])[H])C2(C([H])([H])[H])C([H])([H])C([H])([H])C3(C([H])([H])[H])C(C([H])([H])[H])(C([H])([H])C([H])(C([H])([H])[H])C3(C([H])([H])[H])C([H])([H])[H])C2([H])C1=O

$$$$
103:0:1
     RDKit          3D

 90 94  0  0  1  0  0  0  0  0999 V2000
    6.4279   -3.9966    6.6301 C   0  0  0  0  0  0  0  0  0  0  0  0
    5.4583   -3.2125    6.0013 O   0  0  0  0  0  0  0  0  0  0  0  0
    4.1269   -3.3071    6.4328 C   0  0  0  0  0  0  0  0  0  0  0  0
    3.1559   -2.4622    5.5581 C   0  0  2  0  0  0  0  0  0  0  0  0
    3.0867   -2.7876    4.0344 C   0  0  1  0  0  0  0  0  0  0  0  0
    3.8522   -1.6938    3.2525 C   0  0  1  0  0  0  0  0  0  0  0  0
    5.3987   -1.8310    3.1645 C   0  0  0  0  0  0  0  0  0  0  0  0
    3.2929   -1.6005    1.8283 C   0  0  0  0  0  0  0  0  0  0  0  0
    3.2844   -2.9787    1.1411 C   0  0  0  0  0  0  0  0  0  0  0  0
    2.5587   -4.0832    1.9570 C   0  0  1  0  0  0  0  0  0  0  0  0
    2.4485   -5.3232    1.2397 O   0  0  0  0  0  0  0  0  0  0  0  0
    3.5478   -5.7513    0.4298 C   0  0  0  0  0  0  0  0  0  0  0  0
    3.0528   -4.2394    3.4399 C   0  0  0  0  0  0  0  0  0  0  0  0
    4.4107   -4.9689    3.4754 C   0  0  0  0  0  0  0  0  0  0  0  0
    2.0087   -5.1130    4.1865 C   0  0  0  0  0  0  0  0  0  0  0  0
    3.5419   -0.4910    4.1324 C   0  0  0  0  0  0  0  0  0  0  0  0
    3.3274    0.7519    3.6624 C   0  0  0  0  0  0  0  0  0  0  0  0
    2.9164    1.8213    4.5776 C   0  0  0  0  0  0  0  0  0  0  0  0
    3.2554    2.9888    4.3360 O   0  0  0  0  0  0  0  0  0  0  0  0
    2.1720    1.4816    5.8938 C   0  0  2  0  0  0  0  0  0  0  0  0
    2.0172   -0.0899    6.1184 C   0  0  1  0  0  0  0  0  0  0  0  0
    1.8478   -0.4407    7.6216 C   0  0  0  0  0  0  0  0  0  0  0  0
    0.7267   -0.5058    5.3561 C   0  0  0  0  0  0  0  0  0  0  0  0
   -0.5459    0.2640    5.7569 C   0  0  0  0  0  0  0  0  0  0  0  0
   -0.4872    1.8160    5.7564 C   0  0  2  0  0  0  0  0  0  0  0  0
   -1.6307    2.2402    6.7360 C   0  0  0  0  0  0  0  0  0  0  0  0
   -0.7499    2.4899    4.3312 C   0  0  0  0  0  0  0  0  0  0  0  0
   -0.3075    1.6387    3.1126 C   0  0  0  0  0  0  0  0  0  0  0  0
   -2.2533    2.7626    4.0346 C   0  0  0  0  0  0  0  0  0  0  0  0
    0.1181    3.7856    4.3380 C   0  0  1  0  0  0  0  0  0  0  0  0
   -0.6017    5.1178    4.0537 C   0  0  0  0  0  0  0  0  0  0  0  0
    0.8409    3.8187    5.6891 C   0  0  0  0  0  0  0  0  0  0  0  0
    0.8928    2.3800    6.2840 C   0  0  2  0  0  0  0  0  0  0  0  0
    0.9697    2.6375    7.8248 C   0  0  0  0  0  0  0  0  0  0  0  0
    3.3077   -0.8792    5.5917 C   0  0  1  0  0  0  0  0  0  0  0  0
    4.5653   -0.4313    6.3946 C   0  0  0  0  0  0  0  0  0  0  0  0
    7.3785   -3.7988    6.1546 H   0  0  0  0  0  0  0  0  0  0  0  0
    6.2425   -5.0620    6.5364 H   0  0  0  0  0  0  0  0  0  0  0  0
    6.5317   -3.7496    7.6823 H   0  0  0  0  0  0  0  0  0  0  0  0
    3.8342   -4.3540    6.4238 H   0  0  0  0  0  0  0  0  0  0  0  0
    4.0497   -3.0268    7.4858 H   0  0  0  0  0  0  0  0  0  0  0  0
    2.1929   -2.7376    5.9745 H   0  0  0  0  0  0  0  0  0  0  0  0
    2.0490   -2.4964    3.8534 H   0  0  0  0  0  0  0  0  0  0  0  0
    5.7377   -2.4885    2.3609 H   0  0  0  0  0  0  0  0  0  0  0  0
    5.7912   -2.1942    4.0755 H   0  0  0  0  0  0  0  0  0  0  0  0
    5.8666   -0.8605    2.9574 H   0  0  0  0  0  0  0  0  0  0  0  0
    2.2922   -1.1601    1.8159 H   0  0  0  0  0  0  0  0  0  0  0  0
    3.9273   -0.9331    1.2416 H   0  0  0  0  0  0  0  0  0  0  0  0
    2.8130   -2.8822    0.1672 H   0  0  0  0  0  0  0  0  0  0  0  0
    4.3219   -3.2570    0.9560 H   0  0  0  0  0  0  0  0  0  0  0  0
    1.5256   -3.7444    2.0561 H   0  0  0  0  0  0  0  0  0  0  0  0
    3.3538   -6.7403    0.0329 H   0  0  0  0  0  0  0  0  0  0  0  0
    4.4828   -5.8425    0.9797 H   0  0  0  0  0  0  0  0  0  0  0  0
    3.7019   -5.0904   -0.4239 H   0  0  0  0  0  0  0  0  0  0  0  0
    4.2778   -6.0241    3.2380 H   0  0  0  0  0  0  0  0  0  0  0  0
    4.8927   -4.9332    4.4453 H   0  0  0  0  0  0  0  0  0  0  0  0
    5.0975   -4.5520    2.7438 H   0  0  0  0  0  0  0  0  0  0  0  0
    1.8874   -6.0849    3.7053 H   0  0  0  0  0  0  0  0  0  0  0  0
    1.0234   -4.6451    4.2151 H   0  0  0  0  0  0  0  0  0  0  0  0
    2.3041   -5.3101    5.2136 H   0  0  0  0  0  0  0  0  0  0  0  0
    3.4772    0.9841    2.6243 H   0  0  0  0  0  0  0  0  0  0  0  0
    2.9302    1.7923    6.6070 H   0  0  0  0  0  0  0  0  0  0  0  0
    2.0352   -1.4964    7.8214 H   0  0  0  0  0  0  0  0  0  0  0  0
    0.8487   -0.2584    8.0018 H   0  0  0  0  0  0  0  0  0  0  0  0
    2.5356    0.1300    8.2478 H   0  0  0  0  0  0  0  0  0  0  0  0
    0.8692   -0.4324    4.2844 H   0  0  0  0  0  0  0  0  0  0  0  0
    0.5010   -1.5572    5.5210 H   0  0  0  0  0  0  0  0  0  0  0  0
   -1.3602   -0.0552    5.1110 H   0  0  0  0  0  0  0  0  0  0  0  0
   -0.8532   -0.0838    6.7443 H   0  0  0  0  0  0  0  0  0  0  0  0
   -1.7259    3.3242    6.8181 H   0  0  0  0  0  0  0  0  0  0  0  0
   -1.4793    1.8486    7.7414 H   0  0  0  0  0  0  0  0  0  0  0  0
   -2.5960    1.8427    6.4238 H   0  0  0  0  0  0  0  0  0  0  0  0
   -0.4795    2.1771    2.1792 H   0  0  0  0  0  0  0  0  0  0  0  0
   -0.8568    0.7018    3.0374 H   0  0  0  0  0  0  0  0  0  0  0  0
    0.7501    1.4085    3.1156 H   0  0  0  0  0  0  0  0  0  0  0  0
   -2.3933    3.1587    3.0293 H   0  0  0  0  0  0  0  0  0  0  0  0
   -2.7145    3.4714    4.7179 H   0  0  0  0  0  0  0  0  0  0  0  0
   -2.8233    1.8356    4.0841 H   0  0  0  0  0  0  0  0  0  0  0  0
    0.8760    3.7004    3.5591 H   0  0  0  0  0  0  0  0  0  0  0  0
   -1.3608    5.3174    4.8085 H   0  0  0  0  0  0  0  0  0  0  0  0
   -1.0659    5.1141    3.0661 H   0  0  0  0  0  0  0  0  0  0  0  0
    0.1044    5.9508    4.0677 H   0  0  0  0  0  0  0  0  0  0  0  0
    1.7997    4.3309    5.6485 H   0  0  0  0  0  0  0  0  0  0  0  0
    0.2452    4.4644    6.3335 H   0  0  0  0  0  0  0  0  0  0  0  0
    0.2860    3.4140    8.1686 H   0  0  0  0  0  0  0  0  0  0  0  0
    1.9632    2.9802    8.1153 H   0  0  0  0  0  0  0  0  0  0  0  0
    0.7316    1.7728    8.4308 H   0  0  0  0  0  0  0  0  0  0  0  0
    4.5212   -0.7126    7.4450 H   0  0  0  0  0  0  0  0  0  0  0  0
    4.7300    0.6455    6.3536 H   0  0  0  0  0  0  0  0  0  0  0  0
    5.4733   -0.8528    5.9745 H   0  0  0  0  0  0  0  0  0  0  0  0
  1  2  1  0
  1 37  1  0
  1 38  1  0
  1 39  1  0
  2  3  1  0
  3  4  1  0
  3 40  1  0
  3 41  1  0
  4 35  1  0
  4  5  1  0
  4 42  1  1
  5 13  1  0
  5  6  1  0
  5 43  1  6
  6  7  1  6
  6  8  1  0
  6 16  1  0
  7 44  1  0
  7 45  1  0
  7 46  1  0
  8  9  1  0
  8 47  1  0
  8 48  1  0
  9 10  1  0
  9 49  1  0
  9 50  1  0
 10 11  1  0
 10 13  1  0
 10 51  1  1
 11 12  1  0
 12 52  1  0
 12 53  1  0
 12 54  1  0
 13 14  1  0
 13 15  1  0
 14 55  1  0
 14 56  1  0
 14 57  1  0
 15 58  1  0
 15 59  1  0
 15 60  1  0
 16 35  1  0
 16 17  2  0
 17 18  1  0
 17 61  1  0
 18 19  2  0
 18 20  1  0
 20 33  1  0
 20 21  1  0
 20 62  1  1
 21 22  1  1
 21 23  1  0
 21 35  1  0
 22 63  1  0
 22 64  1  0
 22 65  1  0
 23 24  1  0
 23 66  1  0
 23 67  1  0
 24 25  1  0
 24 68  1  0
 24 69  1  0
 25 33  1  0
 25 26  1  1
 25 27  1  0
 26 70  1  0
 26 71  1  0
 26 72  1  0
 27 28  1  0
 27 29  1  0
 27 30  1  0
 28 73  1  0
 28 74  1  0
 28 75  1  0
 29 76  1  0
 29 77  1  0
 29 78  1  0
 30 31  1  0
 30 32  1  0
 30 79  1  6
 31 80  1  0
 31 81  1  0
 31 82  1  0
 32 33  1  0
 32 83  1  0
 32 84  1  0
 33 34  1  1
 34 85  1  0
 34 86  1  0
 34 87  1  0
 35 36  1  1
 36 88  1  0
 36 89  1  0
 36 90  1  0
M  END
>  <i_m_ct_stereo_status>  (409) 
1

>  <s_m_source_file>  (409) 
/var/tmp/pbs.5076255.sched01/tmpsabrbf27/138opeauupd.sdf

>  <i_m_source_file_index>  (409) 
30

>  <i_lp_mmshare_version>  (409) 
48012

>  <i_f3d_flags>  (409) 
0

>  <s_epik_input>  (409) 
W0NIMl0xW0NIMl1bQ0BASF0oT1tDSDNdKUMoW0NIM10pKFtDSDNdKVtDQEhdKFtDQEBdMTJbQ0gzXSlbQ0BASF0oW0NIMl1PW0NIM10pW0NAQF0zKFtDSDNdKUMyPVtDSF1DKD1PKVtDQEBIXTRbQ0BAXTMoW0NIM10pW0NIMl1bQ0gyXVtDQEBdNShbQ0gzXSlbQ0BdNChbQ0gzXSlbQ0gyXVtDQEhdKFtDSDNdKUM1KFtDSDNdKVtDSDNd

>  <s_epik_cmdline>  (409) 
J2VwaWtfcHl0aG9uJywgJy1waHQnLCAnMi4wJywgJy1waCcsICc3LjAnLCAnLXRuJywgJzgnLCAnLW1hJywgJzIwMCcsICctaW1hZScsICc8aW5maWxlLm1hZT4nLCAnLW9tYWUnLCAnPG91dGZpbGUubWFlPic=

>  <r_lp_tautomer_probability>  (409) 
1

>  <r_epik_Ionization_Penalty>  (409) 
5.6539e-11

>  <r_epik_Ionization_Penalty_Charging>  (409) 
0

>  <r_epik_Ionization_Penalty_Neutral>  (409) 
5.6539e-11

>  <r_epik_State_Penalty>  (409) 
-0

>  <r_epik_Charging_Adjusted_Penalty>  (409) 
0

>  <i_epik_Tot_Q>  (409) 
0

>  <i_epik_Tot_abs_Q>  (409) 
0

>  <s_lp_Force_Field>  (409) 
OPLS3e

>  <r_lp_Energy>  (409) 
112.869

>  <b_lp_Chiralities_Consistent>  (409) 
1

>  <s_lp_Variant>  (409) 
103:0-1

>  <s_i_glide_gridfile>  (409) 
pfpi4k_grid

>  <i_i_glide_lignum>  (409) 
30

>  <i_i_glide_rotatable_bonds>  (409) 
3

>  <r_i_docking_score>  (409) 
-1.10224

>  <r_i_glide_ligand_efficiency>  (409) 
-0.0306179

>  <r_i_glide_ligand_efficiency_sa>  (409) 
-0.101098

>  <r_i_glide_ligand_efficiency_ln>  (409) 
-0.24048

>  <r_i_glide_gscore>  (409) 
-1.10224

>  <r_i_glide_lipo>  (409) 
-0.081798

>  <r_i_glide_hbond>  (409) 
0

>  <r_i_glide_metal>  (409) 
-0

>  <r_i_glide_rewards>  (409) 
-0.00831777

>  <r_i_glide_evdw>  (409) 
-19.6347

>  <r_i_glide_ecoul>  (409) 
-0.73046

>  <r_i_glide_erotb>  (409) 
0.0820332

>  <r_i_glide_esite>  (409) 
-0.00285856

>  <r_i_glide_emodel>  (409) 
-17.7658

>  <r_i_glide_energy>  (409) 
-20.3651

>  <r_i_glide_einternal>  (409) 
6.12138

>  <r_i_glide_intrahb_reward>  (409) 
-0

>  <i_i_glide_confnum>  (409) 
6

>  <i_i_glide_posenum>  (409) 
21

>  <r_i_glide_eff_state_penalty>  (409) 
0

>  <ligand_id>  (409) 
103

>  <original_smiles>  (409) 
COCC1C2C(C)(CCC(OC)C2(C)C)C2=CC(=O)C3C(C)(CCC4(C)C(C)(C)C(C)CC34C)C21C

>  <smiles>  (409) 
[H]C1=C2C3(C([H])([H])[H])C([H])([H])C([H])([H])C([H])(OC([H])([H])[H])C(C([H])([H])[H])(C([H])([H])[H])C3([H])C([H])(C([H])([H])OC([H])([H])[H])C2(C([H])([H])[H])C2(C([H])([H])[H])C([H])([H])C([H])([H])C3(C([H])([H])[H])C(C([H])([H])[H])(C([H])([H])C([H])(C([H])([H])[H])C3(C([H])([H])[H])C([H])([H])[H])C2([H])C1=O

$$$$
103:0:2
     RDKit          3D

 90 94  0  0  1  0  0  0  0  0999 V2000
    6.3055   -4.5715    7.0062 C   0  0  0  0  0  0  0  0  0  0  0  0
    5.3513   -3.8113    6.2707 O   0  0  0  0  0  0  0  0  0  0  0  0
    3.9964   -3.9179    6.7209 C   0  0  0  0  0  0  0  0  0  0  0  0
    3.0495   -3.0789    5.8026 C   0  0  2  0  0  0  0  0  0  0  0  0
    2.9044   -3.5315    4.3237 C   0  0  1  0  0  0  0  0  0  0  0  0
    3.7267   -2.5654    3.4532 C   0  0  1  0  0  0  0  0  0  0  0  0
    5.2489   -2.7933    3.3342 C   0  0  0  0  0  0  0  0  0  0  0  0
    3.1385   -2.5794    2.0124 C   0  0  0  0  0  0  0  0  0  0  0  0
    2.9994   -4.0173    1.4506 C   0  0  0  0  0  0  0  0  0  0  0  0
    2.1869   -4.9465    2.3849 C   0  0  1  0  0  0  0  0  0  0  0  0
    2.0994   -6.2701    1.8496 O   0  0  0  0  0  0  0  0  0  0  0  0
    1.1728   -6.4424    0.7892 C   0  0  0  0  0  0  0  0  0  0  0  0
    2.7646   -5.0182    3.8412 C   0  0  0  0  0  0  0  0  0  0  0  0
    4.0841   -5.8213    3.8488 C   0  0  0  0  0  0  0  0  0  0  0  0
    1.7201   -5.7722    4.7035 C   0  0  0  0  0  0  0  0  0  0  0  0
    3.4928   -1.2631    4.2082 C   0  0  0  0  0  0  0  0  0  0  0  0
    3.3240   -0.0535    3.6555 C   0  0  0  0  0  0  0  0  0  0  0  0
    2.9877    1.1076    4.4741 C   0  0  0  0  0  0  0  0  0  0  0  0
    3.3785    2.2307    4.1465 O   0  0  0  0  0  0  0  0  0  0  0  0
    2.2706    0.9254    5.8486 C   0  0  2  0  0  0  0  0  0  0  0  0
    2.0439   -0.6104    6.2009 C   0  0  1  0  0  0  0  0  0  0  0  0
    1.9054   -0.8287    7.7362 C   0  0  0  0  0  0  0  0  0  0  0  0
    0.7112   -1.0223    5.5133 C   0  0  0  0  0  0  0  0  0  0  0  0
   -0.5072   -0.1570    5.8813 C   0  0  0  0  0  0  0  0  0  0  0  0
   -0.3684    1.3860    5.7529 C   0  0  2  0  0  0  0  0  0  0  0  0
   -1.4617    1.9467    6.7205 C   0  0  0  0  0  0  0  0  0  0  0  0
   -0.6364    1.9573    4.2801 C   0  0  0  0  0  0  0  0  0  0  0  0
   -0.2773    0.9858    3.1299 C   0  0  0  0  0  0  0  0  0  0  0  0
   -2.1258    2.2884    3.9935 C   0  0  0  0  0  0  0  0  0  0  0  0
    0.2882    3.2067    4.1640 C   0  0  1  0  0  0  0  0  0  0  0  0
   -0.3863    4.5481    3.8066 C   0  0  0  0  0  0  0  0  0  0  0  0
    1.0580    3.3046    5.4847 C   0  0  0  0  0  0  0  0  0  0  0  0
    1.0535    1.9169    6.1892 C   0  0  2  0  0  0  0  0  0  0  0  0
    1.1923    2.2968    7.7059 C   0  0  0  0  0  0  0  0  0  0  0  0
    3.2765   -1.5112    5.7177 C   0  0  1  0  0  0  0  0  0  0  0  0
    4.5791   -1.0432    6.4349 C   0  0  0  0  0  0  0  0  0  0  0  0
    7.2800   -4.3326    6.5719 H   0  0  0  0  0  0  0  0  0  0  0  0
    6.1489   -5.6346    6.9006 H   0  0  0  0  0  0  0  0  0  0  0  0
    6.3356   -4.2964    8.0504 H   0  0  0  0  0  0  0  0  0  0  0  0
    3.7151   -4.9548    6.7248 H   0  0  0  0  0  0  0  0  0  0  0  0
    3.9138   -3.5915    7.7531 H   0  0  0  0  0  0  0  0  0  0  0  0
    2.0892   -3.2786    6.2748 H   0  0  0  0  0  0  0  0  0  0  0  0
    1.8868   -3.1902    4.1449 H   0  0  0  0  0  0  0  0  0  0  0  0
    5.5228   -3.5261    2.5814 H   0  0  0  0  0  0  0  0  0  0  0  0
    5.7214   -3.1285    4.2774 H   0  0  0  0  0  0  0  0  0  0  0  0
    5.7688   -1.8710    3.0683 H   0  0  0  0  0  0  0  0  0  0  0  0
    2.1665   -2.0946    1.9921 H   0  0  0  0  0  0  0  0  0  0  0  0
    3.7808   -1.9981    1.3520 H   0  0  0  0  0  0  0  0  0  0  0  0
    2.5272   -3.9596    0.4752 H   0  0  0  0  0  0  0  0  0  0  0  0
    3.9760   -4.4543    1.2564 H   0  0  0  0  0  0  0  0  0  0  0  0
    1.1770   -4.5454    2.4677 H   0  0  0  0  0  0  0  0  0  0  0  0
    1.1099   -7.4960    0.5123 H   0  0  0  0  0  0  0  0  0  0  0  0
    1.4692   -5.8836   -0.1011 H   0  0  0  0  0  0  0  0  0  0  0  0
    0.1670   -6.1439    1.0813 H   0  0  0  0  0  0  0  0  0  0  0  0
    3.8966   -6.8861    3.7055 H   0  0  0  0  0  0  0  0  0  0  0  0
    4.6310   -5.7192    4.7812 H   0  0  0  0  0  0  0  0  0  0  0  0
    4.7562   -5.5291    3.0465 H   0  0  0  0  0  0  0  0  0  0  0  0
    1.5364   -6.7752    4.3148 H   0  0  0  0  0  0  0  0  0  0  0  0
    0.7620   -5.2570    4.7249 H   0  0  0  0  0  0  0  0  0  0  0  0
    2.0479   -5.8967    5.7335 H   0  0  0  0  0  0  0  0  0  0  0  0
    3.4530    0.0913    2.5846 H   0  0  0  0  0  0  0  0  0  0  0  0
    3.0656    1.2524    6.5118 H   0  0  0  0  0  0  0  0  0  0  0  0
    2.0462   -1.8733    8.0213 H   0  0  0  0  0  0  0  0  0  0  0  0
    0.9328   -0.5631    8.1284 H   0  0  0  0  0  0  0  0  0  0  0  0
    2.6396   -0.2457    8.2938 H   0  0  0  0  0  0  0  0  0  0  0  0
    0.8275   -1.0462    4.4341 H   0  0  0  0  0  0  0  0  0  0  0  0
    0.4419   -2.0459    5.7741 H   0  0  0  0  0  0  0  0  0  0  0  0
   -1.3560   -0.4857    5.2918 H   0  0  0  0  0  0  0  0  0  0  0  0
   -0.7939   -0.4057    6.9053 H   0  0  0  0  0  0  0  0  0  0  0  0
   -1.4981    3.0355    6.7184 H   0  0  0  0  0  0  0  0  0  0  0  0
   -1.2976    1.6331    7.7521 H   0  0  0  0  0  0  0  0  0  0  0  0
   -2.4557    1.5806    6.4713 H   0  0  0  0  0  0  0  0  0  0  0  0
   -0.4539    1.4495    2.1580 H   0  0  0  0  0  0  0  0  0  0  0  0
   -0.8759    0.0785    3.1537 H   0  0  0  0  0  0  0  0  0  0  0  0
    0.7650    0.6969    3.1223 H   0  0  0  0  0  0  0  0  0  0  0  0
   -2.2793    2.6156    2.9658 H   0  0  0  0  0  0  0  0  0  0  0  0
   -2.5471    3.0565    4.6369 H   0  0  0  0  0  0  0  0  0  0  0  0
   -2.7151    1.3826    4.1006 H   0  0  0  0  0  0  0  0  0  0  0  0
    1.0125    3.0210    3.3708 H   0  0  0  0  0  0  0  0  0  0  0  0
   -1.1058    4.8635    4.5599 H   0  0  0  0  0  0  0  0  0  0  0  0
   -0.9107    4.4864    2.8557 H   0  0  0  0  0  0  0  0  0  0  0  0
    0.3614    5.3383    3.7079 H   0  0  0  0  0  0  0  0  0  0  0  0
    2.0394    3.7581    5.3727 H   0  0  0  0  0  0  0  0  0  0  0  0
    0.5152    4.0309    6.0869 H   0  0  0  0  0  0  0  0  0  0  0  0
    0.5607    3.1347    8.0004 H   0  0  0  0  0  0  0  0  0  0  0  0
    2.2096    2.6088    7.9371 H   0  0  0  0  0  0  0  0  0  0  0  0
    0.9310    1.4996    8.3885 H   0  0  0  0  0  0  0  0  0  0  0  0
    4.5654   -1.2550    7.5005 H   0  0  0  0  0  0  0  0  0  0  0  0
    4.7759    0.0217    6.3182 H   0  0  0  0  0  0  0  0  0  0  0  0
    5.4645   -1.5113    6.0110 H   0  0  0  0  0  0  0  0  0  0  0  0
  1  2  1  0
  1 37  1  0
  1 38  1  0
  1 39  1  0
  2  3  1  0
  3  4  1  0
  3 40  1  0
  3 41  1  0
  4 35  1  0
  4  5  1  0
  4 42  1  1
  5 13  1  0
  5  6  1  0
  5 43  1  6
  6  7  1  6
  6  8  1  0
  6 16  1  0
  7 44  1  0
  7 45  1  0
  7 46  1  0
  8  9  1  0
  8 47  1  0
  8 48  1  0
  9 10  1  0
  9 49  1  0
  9 50  1  0
 10 11  1  0
 10 13  1  0
 10 51  1  1
 11 12  1  0
 12 52  1  0
 12 53  1  0
 12 54  1  0
 13 14  1  0
 13 15  1  0
 14 55  1  0
 14 56  1  0
 14 57  1  0
 15 58  1  0
 15 59  1  0
 15 60  1  0
 16 35  1  0
 16 17  2  0
 17 18  1  0
 17 61  1  0
 18 19  2  0
 18 20  1  0
 20 33  1  0
 20 21  1  0
 20 62  1  1
 21 22  1  1
 21 23  1  0
 21 35  1  0
 22 63  1  0
 22 64  1  0
 22 65  1  0
 23 24  1  0
 23 66  1  0
 23 67  1  0
 24 25  1  0
 24 68  1  0
 24 69  1  0
 25 33  1  0
 25 26  1  1
 25 27  1  0
 26 70  1  0
 26 71  1  0
 26 72  1  0
 27 28  1  0
 27 29  1  0
 27 30  1  0
 28 73  1  0
 28 74  1  0
 28 75  1  0
 29 76  1  0
 29 77  1  0
 29 78  1  0
 30 31  1  0
 30 32  1  0
 30 79  1  6
 31 80  1  0
 31 81  1  0
 31 82  1  0
 32 33  1  0
 32 83  1  0
 32 84  1  0
 33 34  1  1
 34 85  1  0
 34 86  1  0
 34 87  1  0
 35 36  1  1
 36 88  1  0
 36 89  1  0
 36 90  1  0
M  END
>  <i_m_ct_stereo_status>  (410) 
1

>  <s_m_source_file>  (410) 
/var/tmp/pbs.5076255.sched01/tmpsabrbf27/138opeauupd.sdf

>  <i_m_source_file_index>  (410) 
30

>  <i_lp_mmshare_version>  (410) 
48012

>  <i_f3d_flags>  (410) 
0

>  <s_epik_input>  (410) 
W0NIMl0xW0NIMl1bQ0BASF0oT1tDSDNdKUMoW0NIM10pKFtDSDNdKVtDQEhdKFtDQEBdMTJbQ0gzXSlbQ0BASF0oW0NIMl1PW0NIM10pW0NAQF0zKFtDSDNdKUMyPVtDSF1DKD1PKVtDQEBIXTRbQ0BAXTMoW0NIM10pW0NIMl1bQ0gyXVtDQEBdNShbQ0gzXSlbQ0BdNChbQ0gzXSlbQ0gyXVtDQEhdKFtDSDNdKUM1KFtDSDNdKVtDSDNd

>  <s_epik_cmdline>  (410) 
J2VwaWtfcHl0aG9uJywgJy1waHQnLCAnMi4wJywgJy1waCcsICc3LjAnLCAnLXRuJywgJzgnLCAnLW1hJywgJzIwMCcsICctaW1hZScsICc8aW5maWxlLm1hZT4nLCAnLW9tYWUnLCAnPG91dGZpbGUubWFlPic=

>  <r_lp_tautomer_probability>  (410) 
1

>  <r_epik_Ionization_Penalty>  (410) 
5.6539e-11

>  <r_epik_Ionization_Penalty_Charging>  (410) 
0

>  <r_epik_Ionization_Penalty_Neutral>  (410) 
5.6539e-11

>  <r_epik_State_Penalty>  (410) 
-0

>  <r_epik_Charging_Adjusted_Penalty>  (410) 
0

>  <i_epik_Tot_Q>  (410) 
0

>  <i_epik_Tot_abs_Q>  (410) 
0

>  <s_lp_Force_Field>  (410) 
OPLS3e

>  <r_lp_Energy>  (410) 
112.869

>  <b_lp_Chiralities_Consistent>  (410) 
1

>  <s_lp_Variant>  (410) 
103:0-1

>  <s_i_glide_gridfile>  (410) 
pfpi4k_grid

>  <i_i_glide_lignum>  (410) 
30

>  <i_i_glide_rotatable_bonds>  (410) 
3

>  <r_i_docking_score>  (410) 
-0.769859

>  <r_i_glide_ligand_efficiency>  (410) 
-0.021385

>  <r_i_glide_ligand_efficiency_sa>  (410) 
-0.0706116

>  <r_i_glide_ligand_efficiency_ln>  (410) 
-0.167962

>  <r_i_glide_gscore>  (410) 
-0.769859

>  <r_i_glide_lipo>  (410) 
-0.0526863

>  <r_i_glide_hbond>  (410) 
0

>  <r_i_glide_metal>  (410) 
-0

>  <r_i_glide_rewards>  (410) 
-0.00831777

>  <r_i_glide_evdw>  (410) 
-19.4746

>  <r_i_glide_ecoul>  (410) 
1.22574

>  <r_i_glide_erotb>  (410) 
0.0820332

>  <r_i_glide_esite>  (410) 
-0.0010168

>  <r_i_glide_emodel>  (410) 
-17.6952

>  <r_i_glide_energy>  (410) 
-18.2489

>  <r_i_glide_einternal>  (410) 
1.22086

>  <r_i_glide_intrahb_reward>  (410) 
-0

>  <i_i_glide_confnum>  (410) 
6

>  <i_i_glide_posenum>  (410) 
24

>  <r_i_glide_eff_state_penalty>  (410) 
0

>  <ligand_id>  (410) 
103

>  <original_smiles>  (410) 
COCC1C2C(C)(CCC(OC)C2(C)C)C2=CC(=O)C3C(C)(CCC4(C)C(C)(C)C(C)CC34C)C21C

>  <smiles>  (410) 
[H]C1=C2C3(C([H])([H])[H])C([H])([H])C([H])([H])C([H])(OC([H])([H])[H])C(C([H])([H])[H])(C([H])([H])[H])C3([H])C([H])(C([H])([H])OC([H])([H])[H])C2(C([H])([H])[H])C2(C([H])([H])[H])C([H])([H])C([H])([H])C3(C([H])([H])[H])C(C([H])([H])[H])(C([H])([H])C([H])(C([H])([H])[H])C3(C([H])([H])[H])C([H])([H])[H])C2([H])C1=O

$$$$
104:0:0
     RDKit          3D

 45 49  0  0  1  0  0  0  0  0999 V2000
    2.6342   -4.6121    4.3622 C   0  0  0  0  0  0  0  0  0  0  0  0
    2.6996   -4.6291    2.8232 C   0  0  2  0  0  0  0  0  0  0  0  0
    3.3632   -5.9054    2.2386 C   0  0  0  0  0  0  0  0  0  0  0  0
    4.3900   -5.4351    1.1680 C   0  0  1  0  0  0  0  0  0  0  0  0
    4.5042   -6.3283    0.0791 O   0  0  0  0  0  0  0  0  0  0  0  0
    3.9344   -4.0092    0.7762 C   0  0  1  0  0  0  0  0  0  0  0  0
    2.6388   -4.1124   -0.0901 C   0  0  0  0  0  0  0  0  0  0  0  0
    3.5801   -3.5340    2.2149 C   0  0  1  0  0  0  0  0  0  0  0  0
    3.2255   -2.0266    2.2985 C   0  0  0  0  0  0  0  0  0  0  0  0
    4.4413   -1.1536    1.8570 C   0  0  0  0  0  0  0  0  0  0  0  0
    5.5343   -2.0205    1.1860 C   0  0  2  0  0  0  0  0  0  0  0  0
    6.7392   -1.4168    0.4982 C   0  0  0  0  0  0  0  0  0  0  0  0
    7.2802   -2.5460   -0.1951 O   0  0  0  0  0  0  0  0  0  0  0  0
    6.3129   -3.5574   -0.4025 C   0  0  2  0  0  0  0  0  0  0  0  0
    6.1411   -3.7672   -1.7802 O   0  0  0  0  0  0  0  0  0  0  0  0
    5.1716   -2.9243   -2.2084 C   0  0  0  0  0  0  0  0  0  0  0  0
    4.9689   -2.6710   -3.5124 N   0  0  0  0  0  0  0  0  0  0  0  0
    4.0485   -1.7155   -3.7709 C   0  0  0  0  0  0  0  0  0  0  0  0
    3.3390   -1.0170   -2.7702 C   0  0  0  0  0  0  0  0  0  0  0  0
    3.5600   -1.3431   -1.4130 C   0  0  0  0  0  0  0  0  0  0  0  0
    4.5072   -2.3416   -1.1520 C   0  0  0  0  0  0  0  0  0  0  0  0
    4.9749   -2.9798    0.1446 C   0  0  1  0  0  0  0  0  0  0  0  0
    3.6201   -4.7022    4.8211 H   0  0  0  0  0  0  0  0  0  0  0  0
    2.0236   -5.4347    4.7344 H   0  0  0  0  0  0  0  0  0  0  0  0
    2.1847   -3.6879    4.7258 H   0  0  0  0  0  0  0  0  0  0  0  0
    1.6817   -4.5297    2.4453 H   0  0  0  0  0  0  0  0  0  0  0  0
    3.8779   -6.4773    3.0091 H   0  0  0  0  0  0  0  0  0  0  0  0
    2.5998   -6.5642    1.8245 H   0  0  0  0  0  0  0  0  0  0  0  0
    5.3665   -5.3942    1.6531 H   0  0  0  0  0  0  0  0  0  0  0  0
    3.7808   -6.1957   -0.5162 H   0  0  0  0  0  0  0  0  0  0  0  0
    2.0908   -3.1730   -0.1344 H   0  0  0  0  0  0  0  0  0  0  0  0
    1.9385   -4.8657    0.2601 H   0  0  0  0  0  0  0  0  0  0  0  0
    2.8664   -4.3924   -1.1190 H   0  0  0  0  0  0  0  0  0  0  0  0
    4.4646   -3.6290    2.8424 H   0  0  0  0  0  0  0  0  0  0  0  0
    2.3675   -1.8108    1.6609 H   0  0  0  0  0  0  0  0  0  0  0  0
    2.9292   -1.7617    3.3174 H   0  0  0  0  0  0  0  0  0  0  0  0
    4.1186   -0.3397    1.2100 H   0  0  0  0  0  0  0  0  0  0  0  0
    4.8737   -0.6771    2.7314 H   0  0  0  0  0  0  0  0  0  0  0  0
    6.0045   -2.6116    1.9758 H   0  0  0  0  0  0  0  0  0  0  0  0
    6.4589   -0.6107   -0.1799 H   0  0  0  0  0  0  0  0  0  0  0  0
    7.4761   -1.0517    1.2125 H   0  0  0  0  0  0  0  0  0  0  0  0
    6.6608   -4.4579    0.1012 H   0  0  0  0  0  0  0  0  0  0  0  0
    3.8969   -1.4829   -4.8183 H   0  0  0  0  0  0  0  0  0  0  0  0
    2.6259   -0.2543   -3.0446 H   0  0  0  0  0  0  0  0  0  0  0  0
    3.0140   -0.8515   -0.6245 H   0  0  0  0  0  0  0  0  0  0  0  0
  1  2  1  0
  1 23  1  0
  1 24  1  0
  1 25  1  0
  2  8  1  0
  2  3  1  0
  2 26  1  6
  3  4  1  0
  3 27  1  0
  3 28  1  0
  4  5  1  0
  4  6  1  0
  4 29  1  1
  5 30  1  0
  6 22  1  0
  6  7  1  6
  6  8  1  0
  7 31  1  0
  7 32  1  0
  7 33  1  0
  8  9  1  0
  8 34  1  1
  9 10  1  0
  9 35  1  0
  9 36  1  0
 10 11  1  0
 10 37  1  0
 10 38  1  0
 11 22  1  0
 11 12  1  0
 11 39  1  1
 12 13  1  0
 12 40  1  0
 12 41  1  0
 13 14  1  0
 14 22  1  0
 14 15  1  0
 14 42  1  1
 15 16  1  0
 16 21  2  0
 16 17  1  0
 17 18  2  0
 18 19  1  0
 18 43  1  0
 19 20  2  0
 19 44  1  0
 20 21  1  0
 20 45  1  0
 22 21  1  6
M  END
>  <i_m_ct_stereo_status>  (411) 
1

>  <s_m_source_file>  (411) 
/var/tmp/pbs.5076255.sched01/tmpsabrbf27/138opeauupd.sdf

>  <i_m_source_file_index>  (411) 
31

>  <i_lp_mmshare_version>  (411) 
48012

>  <i_f3d_flags>  (411) 
0

>  <s_epik_input>  (411) 
W09IXVtDQEBIXTFbQ0gyXVtDQEBIXShbQ0gzXSlbQ0BASF0oW0NAXTEoW0NAQF0yMzQpW0NIM10pW0NIMl1bQ0gyXVtDQEBIXTJbQ0gyXU9bQ0BASF0zT2M1YzRbY0hdW2NIXVtjSF1uNQ==

>  <s_epik_cmdline>  (411) 
J2VwaWtfcHl0aG9uJywgJy1waHQnLCAnMi4wJywgJy1waCcsICc3LjAnLCAnLXRuJywgJzgnLCAnLW1hJywgJzIwMCcsICctaW1hZScsICc8aW5maWxlLm1hZT4nLCAnLW9tYWUnLCAnPG91dGZpbGUubWFlPic=

>  <r_lp_tautomer_probability>  (411) 
1

>  <r_epik_Ionization_Penalty>  (411) 
0.00017921

>  <r_epik_Ionization_Penalty_Charging>  (411) 
0

>  <r_epik_Ionization_Penalty_Neutral>  (411) 
0.00017921

>  <r_epik_State_Penalty>  (411) 
-0

>  <r_epik_Charging_Adjusted_Penalty>  (411) 
0

>  <i_epik_Tot_Q>  (411) 
0

>  <i_epik_Tot_abs_Q>  (411) 
0

>  <s_epik_Chemistry_Notes>  (411) 
This compound contains an acetal/aminal-like group ( X-CH(R)-Y where X, Y are N, S, or O) that may be acid/base labile, releasing an aldehyde.

>  <s_lp_Force_Field>  (411) 
OPLS3e

>  <r_lp_Energy>  (411) 
54.2897

>  <b_lp_Chiralities_Consistent>  (411) 
1

>  <s_lp_Variant>  (411) 
104:0-1

>  <s_i_glide_gridfile>  (411) 
pfpi4k_grid

>  <i_i_glide_lignum>  (411) 
31

>  <i_i_glide_rotatable_bonds>  (411) 
1

>  <r_i_docking_score>  (411) 
-3.84839

>  <r_i_glide_ligand_efficiency>  (411) 
-0.174927

>  <r_i_glide_ligand_efficiency_sa>  (411) 
-0.490152

>  <r_i_glide_ligand_efficiency_ln>  (411) 
-0.940688

>  <r_i_glide_gscore>  (411) 
-3.84839

>  <r_i_glide_lipo>  (411) 
-0.487986

>  <r_i_glide_hbond>  (411) 
-0.170617

>  <r_i_glide_metal>  (411) 
-0

>  <r_i_glide_rewards>  (411) 
-1.47227

>  <r_i_glide_evdw>  (411) 
-24.2336

>  <r_i_glide_ecoul>  (411) 
-3.3723

>  <r_i_glide_erotb>  (411) 
0

>  <r_i_glide_esite>  (411) 
0

>  <r_i_glide_emodel>  (411) 
-33.9701

>  <r_i_glide_energy>  (411) 
-27.6059

>  <r_i_glide_einternal>  (411) 
0.395324

>  <r_i_glide_intrahb_reward>  (411) 
-0

>  <i_i_glide_confnum>  (411) 
1

>  <i_i_glide_posenum>  (411) 
9

>  <r_i_glide_eff_state_penalty>  (411) 
0

>  <ligand_id>  (411) 
104

>  <original_smiles>  (411) 
CC1CC(O)C2(C)C1CCC1COC3Oc4ncccc4C132

>  <smiles>  (411) 
[H]OC1([H])C([H])([H])C([H])(C([H])([H])[H])C2([H])C([H])([H])C([H])([H])C3([H])C([H])([H])OC4([H])Oc5nc([H])c([H])c([H])c5C43C12C([H])([H])[H]

$$$$
104:0:1
     RDKit          3D

 45 49  0  0  1  0  0  0  0  0999 V2000
    3.6932   -2.6054    5.1454 C   0  0  0  0  0  0  0  0  0  0  0  0
    3.2892   -2.8141    3.6764 C   0  0  2  0  0  0  0  0  0  0  0  0
    3.0324   -4.2986    3.3039 C   0  0  0  0  0  0  0  0  0  0  0  0
    3.7857   -4.5727    1.9674 C   0  0  1  0  0  0  0  0  0  0  0  0
    3.0614   -5.4584    1.1349 O   0  0  0  0  0  0  0  0  0  0  0  0
    4.0069   -3.1759    1.3404 C   0  0  1  0  0  0  0  0  0  0  0  0
    2.6435   -2.6551    0.7894 C   0  0  0  0  0  0  0  0  0  0  0  0
    4.3730   -2.4410    2.6623 C   0  0  1  0  0  0  0  0  0  0  0  0
    4.8451   -0.9862    2.4381 C   0  0  0  0  0  0  0  0  0  0  0  0
    6.1384   -0.9747    1.5667 C   0  0  0  0  0  0  0  0  0  0  0  0
    6.4118   -2.3500    0.9221 C   0  0  2  0  0  0  0  0  0  0  0  0
    7.5059   -2.5637   -0.0953 C   0  0  0  0  0  0  0  0  0  0  0  0
    7.1625   -3.8601   -0.5841 O   0  0  0  0  0  0  0  0  0  0  0  0
    5.8110   -4.2093   -0.3462 C   0  0  2  0  0  0  0  0  0  0  0  0
    5.1431   -4.4440   -1.5653 O   0  0  0  0  0  0  0  0  0  0  0  0
    4.6856   -3.2475   -2.0108 C   0  0  0  0  0  0  0  0  0  0  0  0
    4.2903   -3.0541   -3.2853 N   0  0  0  0  0  0  0  0  0  0  0  0
    3.9123   -1.7904   -3.5841 C   0  0  0  0  0  0  0  0  0  0  0  0
    3.9600   -0.7183   -2.6624 C   0  0  0  0  0  0  0  0  0  0  0  0
    4.3713   -0.9723   -1.3321 C   0  0  0  0  0  0  0  0  0  0  0  0
    4.7318   -2.2927   -1.0198 C   0  0  0  0  0  0  0  0  0  0  0  0
    5.1722   -2.9437    0.2800 C   0  0  1  0  0  0  0  0  0  0  0  0
    4.5910   -3.1662    5.4099 H   0  0  0  0  0  0  0  0  0  0  0  0
    2.8957   -2.9233    5.8177 H   0  0  0  0  0  0  0  0  0  0  0  0
    3.8881   -1.5538    5.3511 H   0  0  0  0  0  0  0  0  0  0  0  0
    2.3930   -2.2214    3.4863 H   0  0  0  0  0  0  0  0  0  0  0  0
    3.3897   -4.9791    4.0749 H   0  0  0  0  0  0  0  0  0  0  0  0
    1.9579   -4.4739    3.2122 H   0  0  0  0  0  0  0  0  0  0  0  0
    4.7469   -5.0297    2.2191 H   0  0  0  0  0  0  0  0  0  0  0  0
    3.5664   -5.6414    0.3554 H   0  0  0  0  0  0  0  0  0  0  0  0
    2.6379   -1.5787    0.6241 H   0  0  0  0  0  0  0  0  0  0  0  0
    1.8142   -2.8537    1.4660 H   0  0  0  0  0  0  0  0  0  0  0  0
    2.3721   -3.1342   -0.1544 H   0  0  0  0  0  0  0  0  0  0  0  0
    5.2345   -2.9331    3.1086 H   0  0  0  0  0  0  0  0  0  0  0  0
    4.0621   -0.4060    1.9491 H   0  0  0  0  0  0  0  0  0  0  0  0
    5.0396   -0.4975    3.3973 H   0  0  0  0  0  0  0  0  0  0  0  0
    6.0880   -0.1834    0.8194 H   0  0  0  0  0  0  0  0  0  0  0  0
    6.9814   -0.7173    2.2042 H   0  0  0  0  0  0  0  0  0  0  0  0
    6.7302   -3.0157    1.7255 H   0  0  0  0  0  0  0  0  0  0  0  0
    7.4877   -1.8500   -0.9082 H   0  0  0  0  0  0  0  0  0  0  0  0
    8.4982   -2.5832    0.3492 H   0  0  0  0  0  0  0  0  0  0  0  0
    5.8147   -5.0966    0.2890 H   0  0  0  0  0  0  0  0  0  0  0  0
    3.5759   -1.6226   -4.6007 H   0  0  0  0  0  0  0  0  0  0  0  0
    3.6617    0.2720   -2.9725 H   0  0  0  0  0  0  0  0  0  0  0  0
    4.3890   -0.1931   -0.5918 H   0  0  0  0  0  0  0  0  0  0  0  0
  1  2  1  0
  1 23  1  0
  1 24  1  0
  1 25  1  0
  2  8  1  0
  2  3  1  0
  2 26  1  6
  3  4  1  0
  3 27  1  0
  3 28  1  0
  4  5  1  0
  4  6  1  0
  4 29  1  1
  5 30  1  0
  6 22  1  0
  6  7  1  6
  6  8  1  0
  7 31  1  0
  7 32  1  0
  7 33  1  0
  8  9  1  0
  8 34  1  1
  9 10  1  0
  9 35  1  0
  9 36  1  0
 10 11  1  0
 10 37  1  0
 10 38  1  0
 11 22  1  0
 11 12  1  0
 11 39  1  1
 12 13  1  0
 12 40  1  0
 12 41  1  0
 13 14  1  0
 14 22  1  0
 14 15  1  0
 14 42  1  1
 15 16  1  0
 16 21  2  0
 16 17  1  0
 17 18  2  0
 18 19  1  0
 18 43  1  0
 19 20  2  0
 19 44  1  0
 20 21  1  0
 20 45  1  0
 22 21  1  6
M  END
>  <i_m_ct_stereo_status>  (412) 
1

>  <s_m_source_file>  (412) 
/var/tmp/pbs.5076255.sched01/tmpsabrbf27/138opeauupd.sdf

>  <i_m_source_file_index>  (412) 
31

>  <i_lp_mmshare_version>  (412) 
48012

>  <i_f3d_flags>  (412) 
0

>  <s_epik_input>  (412) 
W09IXVtDQEBIXTFbQ0gyXVtDQEBIXShbQ0gzXSlbQ0BASF0oW0NAXTEoW0NAQF0yMzQpW0NIM10pW0NIMl1bQ0gyXVtDQEBIXTJbQ0gyXU9bQ0BASF0zT2M1YzRbY0hdW2NIXVtjSF1uNQ==

>  <s_epik_cmdline>  (412) 
J2VwaWtfcHl0aG9uJywgJy1waHQnLCAnMi4wJywgJy1waCcsICc3LjAnLCAnLXRuJywgJzgnLCAnLW1hJywgJzIwMCcsICctaW1hZScsICc8aW5maWxlLm1hZT4nLCAnLW9tYWUnLCAnPG91dGZpbGUubWFlPic=

>  <r_lp_tautomer_probability>  (412) 
1

>  <r_epik_Ionization_Penalty>  (412) 
0.00017921

>  <r_epik_Ionization_Penalty_Charging>  (412) 
0

>  <r_epik_Ionization_Penalty_Neutral>  (412) 
0.00017921

>  <r_epik_State_Penalty>  (412) 
-0

>  <r_epik_Charging_Adjusted_Penalty>  (412) 
0

>  <i_epik_Tot_Q>  (412) 
0

>  <i_epik_Tot_abs_Q>  (412) 
0

>  <s_epik_Chemistry_Notes>  (412) 
This compound contains an acetal/aminal-like group ( X-CH(R)-Y where X, Y are N, S, or O) that may be acid/base labile, releasing an aldehyde.

>  <s_lp_Force_Field>  (412) 
OPLS3e

>  <r_lp_Energy>  (412) 
54.2897

>  <b_lp_Chiralities_Consistent>  (412) 
1

>  <s_lp_Variant>  (412) 
104:0-1

>  <s_i_glide_gridfile>  (412) 
pfpi4k_grid

>  <i_i_glide_lignum>  (412) 
31

>  <i_i_glide_rotatable_bonds>  (412) 
1

>  <r_i_docking_score>  (412) 
-3.41116

>  <r_i_glide_ligand_efficiency>  (412) 
-0.155053

>  <r_i_glide_ligand_efficiency_sa>  (412) 
-0.434464

>  <r_i_glide_ligand_efficiency_ln>  (412) 
-0.833813

>  <r_i_glide_gscore>  (412) 
-3.41116

>  <r_i_glide_lipo>  (412) 
-0.702284

>  <r_i_glide_hbond>  (412) 
0

>  <r_i_glide_metal>  (412) 
-0

>  <r_i_glide_rewards>  (412) 
-1.4158

>  <r_i_glide_evdw>  (412) 
-24.356

>  <r_i_glide_ecoul>  (412) 
-0.501821

>  <r_i_glide_erotb>  (412) 
0

>  <r_i_glide_esite>  (412) 
0

>  <r_i_glide_emodel>  (412) 
-30.5402

>  <r_i_glide_energy>  (412) 
-24.8578

>  <r_i_glide_einternal>  (412) 
0.325118

>  <r_i_glide_intrahb_reward>  (412) 
-0

>  <i_i_glide_confnum>  (412) 
2

>  <i_i_glide_posenum>  (412) 
20

>  <r_i_glide_eff_state_penalty>  (412) 
0

>  <ligand_id>  (412) 
104

>  <original_smiles>  (412) 
CC1CC(O)C2(C)C1CCC1COC3Oc4ncccc4C132

>  <smiles>  (412) 
[H]OC1([H])C([H])([H])C([H])(C([H])([H])[H])C2([H])C([H])([H])C([H])([H])C3([H])C([H])([H])OC4([H])Oc5nc([H])c([H])c([H])c5C43C12C([H])([H])[H]

$$$$
104:0:2
     RDKit          3D

 45 49  0  0  1  0  0  0  0  0999 V2000
    6.8403   -2.3582   -0.5048 C   0  0  0  0  0  0  0  0  0  0  0  0
    5.4037   -2.8596   -0.3064 C   0  0  2  0  0  0  0  0  0  0  0  0
    4.3979   -1.7391    0.0811 C   0  0  0  0  0  0  0  0  0  0  0  0
    3.5644   -2.2828    1.2814 C   0  0  1  0  0  0  0  0  0  0  0  0
    2.2114   -1.8390    1.2820 O   0  0  0  0  0  0  0  0  0  0  0  0
    3.7242   -3.8218    1.2159 C   0  0  1  0  0  0  0  0  0  0  0  0
    2.8761   -4.3629    0.0214 C   0  0  0  0  0  0  0  0  0  0  0  0
    5.2382   -3.8344    0.8585 C   0  0  1  0  0  0  0  0  0  0  0  0
    5.8670   -5.2508    0.8628 C   0  0  0  0  0  0  0  0  0  0  0  0
    5.7702   -5.8843    2.2858 C   0  0  0  0  0  0  0  0  0  0  0  0
    4.8266   -5.0624    3.1997 C   0  0  2  0  0  0  0  0  0  0  0  0
    4.4038   -5.5408    4.5766 C   0  0  0  0  0  0  0  0  0  0  0  0
    3.3612   -4.6069    4.8880 O   0  0  0  0  0  0  0  0  0  0  0  0
    2.7867   -4.0290    3.7307 C   0  0  2  0  0  0  0  0  0  0  0  0
    1.4265   -4.3795    3.6487 O   0  0  0  0  0  0  0  0  0  0  0  0
    1.3543   -5.5502    2.9650 C   0  0  0  0  0  0  0  0  0  0  0  0
    0.2249   -6.2836    2.9350 N   0  0  0  0  0  0  0  0  0  0  0  0
    0.3308   -7.4756    2.3020 C   0  0  0  0  0  0  0  0  0  0  0  0
    1.5225   -7.9280    1.6787 C   0  0  0  0  0  0  0  0  0  0  0  0
    2.6663   -7.1006    1.6817 C   0  0  0  0  0  0  0  0  0  0  0  0
    2.5452   -5.8653    2.3399 C   0  0  0  0  0  0  0  0  0  0  0  0
    3.5124   -4.7079    2.5258 C   0  0  1  0  0  0  0  0  0  0  0  0
    7.2375   -1.8548    0.3795 H   0  0  0  0  0  0  0  0  0  0  0  0
    6.8577   -1.6597   -1.3357 H   0  0  0  0  0  0  0  0  0  0  0  0
    7.5188   -3.1737   -0.7586 H   0  0  0  0  0  0  0  0  0  0  0  0
    5.0857   -3.3407   -1.2329 H   0  0  0  0  0  0  0  0  0  0  0  0
    4.9064   -0.8196    0.3716 H   0  0  0  0  0  0  0  0  0  0  0  0
    3.7699   -1.4901   -0.7740 H   0  0  0  0  0  0  0  0  0  0  0  0
    4.0364   -1.9108    2.1942 H   0  0  0  0  0  0  0  0  0  0  0  0
    1.9386   -1.5617    0.4072 H   0  0  0  0  0  0  0  0  0  0  0  0
    3.1849   -5.3599   -0.2914 H   0  0  0  0  0  0  0  0  0  0  0  0
    2.9385   -3.7432   -0.8723 H   0  0  0  0  0  0  0  0  0  0  0  0
    1.8207   -4.4035    0.2648 H   0  0  0  0  0  0  0  0  0  0  0  0
    5.7859   -3.3033    1.6321 H   0  0  0  0  0  0  0  0  0  0  0  0
    5.3525   -5.8869    0.1410 H   0  0  0  0  0  0  0  0  0  0  0  0
    6.9120   -5.2061    0.5446 H   0  0  0  0  0  0  0  0  0  0  0  0
    5.4706   -6.9271    2.2271 H   0  0  0  0  0  0  0  0  0  0  0  0
    6.7596   -5.8914    2.7348 H   0  0  0  0  0  0  0  0  0  0  0  0
    5.3468   -4.1336    3.4405 H   0  0  0  0  0  0  0  0  0  0  0  0
    4.0520   -6.5728    4.5674 H   0  0  0  0  0  0  0  0  0  0  0  0
    5.2052   -5.4455    5.3097 H   0  0  0  0  0  0  0  0  0  0  0  0
    2.9261   -2.9540    3.8043 H   0  0  0  0  0  0  0  0  0  0  0  0
   -0.5591   -8.0875    2.3016 H   0  0  0  0  0  0  0  0  0  0  0  0
    1.5314   -8.9001    1.2081 H   0  0  0  0  0  0  0  0  0  0  0  0
    3.5722   -7.4059    1.1881 H   0  0  0  0  0  0  0  0  0  0  0  0
  1  2  1  0
  1 23  1  0
  1 24  1  0
  1 25  1  0
  2  8  1  0
  2  3  1  0
  2 26  1  6
  3  4  1  0
  3 27  1  0
  3 28  1  0
  4  5  1  0
  4  6  1  0
  4 29  1  1
  5 30  1  0
  6 22  1  0
  6  7  1  6
  6  8  1  0
  7 31  1  0
  7 32  1  0
  7 33  1  0
  8  9  1  0
  8 34  1  1
  9 10  1  0
  9 35  1  0
  9 36  1  0
 10 11  1  0
 10 37  1  0
 10 38  1  0
 11 22  1  0
 11 12  1  0
 11 39  1  1
 12 13  1  0
 12 40  1  0
 12 41  1  0
 13 14  1  0
 14 22  1  0
 14 15  1  0
 14 42  1  1
 15 16  1  0
 16 21  2  0
 16 17  1  0
 17 18  2  0
 18 19  1  0
 18 43  1  0
 19 20  2  0
 19 44  1  0
 20 21  1  0
 20 45  1  0
 22 21  1  6
M  END
>  <i_m_ct_stereo_status>  (413) 
1

>  <s_m_source_file>  (413) 
/var/tmp/pbs.5076255.sched01/tmpsabrbf27/138opeauupd.sdf

>  <i_m_source_file_index>  (413) 
31

>  <i_lp_mmshare_version>  (413) 
48012

>  <i_f3d_flags>  (413) 
0

>  <s_epik_input>  (413) 
W09IXVtDQEBIXTFbQ0gyXVtDQEBIXShbQ0gzXSlbQ0BASF0oW0NAXTEoW0NAQF0yMzQpW0NIM10pW0NIMl1bQ0gyXVtDQEBIXTJbQ0gyXU9bQ0BASF0zT2M1YzRbY0hdW2NIXVtjSF1uNQ==

>  <s_epik_cmdline>  (413) 
J2VwaWtfcHl0aG9uJywgJy1waHQnLCAnMi4wJywgJy1waCcsICc3LjAnLCAnLXRuJywgJzgnLCAnLW1hJywgJzIwMCcsICctaW1hZScsICc8aW5maWxlLm1hZT4nLCAnLW9tYWUnLCAnPG91dGZpbGUubWFlPic=

>  <r_lp_tautomer_probability>  (413) 
1

>  <r_epik_Ionization_Penalty>  (413) 
0.00017921

>  <r_epik_Ionization_Penalty_Charging>  (413) 
0

>  <r_epik_Ionization_Penalty_Neutral>  (413) 
0.00017921

>  <r_epik_State_Penalty>  (413) 
-0

>  <r_epik_Charging_Adjusted_Penalty>  (413) 
0

>  <i_epik_Tot_Q>  (413) 
0

>  <i_epik_Tot_abs_Q>  (413) 
0

>  <s_epik_Chemistry_Notes>  (413) 
This compound contains an acetal/aminal-like group ( X-CH(R)-Y where X, Y are N, S, or O) that may be acid/base labile, releasing an aldehyde.

>  <s_lp_Force_Field>  (413) 
OPLS3e

>  <r_lp_Energy>  (413) 
54.2897

>  <b_lp_Chiralities_Consistent>  (413) 
1

>  <s_lp_Variant>  (413) 
104:0-1

>  <s_i_glide_gridfile>  (413) 
pfpi4k_grid

>  <i_i_glide_lignum>  (413) 
31

>  <i_i_glide_rotatable_bonds>  (413) 
1

>  <r_i_docking_score>  (413) 
-3.38415

>  <r_i_glide_ligand_efficiency>  (413) 
-0.153825

>  <r_i_glide_ligand_efficiency_sa>  (413) 
-0.431024

>  <r_i_glide_ligand_efficiency_ln>  (413) 
-0.82721

>  <r_i_glide_gscore>  (413) 
-3.38415

>  <r_i_glide_lipo>  (413) 
-0.193109

>  <r_i_glide_hbond>  (413) 
-0.274386

>  <r_i_glide_metal>  (413) 
-0

>  <r_i_glide_rewards>  (413) 
-1.35462

>  <r_i_glide_evdw>  (413) 
-19.1705

>  <r_i_glide_ecoul>  (413) 
-4.0234

>  <r_i_glide_erotb>  (413) 
0

>  <r_i_glide_esite>  (413) 
0

>  <r_i_glide_emodel>  (413) 
-28.3041

>  <r_i_glide_energy>  (413) 
-23.1939

>  <r_i_glide_einternal>  (413) 
0.865888

>  <r_i_glide_intrahb_reward>  (413) 
-0

>  <i_i_glide_confnum>  (413) 
2

>  <i_i_glide_posenum>  (413) 
29

>  <r_i_glide_eff_state_penalty>  (413) 
0

>  <ligand_id>  (413) 
104

>  <original_smiles>  (413) 
CC1CC(O)C2(C)C1CCC1COC3Oc4ncccc4C132

>  <smiles>  (413) 
[H]OC1([H])C([H])([H])C([H])(C([H])([H])[H])C2([H])C([H])([H])C([H])([H])C3([H])C([H])([H])OC4([H])Oc5nc([H])c([H])c([H])c5C43C12C([H])([H])[H]

$$$$
105:0:0
     RDKit          3D

 47 50  0  0  1  0  0  0  0  0999 V2000
    4.9286   -8.6640    1.5424 C   0  0  0  0  0  0  0  0  0  0  0  0
    3.9151   -7.5318    1.3154 C   0  0  2  0  0  0  0  0  0  0  0  0
    4.3576   -6.3475    2.0380 O   0  0  0  0  0  0  0  0  0  0  0  0
    3.4541   -5.4426    2.6029 C   0  0  0  0  0  0  0  0  0  0  0  0
    3.9538   -4.2612    2.9980 C   0  0  0  0  0  0  0  0  0  0  0  0
    3.1963   -3.0855    3.5891 C   0  0  0  0  0  0  0  0  0  0  0  0
    3.1036   -2.0120    2.6641 O   0  0  0  0  0  0  0  0  0  0  0  0
    4.3445   -1.3957    2.3426 C   0  0  0  0  0  0  0  0  0  0  0  0
    4.1213   -0.3525    1.2524 C   0  0  0  0  0  0  0  0  0  0  0  0
    5.3832    0.1375    0.8656 O   0  0  0  0  0  0  0  0  0  0  0  0
    1.9747   -5.8415    2.7269 C   0  0  1  0  0  0  0  0  0  0  0  0
    1.7316   -6.6365    1.4706 C   0  0  0  0  0  0  0  0  0  0  0  0
    1.0306   -6.2561    0.5207 O   0  0  0  0  0  0  0  0  0  0  0  0
    2.4538   -7.9783    1.5859 C   0  0  2  0  0  0  0  0  0  0  0  0
    2.1893   -8.5799    3.0198 C   0  0  1  0  0  0  0  0  0  0  0  0
    2.8920   -7.8623    4.1787 C   0  0  0  0  0  0  0  0  0  0  0  0
    1.7563   -6.8391    3.9075 C   0  0  1  0  0  0  0  0  0  0  0  0
    1.0161   -6.5341    5.0972 O   0  0  0  0  0  0  0  0  0  0  0  0
    0.5984   -8.0113    5.1347 O   0  0  0  0  0  0  0  0  0  0  0  0
    0.8637   -8.0838    3.6957 C   0  0  2  0  0  0  0  0  0  0  0  0
   -0.5108   -8.2041    2.9750 C   0  0  0  0  0  0  0  0  0  0  0  0
   -1.6861   -7.5342    3.7059 C   0  0  0  0  0  0  0  0  0  0  0  0
   -0.8267   -9.6705    2.6534 C   0  0  0  0  0  0  0  0  0  0  0  0
    4.6260   -9.5707    1.0197 H   0  0  0  0  0  0  0  0  0  0  0  0
    5.0421   -8.9178    2.5941 H   0  0  0  0  0  0  0  0  0  0  0  0
    5.9095   -8.3747    1.1717 H   0  0  0  0  0  0  0  0  0  0  0  0
    3.9787   -7.2661    0.2584 H   0  0  0  0  0  0  0  0  0  0  0  0
    5.0186   -4.1198    2.8562 H   0  0  0  0  0  0  0  0  0  0  0  0
    2.1852   -3.3741    3.8765 H   0  0  0  0  0  0  0  0  0  0  0  0
    3.6941   -2.7645    4.5036 H   0  0  0  0  0  0  0  0  0  0  0  0
    4.7904   -0.9432    3.2312 H   0  0  0  0  0  0  0  0  0  0  0  0
    5.0559   -2.1252    1.9562 H   0  0  0  0  0  0  0  0  0  0  0  0
    3.6169   -0.7986    0.3917 H   0  0  0  0  0  0  0  0  0  0  0  0
    3.5081    0.4712    1.6125 H   0  0  0  0  0  0  0  0  0  0  0  0
    5.2643    0.7744    0.1659 H   0  0  0  0  0  0  0  0  0  0  0  0
    1.2933   -4.9915    2.7680 H   0  0  0  0  0  0  0  0  0  0  0  0
    2.0958   -8.6791    0.8371 H   0  0  0  0  0  0  0  0  0  0  0  0
    2.3067   -9.6678    3.0742 H   0  0  0  0  0  0  0  0  0  0  0  0
    2.8571   -8.4071    5.1224 H   0  0  0  0  0  0  0  0  0  0  0  0
    3.9181   -7.5450    4.0091 H   0  0  0  0  0  0  0  0  0  0  0  0
   -0.4946   -7.7290    2.0047 H   0  0  0  0  0  0  0  0  0  0  0  0
   -1.8959   -8.0146    4.6633 H   0  0  0  0  0  0  0  0  0  0  0  0
   -2.5897   -7.6094    3.1015 H   0  0  0  0  0  0  0  0  0  0  0  0
   -1.4957   -6.4763    3.8879 H   0  0  0  0  0  0  0  0  0  0  0  0
   -0.9629  -10.2581    3.5642 H   0  0  0  0  0  0  0  0  0  0  0  0
   -0.0183  -10.1338    2.0821 H   0  0  0  0  0  0  0  0  0  0  0  0
   -1.7341   -9.7563    2.0506 H   0  0  0  0  0  0  0  0  0  0  0  0
  1  2  1  0
  1 24  1  0
  1 25  1  0
  1 26  1  0
  2 14  1  0
  2  3  1  0
  2 27  1  6
  3  4  1  0
  4  5  2  3
  4 11  1  0
  5  6  1  0
  5 28  1  0
  6  7  1  0
  6 29  1  0
  6 30  1  0
  7  8  1  0
  8  9  1  0
  8 31  1  0
  8 32  1  0
  9 10  1  0
  9 33  1  0
  9 34  1  0
 10 35  1  0
 11 17  1  0
 11 12  1  0
 11 36  1  1
 12 13  2  0
 12 14  1  0
 14 15  1  0
 14 37  1  6
 15 20  1  0
 15 16  1  0
 15 38  1  6
 16 17  1  0
 16 39  1  0
 16 40  1  0
 17 20  1  0
 17 18  1  1
 18 19  1  0
 19 20  1  0
 20 21  1  6
 21 22  1  0
 21 23  1  0
 21 41  1  0
 22 42  1  0
 22 43  1  0
 22 44  1  0
 23 45  1  0
 23 46  1  0
 23 47  1  0
M  END
>  <i_m_ct_stereo_status>  (414) 
1

>  <s_m_source_file>  (414) 
/var/tmp/pbs.5076255.sched01/tmpsabrbf27/138opeauupd.sdf

>  <i_m_source_file_index>  (414) 
32

>  <i_lp_mmshare_version>  (414) 
48012

>  <i_f3d_flags>  (414) 
0

>  <s_epik_input>  (414) 
TzFPW0NAXTIoW0NIXShbQ0gzXSlbQ0gzXSlbQ0BIXShbQ0gyXTMpW0NAQEhdKEM0PU8pW0NASF0oW0NIM10pTy9DKFtDQEBIXTRbQ0BAXTEyMyk9W0NIXS9bQ0gyXU9bQ0gyXVtDSDJdW09IXQ==

>  <s_epik_cmdline>  (414) 
J2VwaWtfcHl0aG9uJywgJy1waHQnLCAnMi4wJywgJy1waCcsICc3LjAnLCAnLXRuJywgJzgnLCAnLW1hJywgJzIwMCcsICctaW1hZScsICc8aW5maWxlLm1hZT4nLCAnLW9tYWUnLCAnPG91dGZpbGUubWFlPic=

>  <r_lp_tautomer_probability>  (414) 
1

>  <r_epik_Ionization_Penalty>  (414) 
5.15302e-08

>  <r_epik_Ionization_Penalty_Charging>  (414) 
0

>  <r_epik_Ionization_Penalty_Neutral>  (414) 
5.15302e-08

>  <r_epik_State_Penalty>  (414) 
-0

>  <r_epik_Charging_Adjusted_Penalty>  (414) 
0

>  <i_epik_Tot_Q>  (414) 
0

>  <i_epik_Tot_abs_Q>  (414) 
0

>  <s_lp_Force_Field>  (414) 
OPLS3e

>  <r_lp_Energy>  (414) 
75.9499

>  <b_lp_Chiralities_Consistent>  (414) 
1

>  <s_lp_Variant>  (414) 
105:0-1

>  <s_i_glide_gridfile>  (414) 
pfpi4k_grid

>  <i_i_glide_lignum>  (414) 
32

>  <i_i_glide_rotatable_bonds>  (414) 
6

>  <r_i_docking_score>  (414) 
-3.35843

>  <r_i_glide_ligand_efficiency>  (414) 
-0.146019

>  <r_i_glide_ligand_efficiency_sa>  (414) 
-0.415258

>  <r_i_glide_ligand_efficiency_ln>  (414) 
-0.812098

>  <r_i_glide_gscore>  (414) 
-3.35843

>  <r_i_glide_lipo>  (414) 
-0.248164

>  <r_i_glide_hbond>  (414) 
-0.680469

>  <r_i_glide_metal>  (414) 
-0

>  <r_i_glide_rewards>  (414) 
-1.19749

>  <r_i_glide_evdw>  (414) 
-18.4555

>  <r_i_glide_ecoul>  (414) 
-6.54038

>  <r_i_glide_erotb>  (414) 
0.71194

>  <r_i_glide_esite>  (414) 
-0.0404192

>  <r_i_glide_emodel>  (414) 
-29.8493

>  <r_i_glide_energy>  (414) 
-24.9959

>  <r_i_glide_einternal>  (414) 
2.46612

>  <r_i_glide_intrahb_reward>  (414) 
-0

>  <i_i_glide_confnum>  (414) 
2

>  <i_i_glide_posenum>  (414) 
31

>  <r_i_glide_eff_state_penalty>  (414) 
0

>  <ligand_id>  (414) 
105

>  <original_smiles>  (414) 
CC1OC(=CCOCCO)C2C(=O)C1C1CC23OOC13C(C)C

>  <smiles>  (414) 
[H]OC([H])([H])C([H])([H])OC([H])([H])C([H])=C1OC([H])(C([H])([H])[H])C2([H])C(=O)C1([H])C13OOC1(C([H])(C([H])([H])[H])C([H])([H])[H])C2([H])C3([H])[H]

$$$$
105:0:1
     RDKit          3D

 47 50  0  0  1  0  0  0  0  0999 V2000
    5.1463   -6.5981    0.9576 C   0  0  0  0  0  0  0  0  0  0  0  0
    3.7107   -6.0571    0.9798 C   0  0  2  0  0  0  0  0  0  0  0  0
    3.7177   -4.7305    1.5804 O   0  0  0  0  0  0  0  0  0  0  0  0
    2.6484   -4.2442    2.3498 C   0  0  0  0  0  0  0  0  0  0  0  0
    2.6199   -2.9242    2.6093 C   0  0  0  0  0  0  0  0  0  0  0  0
    1.5796   -2.1638    3.4028 C   0  0  0  0  0  0  0  0  0  0  0  0
    0.9679   -1.1293    2.6483 O   0  0  0  0  0  0  0  0  0  0  0  0
    1.6828    0.1001    2.6177 C   0  0  0  0  0  0  0  0  0  0  0  0
    0.8297    1.1665    1.9084 C   0  0  0  0  0  0  0  0  0  0  0  0
    1.4145    2.4479    2.0791 O   0  0  0  0  0  0  0  0  0  0  0  0
    1.5823   -5.2577    2.8322 C   0  0  1  0  0  0  0  0  0  0  0  0
    1.4740   -6.2136    1.6684 C   0  0  0  0  0  0  0  0  0  0  0  0
    0.5027   -6.2630    0.8882 O   0  0  0  0  0  0  0  0  0  0  0  0
    2.7190   -7.0672    1.6014 C   0  0  2  0  0  0  0  0  0  0  0  0
    3.0439   -7.5844    3.0317 C   0  0  1  0  0  0  0  0  0  0  0  0
    3.5893   -6.5270    4.0133 C   0  0  0  0  0  0  0  0  0  0  0  0
    2.0958   -6.1262    4.0298 C   0  0  1  0  0  0  0  0  0  0  0  0
    1.5568   -6.0393    5.3288 O   0  0  0  0  0  0  0  0  0  0  0  0
    1.8477   -7.5429    5.4646 O   0  0  0  0  0  0  0  0  0  0  0  0
    1.8368   -7.6438    4.0351 C   0  0  2  0  0  0  0  0  0  0  0  0
    0.5360   -8.4193    3.6527 C   0  0  0  0  0  0  0  0  0  0  0  0
   -0.7662   -7.8180    4.2019 C   0  0  0  0  0  0  0  0  0  0  0  0
    0.6561   -9.9093    4.0183 C   0  0  0  0  0  0  0  0  0  0  0  0
    5.1723   -7.5933    0.5155 H   0  0  0  0  0  0  0  0  0  0  0  0
    5.5839   -6.6710    1.9503 H   0  0  0  0  0  0  0  0  0  0  0  0
    5.7845   -5.9484    0.3644 H   0  0  0  0  0  0  0  0  0  0  0  0
    3.4122   -5.9038   -0.0538 H   0  0  0  0  0  0  0  0  0  0  0  0
    3.4382   -2.3319    2.2168 H   0  0  0  0  0  0  0  0  0  0  0  0
    0.7839   -2.8197    3.7501 H   0  0  0  0  0  0  0  0  0  0  0  0
    2.0474   -1.7691    4.3102 H   0  0  0  0  0  0  0  0  0  0  0  0
    1.8809    0.4168    3.6410 H   0  0  0  0  0  0  0  0  0  0  0  0
    2.6405   -0.0244    2.1126 H   0  0  0  0  0  0  0  0  0  0  0  0
    0.7212    0.9349    0.8559 H   0  0  0  0  0  0  0  0  0  0  0  0
   -0.1705    1.1878    2.3408 H   0  0  0  0  0  0  0  0  0  0  0  0
    0.8982    3.1114    1.5984 H   0  0  0  0  0  0  0  0  0  0  0  0
    0.6203   -4.8032    3.0429 H   0  0  0  0  0  0  0  0  0  0  0  0
    2.5460   -7.9147    0.9167 H   0  0  0  0  0  0  0  0  0  0  0  0
    3.6531   -8.5057    3.0705 H   0  0  0  0  0  0  0  0  0  0  0  0
    3.9980   -6.9271    4.9373 H   0  0  0  0  0  0  0  0  0  0  0  0
    4.2988   -5.8022    3.5999 H   0  0  0  0  0  0  0  0  0  0  0  0
    0.4208   -8.4450    2.5720 H   0  0  0  0  0  0  0  0  0  0  0  0
   -0.8003   -7.8543    5.2919 H   0  0  0  0  0  0  0  0  0  0  0  0
   -1.6294   -8.3811    3.8383 H   0  0  0  0  0  0  0  0  0  0  0  0
   -0.8975   -6.7814    3.8903 H   0  0  0  0  0  0  0  0  0  0  0  0
    0.7001  -10.0662    5.1010 H   0  0  0  0  0  0  0  0  0  0  0  0
    1.5518  -10.3503    3.5764 H   0  0  0  0  0  0  0  0  0  0  0  0
   -0.1978  -10.4750    3.6402 H   0  0  0  0  0  0  0  0  0  0  0  0
  1  2  1  0
  1 24  1  0
  1 25  1  0
  1 26  1  0
  2 14  1  0
  2  3  1  0
  2 27  1  6
  3  4  1  0
  4  5  2  3
  4 11  1  0
  5  6  1  0
  5 28  1  0
  6  7  1  0
  6 29  1  0
  6 30  1  0
  7  8  1  0
  8  9  1  0
  8 31  1  0
  8 32  1  0
  9 10  1  0
  9 33  1  0
  9 34  1  0
 10 35  1  0
 11 17  1  0
 11 12  1  0
 11 36  1  1
 12 13  2  0
 12 14  1  0
 14 15  1  0
 14 37  1  6
 15 20  1  0
 15 16  1  0
 15 38  1  6
 16 17  1  0
 16 39  1  0
 16 40  1  0
 17 20  1  0
 17 18  1  1
 18 19  1  0
 19 20  1  0
 20 21  1  6
 21 22  1  0
 21 23  1  0
 21 41  1  0
 22 42  1  0
 22 43  1  0
 22 44  1  0
 23 45  1  0
 23 46  1  0
 23 47  1  0
M  END
>  <i_m_ct_stereo_status>  (415) 
1

>  <s_m_source_file>  (415) 
/var/tmp/pbs.5076255.sched01/tmpsabrbf27/138opeauupd.sdf

>  <i_m_source_file_index>  (415) 
32

>  <i_lp_mmshare_version>  (415) 
48012

>  <i_f3d_flags>  (415) 
0

>  <s_epik_input>  (415) 
TzFPW0NAXTIoW0NIXShbQ0gzXSlbQ0gzXSlbQ0BIXShbQ0gyXTMpW0NAQEhdKEM0PU8pW0NASF0oW0NIM10pTy9DKFtDQEBIXTRbQ0BAXTEyMyk9W0NIXS9bQ0gyXU9bQ0gyXVtDSDJdW09IXQ==

>  <s_epik_cmdline>  (415) 
J2VwaWtfcHl0aG9uJywgJy1waHQnLCAnMi4wJywgJy1waCcsICc3LjAnLCAnLXRuJywgJzgnLCAnLW1hJywgJzIwMCcsICctaW1hZScsICc8aW5maWxlLm1hZT4nLCAnLW9tYWUnLCAnPG91dGZpbGUubWFlPic=

>  <r_lp_tautomer_probability>  (415) 
1

>  <r_epik_Ionization_Penalty>  (415) 
5.15302e-08

>  <r_epik_Ionization_Penalty_Charging>  (415) 
0

>  <r_epik_Ionization_Penalty_Neutral>  (415) 
5.15302e-08

>  <r_epik_State_Penalty>  (415) 
-0

>  <r_epik_Charging_Adjusted_Penalty>  (415) 
0

>  <i_epik_Tot_Q>  (415) 
0

>  <i_epik_Tot_abs_Q>  (415) 
0

>  <s_lp_Force_Field>  (415) 
OPLS3e

>  <r_lp_Energy>  (415) 
75.9499

>  <b_lp_Chiralities_Consistent>  (415) 
1

>  <s_lp_Variant>  (415) 
105:0-1

>  <s_i_glide_gridfile>  (415) 
pfpi4k_grid

>  <i_i_glide_lignum>  (415) 
32

>  <i_i_glide_rotatable_bonds>  (415) 
6

>  <r_i_docking_score>  (415) 
-2.94609

>  <r_i_glide_ligand_efficiency>  (415) 
-0.128091

>  <r_i_glide_ligand_efficiency_sa>  (415) 
-0.364274

>  <r_i_glide_ligand_efficiency_ln>  (415) 
-0.712392

>  <r_i_glide_gscore>  (415) 
-2.94609

>  <r_i_glide_lipo>  (415) 
-0.182966

>  <r_i_glide_hbond>  (415) 
-0.32

>  <r_i_glide_metal>  (415) 
-0

>  <r_i_glide_rewards>  (415) 
-1.19749

>  <r_i_glide_evdw>  (415) 
-17.2354

>  <r_i_glide_ecoul>  (415) 
-6.91354

>  <r_i_glide_erotb>  (415) 
0.71194

>  <r_i_glide_esite>  (415) 
-0.0587804

>  <r_i_glide_emodel>  (415) 
-28.7864

>  <r_i_glide_energy>  (415) 
-24.1489

>  <r_i_glide_einternal>  (415) 
1.41094

>  <r_i_glide_intrahb_reward>  (415) 
-0

>  <i_i_glide_confnum>  (415) 
2

>  <i_i_glide_posenum>  (415) 
26

>  <r_i_glide_eff_state_penalty>  (415) 
0

>  <ligand_id>  (415) 
105

>  <original_smiles>  (415) 
CC1OC(=CCOCCO)C2C(=O)C1C1CC23OOC13C(C)C

>  <smiles>  (415) 
[H]OC([H])([H])C([H])([H])OC([H])([H])C([H])=C1OC([H])(C([H])([H])[H])C2([H])C(=O)C1([H])C13OOC1(C([H])(C([H])([H])[H])C([H])([H])[H])C2([H])C3([H])[H]

$$$$
105:0:2
     RDKit          3D

 47 50  0  0  1  0  0  0  0  0999 V2000
    5.1310   -7.1227    1.9422 C   0  0  0  0  0  0  0  0  0  0  0  0
    3.8051   -6.4226    1.6123 C   0  0  2  0  0  0  0  0  0  0  0  0
    3.7164   -5.1867    2.3761 O   0  0  0  0  0  0  0  0  0  0  0  0
    2.4969   -4.6839    2.8414 C   0  0  0  0  0  0  0  0  0  0  0  0
    2.4944   -3.4147    3.2792 C   0  0  0  0  0  0  0  0  0  0  0  0
    1.3097   -2.6198    3.8093 C   0  0  0  0  0  0  0  0  0  0  0  0
    1.0263   -1.4921    2.9921 O   0  0  0  0  0  0  0  0  0  0  0  0
    1.9865   -0.4476    3.0840 C   0  0  0  0  0  0  0  0  0  0  0  0
    1.5465    0.7359    2.2170 C   0  0  0  0  0  0  0  0  0  0  0  0
    2.3724    1.8484    2.4936 O   0  0  0  0  0  0  0  0  0  0  0  0
    1.2629   -5.6011    2.8111 C   0  0  1  0  0  0  0  0  0  0  0  0
    1.4441   -6.3901    1.5314 C   0  0  0  0  0  0  0  0  0  0  0  0
    0.7554   -6.2577    0.5187 O   0  0  0  0  0  0  0  0  0  0  0  0
    2.5907   -7.3762    1.7171 C   0  0  2  0  0  0  0  0  0  0  0  0
    2.4153   -8.0947    3.1149 C   0  0  1  0  0  0  0  0  0  0  0  0
    2.6932   -7.2246    4.3429 C   0  0  0  0  0  0  0  0  0  0  0  0
    1.3031   -6.6538    3.9569 C   0  0  1  0  0  0  0  0  0  0  0  0
    0.3840   -6.6789    5.0606 O   0  0  0  0  0  0  0  0  0  0  0  0
    0.5101   -8.2047    5.0498 O   0  0  0  0  0  0  0  0  0  0  0  0
    0.9338   -8.1256    3.6521 C   0  0  2  0  0  0  0  0  0  0  0  0
   -0.2245   -8.6986    2.7920 C   0  0  0  0  0  0  0  0  0  0  0  0
   -1.6322   -8.2323    3.2039 C   0  0  0  0  0  0  0  0  0  0  0  0
   -0.1438  -10.2269    2.7187 C   0  0  0  0  0  0  0  0  0  0  0  0
    5.2262   -8.0547    1.3872 H   0  0  0  0  0  0  0  0  0  0  0  0
    5.2214   -7.3630    2.9995 H   0  0  0  0  0  0  0  0  0  0  0  0
    5.9730   -6.4878    1.6788 H   0  0  0  0  0  0  0  0  0  0  0  0
    3.8708   -6.1114    0.5657 H   0  0  0  0  0  0  0  0  0  0  0  0
    3.4416   -2.8912    3.2551 H   0  0  0  0  0  0  0  0  0  0  0  0
    0.4113   -3.2319    3.8560 H   0  0  0  0  0  0  0  0  0  0  0  0
    1.5202   -2.3098    4.8340 H   0  0  0  0  0  0  0  0  0  0  0  0
    2.0797   -0.1338    4.1256 H   0  0  0  0  0  0  0  0  0  0  0  0
    2.9696   -0.7809    2.7512 H   0  0  0  0  0  0  0  0  0  0  0  0
    1.5888    0.4840    1.1560 H   0  0  0  0  0  0  0  0  0  0  0  0
    0.5166    1.0091    2.4463 H   0  0  0  0  0  0  0  0  0  0  0  0
    3.2438    1.6908    2.1559 H   0  0  0  0  0  0  0  0  0  0  0  0
    0.3206   -5.0618    2.7904 H   0  0  0  0  0  0  0  0  0  0  0  0
    2.5866   -8.1065    0.9074 H   0  0  0  0  0  0  0  0  0  0  0  0
    2.9025   -9.0708    3.1806 H   0  0  0  0  0  0  0  0  0  0  0  0
    2.7591   -7.7763    5.2817 H   0  0  0  0  0  0  0  0  0  0  0  0
    3.5440   -6.5494    4.2902 H   0  0  0  0  0  0  0  0  0  0  0  0
   -0.1181   -8.4059    1.7553 H   0  0  0  0  0  0  0  0  0  0  0  0
   -1.9079   -8.5900    4.2005 H   0  0  0  0  0  0  0  0  0  0  0  0
   -2.3770   -8.6208    2.5083 H   0  0  0  0  0  0  0  0  0  0  0  0
   -1.7142   -7.1448    3.1954 H   0  0  0  0  0  0  0  0  0  0  0  0
   -0.3204  -10.6861    3.6928 H   0  0  0  0  0  0  0  0  0  0  0  0
    0.8376  -10.5531    2.3712 H   0  0  0  0  0  0  0  0  0  0  0  0
   -0.8759  -10.6188    2.0121 H   0  0  0  0  0  0  0  0  0  0  0  0
  1  2  1  0
  1 24  1  0
  1 25  1  0
  1 26  1  0
  2 14  1  0
  2  3  1  0
  2 27  1  6
  3  4  1  0
  4  5  2  3
  4 11  1  0
  5  6  1  0
  5 28  1  0
  6  7  1  0
  6 29  1  0
  6 30  1  0
  7  8  1  0
  8  9  1  0
  8 31  1  0
  8 32  1  0
  9 10  1  0
  9 33  1  0
  9 34  1  0
 10 35  1  0
 11 17  1  0
 11 12  1  0
 11 36  1  6
 12 13  2  0
 12 14  1  0
 14 15  1  0
 14 37  1  6
 15 20  1  0
 15 16  1  0
 15 38  1  6
 16 17  1  0
 16 39  1  0
 16 40  1  0
 17 20  1  0
 17 18  1  1
 18 19  1  0
 19 20  1  0
 20 21  1  6
 21 22  1  0
 21 23  1  0
 21 41  1  0
 22 42  1  0
 22 43  1  0
 22 44  1  0
 23 45  1  0
 23 46  1  0
 23 47  1  0
M  END
>  <i_m_ct_stereo_status>  (416) 
1

>  <s_m_source_file>  (416) 
/var/tmp/pbs.5076255.sched01/tmpsabrbf27/138opeauupd.sdf

>  <i_m_source_file_index>  (416) 
32

>  <i_lp_mmshare_version>  (416) 
48012

>  <i_f3d_flags>  (416) 
0

>  <s_epik_input>  (416) 
TzFPW0NAXTIoW0NIXShbQ0gzXSlbQ0gzXSlbQ0BIXShbQ0gyXTMpW0NAQEhdKEM0PU8pW0NASF0oW0NIM10pTy9DKFtDQEBIXTRbQ0BAXTEyMyk9W0NIXS9bQ0gyXU9bQ0gyXVtDSDJdW09IXQ==

>  <s_epik_cmdline>  (416) 
J2VwaWtfcHl0aG9uJywgJy1waHQnLCAnMi4wJywgJy1waCcsICc3LjAnLCAnLXRuJywgJzgnLCAnLW1hJywgJzIwMCcsICctaW1hZScsICc8aW5maWxlLm1hZT4nLCAnLW9tYWUnLCAnPG91dGZpbGUubWFlPic=

>  <r_lp_tautomer_probability>  (416) 
1

>  <r_epik_Ionization_Penalty>  (416) 
5.15302e-08

>  <r_epik_Ionization_Penalty_Charging>  (416) 
0

>  <r_epik_Ionization_Penalty_Neutral>  (416) 
5.15302e-08

>  <r_epik_State_Penalty>  (416) 
-0

>  <r_epik_Charging_Adjusted_Penalty>  (416) 
0

>  <i_epik_Tot_Q>  (416) 
0

>  <i_epik_Tot_abs_Q>  (416) 
0

>  <s_lp_Force_Field>  (416) 
OPLS3e

>  <r_lp_Energy>  (416) 
75.9499

>  <b_lp_Chiralities_Consistent>  (416) 
1

>  <s_lp_Variant>  (416) 
105:0-1

>  <s_i_glide_gridfile>  (416) 
pfpi4k_grid

>  <i_i_glide_lignum>  (416) 
32

>  <i_i_glide_rotatable_bonds>  (416) 
6

>  <r_i_docking_score>  (416) 
-2.42869

>  <r_i_glide_ligand_efficiency>  (416) 
-0.105595

>  <r_i_glide_ligand_efficiency_sa>  (416) 
-0.300299

>  <r_i_glide_ligand_efficiency_ln>  (416) 
-0.587279

>  <r_i_glide_gscore>  (416) 
-2.42869

>  <r_i_glide_lipo>  (416) 
-0.177287

>  <r_i_glide_hbond>  (416) 
-0.213908

>  <r_i_glide_metal>  (416) 
-0

>  <r_i_glide_rewards>  (416) 
-1.19749

>  <r_i_glide_evdw>  (416) 
-20.6343

>  <r_i_glide_ecoul>  (416) 
-3.08373

>  <r_i_glide_erotb>  (416) 
0.71194

>  <r_i_glide_esite>  (416) 
-0.0576736

>  <r_i_glide_emodel>  (416) 
-27.7449

>  <r_i_glide_energy>  (416) 
-23.7181

>  <r_i_glide_einternal>  (416) 
0.819806

>  <r_i_glide_intrahb_reward>  (416) 
-0

>  <i_i_glide_confnum>  (416) 
3

>  <i_i_glide_posenum>  (416) 
38

>  <r_i_glide_eff_state_penalty>  (416) 
0

>  <ligand_id>  (416) 
105

>  <original_smiles>  (416) 
CC1OC(=CCOCCO)C2C(=O)C1C1CC23OOC13C(C)C

>  <smiles>  (416) 
[H]OC([H])([H])C([H])([H])OC([H])([H])C([H])=C1OC([H])(C([H])([H])[H])C2([H])C(=O)C1([H])C13OOC1(C([H])(C([H])([H])[H])C([H])([H])[H])C2([H])C3([H])[H]

$$$$
105:1:0
     RDKit          3D

 47 50  0  0  1  0  0  0  0  0999 V2000
    4.9962   -0.0673    5.4392 C   0  0  0  0  0  0  0  0  0  0  0  0
    4.2249    0.1248    4.1230 C   0  0  2  0  0  0  0  0  0  0  0  0
    2.7902    0.0665    4.3803 O   0  0  0  0  0  0  0  0  0  0  0  0
    1.8926   -0.4186    3.4230 C   0  0  0  0  0  0  0  0  0  0  0  0
    0.5843   -0.1475    3.5638 C   0  0  0  0  0  0  0  0  0  0  0  0
   -0.0251    0.6539    4.7018 C   0  0  0  0  0  0  0  0  0  0  0  0
   -1.0760    1.4982    4.2570 O   0  0  0  0  0  0  0  0  0  0  0  0
   -0.6265    2.6708    3.5946 C   0  0  0  0  0  0  0  0  0  0  0  0
   -1.8379    3.5368    3.2188 C   0  0  0  0  0  0  0  0  0  0  0  0
   -1.4163    4.8459    2.8842 O   0  0  0  0  0  0  0  0  0  0  0  0
    2.4413   -1.2465    2.2462 C   0  0  1  0  0  0  0  0  0  0  0  0
    3.7307   -0.5296    1.9051 C   0  0  0  0  0  0  0  0  0  0  0  0
    3.9339    0.1425    0.8952 O   0  0  0  0  0  0  0  0  0  0  0  0
    4.7519   -0.8044    3.0005 C   0  0  2  0  0  0  0  0  0  0  0  0
    4.7415   -2.3503    3.3339 C   0  0  1  0  0  0  0  0  0  0  0  0
    3.5016   -2.8423    4.0945 C   0  0  0  0  0  0  0  0  0  0  0  0
    2.8721   -2.6802    2.6861 C   0  0  1  0  0  0  0  0  0  0  0  0
    2.2148   -3.8862    2.2636 O   0  0  0  0  0  0  0  0  0  0  0  0
    3.5845   -4.5760    2.3069 O   0  0  0  0  0  0  0  0  0  0  0  0
    4.2084   -3.2655    2.1735 C   0  0  2  0  0  0  0  0  0  0  0  0
    4.8246   -3.2068    0.7509 C   0  0  0  0  0  0  0  0  0  0  0  0
    3.8313   -3.4774   -0.3944 C   0  0  0  0  0  0  0  0  0  0  0  0
    6.0588   -4.1156    0.6393 C   0  0  0  0  0  0  0  0  0  0  0  0
    6.0730   -0.0243    5.2727 H   0  0  0  0  0  0  0  0  0  0  0  0
    4.7802   -1.0223    5.9154 H   0  0  0  0  0  0  0  0  0  0  0  0
    4.7374    0.7175    6.1471 H   0  0  0  0  0  0  0  0  0  0  0  0
    4.4194    1.1491    3.7966 H   0  0  0  0  0  0  0  0  0  0  0  0
   -0.1122   -0.5281    2.8286 H   0  0  0  0  0  0  0  0  0  0  0  0
   -0.4467   -0.0570    5.4084 H   0  0  0  0  0  0  0  0  0  0  0  0
    0.7339    1.2186    5.2442 H   0  0  0  0  0  0  0  0  0  0  0  0
    0.0273    3.2215    4.2719 H   0  0  0  0  0  0  0  0  0  0  0  0
   -0.0504    2.4175    2.7039 H   0  0  0  0  0  0  0  0  0  0  0  0
   -2.3859    3.0936    2.3853 H   0  0  0  0  0  0  0  0  0  0  0  0
   -2.5239    3.6073    4.0611 H   0  0  0  0  0  0  0  0  0  0  0  0
   -0.8129    4.7680    2.1406 H   0  0  0  0  0  0  0  0  0  0  0  0
    1.7621   -1.2607    1.3930 H   0  0  0  0  0  0  0  0  0  0  0  0
    5.7410   -0.4961    2.6644 H   0  0  0  0  0  0  0  0  0  0  0  0
    5.6702   -2.7286    3.7696 H   0  0  0  0  0  0  0  0  0  0  0  0
    3.5969   -3.8594    4.4822 H   0  0  0  0  0  0  0  0  0  0  0  0
    3.1257   -2.2010    4.8883 H   0  0  0  0  0  0  0  0  0  0  0  0
    5.2260   -2.2165    0.5689 H   0  0  0  0  0  0  0  0  0  0  0  0
    3.4461   -4.4995   -0.3774 H   0  0  0  0  0  0  0  0  0  0  0  0
    4.3211   -3.3345   -1.3604 H   0  0  0  0  0  0  0  0  0  0  0  0
    2.9847   -2.7896   -0.3636 H   0  0  0  0  0  0  0  0  0  0  0  0
    5.7981   -5.1732    0.7300 H   0  0  0  0  0  0  0  0  0  0  0  0
    6.7889   -3.8787    1.4157 H   0  0  0  0  0  0  0  0  0  0  0  0
    6.5557   -3.9777   -0.3243 H   0  0  0  0  0  0  0  0  0  0  0  0
  1  2  1  0
  1 24  1  0
  1 25  1  0
  1 26  1  0
  2 14  1  0
  2  3  1  0
  2 27  1  6
  3  4  1  0
  4  5  2  3
  4 11  1  0
  5  6  1  0
  5 28  1  0
  6  7  1  0
  6 29  1  0
  6 30  1  0
  7  8  1  0
  8  9  1  0
  8 31  1  0
  8 32  1  0
  9 10  1  0
  9 33  1  0
  9 34  1  0
 10 35  1  0
 11 17  1  0
 11 12  1  0
 11 36  1  6
 12 13  2  0
 12 14  1  0
 14 15  1  0
 14 37  1  6
 15 20  1  0
 15 16  1  0
 15 38  1  1
 16 17  1  0
 16 39  1  0
 16 40  1  0
 17 20  1  0
 17 18  1  1
 18 19  1  0
 19 20  1  0
 20 21  1  6
 21 22  1  0
 21 23  1  0
 21 41  1  0
 22 42  1  0
 22 43  1  0
 22 44  1  0
 23 45  1  0
 23 46  1  0
 23 47  1  0
M  END
>  <i_m_ct_stereo_status>  (417) 
1

>  <s_m_source_file>  (417) 
/var/tmp/pbs.5076255.sched01/tmpsabrbf27/138opeauupd.sdf

>  <i_m_source_file_index>  (417) 
33

>  <i_lp_mmshare_version>  (417) 
48012

>  <i_f3d_flags>  (417) 
0

>  <s_epik_input>  (417) 
TzFPW0NAXTIoW0NIXShbQ0gzXSlbQ0gzXSlbQ0BIXShbQ0gyXTMpW0NAQEhdKEM0PU8pW0NASF0oW0NIM10pTy9DKFtDQEBIXTRbQ0BAXTEyMyk9W0NIXS9bQ0gyXU9bQ0gyXVtDSDJdW09IXQ==

>  <s_epik_cmdline>  (417) 
J2VwaWtfcHl0aG9uJywgJy1waHQnLCAnMi4wJywgJy1waCcsICc3LjAnLCAnLXRuJywgJzgnLCAnLW1hJywgJzIwMCcsICctaW1hZScsICc8aW5maWxlLm1hZT4nLCAnLW9tYWUnLCAnPG91dGZpbGUubWFlPic=

>  <r_lp_tautomer_probability>  (417) 
1

>  <r_epik_Ionization_Penalty>  (417) 
5.15302e-08

>  <r_epik_Ionization_Penalty_Charging>  (417) 
0

>  <r_epik_Ionization_Penalty_Neutral>  (417) 
5.15302e-08

>  <r_epik_State_Penalty>  (417) 
-0

>  <r_epik_Charging_Adjusted_Penalty>  (417) 
0

>  <i_epik_Tot_Q>  (417) 
0

>  <i_epik_Tot_abs_Q>  (417) 
0

>  <s_lp_Force_Field>  (417) 
OPLS3e

>  <r_lp_Energy>  (417) 
76.0583

>  <b_lp_Chiralities_Consistent>  (417) 
1

>  <s_lp_Variant>  (417) 
105:0-2

>  <s_i_glide_gridfile>  (417) 
pfpi4k_grid

>  <i_i_glide_lignum>  (417) 
33

>  <i_i_glide_rotatable_bonds>  (417) 
6

>  <r_i_docking_score>  (417) 
-3.00959

>  <r_i_glide_ligand_efficiency>  (417) 
-0.130852

>  <r_i_glide_ligand_efficiency_sa>  (417) 
-0.372124

>  <r_i_glide_ligand_efficiency_ln>  (417) 
-0.727745

>  <r_i_glide_gscore>  (417) 
-3.00959

>  <r_i_glide_lipo>  (417) 
-0.326604

>  <r_i_glide_hbond>  (417) 
-0.307968

>  <r_i_glide_metal>  (417) 
-0

>  <r_i_glide_rewards>  (417) 
-1.21709

>  <r_i_glide_evdw>  (417) 
-16.6139

>  <r_i_glide_ecoul>  (417) 
-6.9278

>  <r_i_glide_erotb>  (417) 
0.71194

>  <r_i_glide_esite>  (417) 
0

>  <r_i_glide_emodel>  (417) 
-28.3895

>  <r_i_glide_energy>  (417) 
-23.5417

>  <r_i_glide_einternal>  (417) 
1.21441

>  <r_i_glide_intrahb_reward>  (417) 
-0

>  <i_i_glide_confnum>  (417) 
1

>  <i_i_glide_posenum>  (417) 
1

>  <r_i_glide_eff_state_penalty>  (417) 
0

>  <ligand_id>  (417) 
105

>  <original_smiles>  (417) 
CC1OC(=CCOCCO)C2C(=O)C1C1CC23OOC13C(C)C

>  <smiles>  (417) 
[H]OC([H])([H])C([H])([H])OC([H])([H])C([H])=C1OC([H])(C([H])([H])[H])C2([H])C(=O)C1([H])C13OOC1(C([H])(C([H])([H])[H])C([H])([H])[H])C2([H])C3([H])[H]

$$$$
105:1:1
     RDKit          3D

 47 50  0  0  1  0  0  0  0  0999 V2000
    4.6838   -2.0459    5.2334 C   0  0  0  0  0  0  0  0  0  0  0  0
    4.3214   -1.1972    4.0055 C   0  0  2  0  0  0  0  0  0  0  0  0
    2.8788   -1.0043    3.9550 O   0  0  0  0  0  0  0  0  0  0  0  0
    2.2021   -0.8654    2.7422 C   0  0  0  0  0  0  0  0  0  0  0  0
    0.9589   -0.3560    2.7378 C   0  0  0  0  0  0  0  0  0  0  0  0
    0.1775    0.0713    3.9707 C   0  0  0  0  0  0  0  0  0  0  0  0
   -0.2449    1.4276    3.9087 O   0  0  0  0  0  0  0  0  0  0  0  0
   -1.1243    1.7168    2.8315 C   0  0  0  0  0  0  0  0  0  0  0  0
   -1.9444    2.9645    3.1722 C   0  0  0  0  0  0  0  0  0  0  0  0
   -3.1811    2.9477    2.4847 O   0  0  0  0  0  0  0  0  0  0  0  0
    2.9056   -1.2914    1.4430 C   0  0  1  0  0  0  0  0  0  0  0  0
    4.3265   -0.8356    1.6697 C   0  0  0  0  0  0  0  0  0  0  0  0
    4.8826    0.0889    1.0795 O   0  0  0  0  0  0  0  0  0  0  0  0
    4.9809   -1.7324    2.7106 C   0  0  2  0  0  0  0  0  0  0  0  0
    4.6486   -3.2408    2.3570 C   0  0  1  0  0  0  0  0  0  0  0  0
    3.2006   -3.6669    2.6004 C   0  0  0  0  0  0  0  0  0  0  0  0
    2.9851   -2.8426    1.3032 C   0  0  1  0  0  0  0  0  0  0  0  0
    2.3062   -3.5978    0.2861 O   0  0  0  0  0  0  0  0  0  0  0  0
    3.4876   -4.5662    0.2940 O   0  0  0  0  0  0  0  0  0  0  0  0
    4.3124   -3.4911    0.8405 C   0  0  2  0  0  0  0  0  0  0  0  0
    5.2721   -3.0431   -0.2826 C   0  0  0  0  0  0  0  0  0  0  0  0
    4.5852   -2.5269   -1.5605 C   0  0  0  0  0  0  0  0  0  0  0  0
    6.2744   -4.1507   -0.6151 C   0  0  0  0  0  0  0  0  0  0  0  0
    5.7597   -2.2061    5.2968 H   0  0  0  0  0  0  0  0  0  0  0  0
    4.2112   -3.0267    5.2147 H   0  0  0  0  0  0  0  0  0  0  0  0
    4.3662   -1.5474    6.1457 H   0  0  0  0  0  0  0  0  0  0  0  0
    4.7426   -0.2008    4.1798 H   0  0  0  0  0  0  0  0  0  0  0  0
    0.4606   -0.2573    1.7827 H   0  0  0  0  0  0  0  0  0  0  0  0
   -0.6892   -0.5801    4.0846 H   0  0  0  0  0  0  0  0  0  0  0  0
    0.7763   -0.0616    4.8712 H   0  0  0  0  0  0  0  0  0  0  0  0
   -0.5757    1.8534    1.8995 H   0  0  0  0  0  0  0  0  0  0  0  0
   -1.7859    0.8672    2.6880 H   0  0  0  0  0  0  0  0  0  0  0  0
   -2.1625    2.9863    4.2390 H   0  0  0  0  0  0  0  0  0  0  0  0
   -1.3863    3.8684    2.9258 H   0  0  0  0  0  0  0  0  0  0  0  0
   -3.5096    2.0551    2.5008 H   0  0  0  0  0  0  0  0  0  0  0  0
    2.4828   -0.8174    0.5593 H   0  0  0  0  0  0  0  0  0  0  0  0
    6.0568   -1.5647    2.7135 H   0  0  0  0  0  0  0  0  0  0  0  0
    5.3712   -3.9619    2.7483 H   0  0  0  0  0  0  0  0  0  0  0  0
    3.0387   -4.7459    2.5367 H   0  0  0  0  0  0  0  0  0  0  0  0
    2.7260   -3.3031    3.5095 H   0  0  0  0  0  0  0  0  0  0  0  0
    5.8984   -2.2320    0.0770 H   0  0  0  0  0  0  0  0  0  0  0  0
    4.0073   -3.3079   -2.0639 H   0  0  0  0  0  0  0  0  0  0  0  0
    5.3287   -2.1632   -2.2703 H   0  0  0  0  0  0  0  0  0  0  0  0
    3.9133   -1.6938   -1.3456 H   0  0  0  0  0  0  0  0  0  0  0  0
    5.7718   -5.0171   -1.0507 H   0  0  0  0  0  0  0  0  0  0  0  0
    6.8082   -4.4866    0.2759 H   0  0  0  0  0  0  0  0  0  0  0  0
    7.0194   -3.7961   -1.3282 H   0  0  0  0  0  0  0  0  0  0  0  0
  1  2  1  0
  1 24  1  0
  1 25  1  0
  1 26  1  0
  2 14  1  0
  2  3  1  0
  2 27  1  1
  3  4  1  0
  4  5  2  3
  4 11  1  0
  5  6  1  0
  5 28  1  0
  6  7  1  0
  6 29  1  0
  6 30  1  0
  7  8  1  0
  8  9  1  0
  8 31  1  0
  8 32  1  0
  9 10  1  0
  9 33  1  0
  9 34  1  0
 10 35  1  0
 11 17  1  0
 11 12  1  0
 11 36  1  6
 12 13  2  0
 12 14  1  0
 14 15  1  0
 14 37  1  1
 15 20  1  0
 15 16  1  0
 15 38  1  1
 16 17  1  0
 16 39  1  0
 16 40  1  0
 17 20  1  0
 17 18  1  6
 18 19  1  0
 19 20  1  0
 20 21  1  6
 21 22  1  0
 21 23  1  0
 21 41  1  0
 22 42  1  0
 22 43  1  0
 22 44  1  0
 23 45  1  0
 23 46  1  0
 23 47  1  0
M  END
>  <i_m_ct_stereo_status>  (418) 
1

>  <s_m_source_file>  (418) 
/var/tmp/pbs.5076255.sched01/tmpsabrbf27/138opeauupd.sdf

>  <i_m_source_file_index>  (418) 
33

>  <i_lp_mmshare_version>  (418) 
48012

>  <i_f3d_flags>  (418) 
0

>  <s_epik_input>  (418) 
TzFPW0NAXTIoW0NIXShbQ0gzXSlbQ0gzXSlbQ0BIXShbQ0gyXTMpW0NAQEhdKEM0PU8pW0NASF0oW0NIM10pTy9DKFtDQEBIXTRbQ0BAXTEyMyk9W0NIXS9bQ0gyXU9bQ0gyXVtDSDJdW09IXQ==

>  <s_epik_cmdline>  (418) 
J2VwaWtfcHl0aG9uJywgJy1waHQnLCAnMi4wJywgJy1waCcsICc3LjAnLCAnLXRuJywgJzgnLCAnLW1hJywgJzIwMCcsICctaW1hZScsICc8aW5maWxlLm1hZT4nLCAnLW9tYWUnLCAnPG91dGZpbGUubWFlPic=

>  <r_lp_tautomer_probability>  (418) 
1

>  <r_epik_Ionization_Penalty>  (418) 
5.15302e-08

>  <r_epik_Ionization_Penalty_Charging>  (418) 
0

>  <r_epik_Ionization_Penalty_Neutral>  (418) 
5.15302e-08

>  <r_epik_State_Penalty>  (418) 
-0

>  <r_epik_Charging_Adjusted_Penalty>  (418) 
0

>  <i_epik_Tot_Q>  (418) 
0

>  <i_epik_Tot_abs_Q>  (418) 
0

>  <s_lp_Force_Field>  (418) 
OPLS3e

>  <r_lp_Energy>  (418) 
76.0583

>  <b_lp_Chiralities_Consistent>  (418) 
1

>  <s_lp_Variant>  (418) 
105:0-2

>  <s_i_glide_gridfile>  (418) 
pfpi4k_grid

>  <i_i_glide_lignum>  (418) 
33

>  <i_i_glide_rotatable_bonds>  (418) 
6

>  <r_i_docking_score>  (418) 
-2.70313

>  <r_i_glide_ligand_efficiency>  (418) 
-0.117528

>  <r_i_glide_ligand_efficiency_sa>  (418) 
-0.334233

>  <r_i_glide_ligand_efficiency_ln>  (418) 
-0.653642

>  <r_i_glide_gscore>  (418) 
-2.70313

>  <r_i_glide_lipo>  (418) 
-0.210388

>  <r_i_glide_hbond>  (418) 
-0.431939

>  <r_i_glide_metal>  (418) 
-0

>  <r_i_glide_rewards>  (418) 
-1.28166

>  <r_i_glide_evdw>  (418) 
-18.1871

>  <r_i_glide_ecoul>  (418) 
-3.87818

>  <r_i_glide_erotb>  (418) 
0.71194

>  <r_i_glide_esite>  (418) 
0

>  <r_i_glide_emodel>  (418) 
-25.4272

>  <r_i_glide_energy>  (418) 
-22.0653

>  <r_i_glide_einternal>  (418) 
2.42304

>  <r_i_glide_intrahb_reward>  (418) 
-0

>  <i_i_glide_confnum>  (418) 
4

>  <i_i_glide_posenum>  (418) 
17

>  <r_i_glide_eff_state_penalty>  (418) 
0

>  <ligand_id>  (418) 
105

>  <original_smiles>  (418) 
CC1OC(=CCOCCO)C2C(=O)C1C1CC23OOC13C(C)C

>  <smiles>  (418) 
[H]OC([H])([H])C([H])([H])OC([H])([H])C([H])=C1OC([H])(C([H])([H])[H])C2([H])C(=O)C1([H])C13OOC1(C([H])(C([H])([H])[H])C([H])([H])[H])C2([H])C3([H])[H]

$$$$
105:1:2
     RDKit          3D

 47 50  0  0  1  0  0  0  0  0999 V2000
    2.0813   -3.7632    2.7391 C   0  0  0  0  0  0  0  0  0  0  0  0
    2.2800   -2.3976    2.0704 C   0  0  2  0  0  0  0  0  0  0  0  0
    3.5678   -2.3475    1.3776 O   0  0  0  0  0  0  0  0  0  0  0  0
    4.2758   -1.1531    1.2674 C   0  0  0  0  0  0  0  0  0  0  0  0
    5.2536   -1.0546    0.3628 C   0  0  0  0  0  0  0  0  0  0  0  0
    5.6790   -2.1761   -0.5675 C   0  0  0  0  0  0  0  0  0  0  0  0
    5.7601   -1.7179   -1.9041 O   0  0  0  0  0  0  0  0  0  0  0  0
    4.5141   -1.6644   -2.5778 C   0  0  0  0  0  0  0  0  0  0  0  0
    4.1694   -3.0593   -3.1269 C   0  0  0  0  0  0  0  0  0  0  0  0
    3.0738   -2.9727   -4.0160 O   0  0  0  0  0  0  0  0  0  0  0  0
    3.8826    0.0231    2.1481 C   0  0  1  0  0  0  0  0  0  0  0  0
    2.3855   -0.0774    2.2229 C   0  0  0  0  0  0  0  0  0  0  0  0
    1.6020    0.6834    1.6234 O   0  0  0  0  0  0  0  0  0  0  0  0
    1.9883   -1.2470    3.0677 C   0  0  2  0  0  0  0  0  0  0  0  0
    2.8501   -1.2420    4.3936 C   0  0  1  0  0  0  0  0  0  0  0  0
    4.3236   -1.6134    4.2104 C   0  0  0  0  0  0  0  0  0  0  0  0
    4.3490   -0.1684    3.6168 C   0  0  1  0  0  0  0  0  0  0  0  0
    5.3903    0.6141    4.2747 O   0  0  0  0  0  0  0  0  0  0  0  0
    4.6187    0.4676    5.5755 O   0  0  0  0  0  0  0  0  0  0  0  0
    3.4095    0.2036    4.7739 C   0  0  2  0  0  0  0  0  0  0  0  0
    2.4866    1.4504    4.9762 C   0  0  0  0  0  0  0  0  0  0  0  0
    1.0011    1.0961    5.0965 C   0  0  0  0  0  0  0  0  0  0  0  0
    2.7446    2.5973    3.9624 C   0  0  0  0  0  0  0  0  0  0  0  0
    1.1274   -3.7950    3.2642 H   0  0  0  0  0  0  0  0  0  0  0  0
    2.8603   -3.9666    3.4668 H   0  0  0  0  0  0  0  0  0  0  0  0
    2.0938   -4.5456    1.9895 H   0  0  0  0  0  0  0  0  0  0  0  0
    1.5190   -2.2998    1.2897 H   0  0  0  0  0  0  0  0  0  0  0  0
    5.7980   -0.1163    0.2579 H   0  0  0  0  0  0  0  0  0  0  0  0
    6.6634   -2.5144   -0.2510 H   0  0  0  0  0  0  0  0  0  0  0  0
    5.0079   -3.0258   -0.4692 H   0  0  0  0  0  0  0  0  0  0  0  0
    3.7195   -1.2671   -1.9427 H   0  0  0  0  0  0  0  0  0  0  0  0
    4.6268   -0.9637   -3.4044 H   0  0  0  0  0  0  0  0  0  0  0  0
    5.0209   -3.4750   -3.6639 H   0  0  0  0  0  0  0  0  0  0  0  0
    3.9146   -3.7582   -2.3280 H   0  0  0  0  0  0  0  0  0  0  0  0
    2.3017   -2.7780   -3.5137 H   0  0  0  0  0  0  0  0  0  0  0  0
    4.1953    0.9585    1.7349 H   0  0  0  0  0  0  0  0  0  0  0  0
    0.9125   -1.2248    3.2941 H   0  0  0  0  0  0  0  0  0  0  0  0
    2.3925   -1.7541    5.2399 H   0  0  0  0  0  0  0  0  0  0  0  0
    4.8578   -1.7779    5.1447 H   0  0  0  0  0  0  0  0  0  0  0  0
    4.5484   -2.4165    3.5248 H   0  0  0  0  0  0  0  0  0  0  0  0
    2.7537    1.8401    5.9563 H   0  0  0  0  0  0  0  0  0  0  0  0
    0.5869    0.6937    4.1667 H   0  0  0  0  0  0  0  0  0  0  0  0
    0.3966    1.9703    5.3522 H   0  0  0  0  0  0  0  0  0  0  0  0
    0.8396    0.3471    5.8739 H   0  0  0  0  0  0  0  0  0  0  0  0
    2.4963    2.3558    2.9320 H   0  0  0  0  0  0  0  0  0  0  0  0
    3.8010    2.9450    4.0134 H   0  0  0  0  0  0  0  0  0  0  0  0
    2.1472    3.4873    4.2470 H   0  0  0  0  0  0  0  0  0  0  0  0
  1  2  1  0
  1 24  1  0
  1 25  1  0
  1 26  1  0
  2 14  1  0
  2  3  1  0
  2 27  1  6
  3  4  1  0
  4  5  2  3
  4 11  1  0
  5  6  1  0
  5 28  1  0
  6  7  1  0
  6 29  1  0
  6 30  1  0
  7  8  1  0
  8  9  1  0
  8 31  1  0
  8 32  1  0
  9 10  1  0
  9 33  1  0
  9 34  1  0
 10 35  1  0
 11 17  1  0
 11 12  1  0
 11 36  1  6
 12 13  2  0
 12 14  1  0
 14 15  1  0
 14 37  1  1
 15 20  1  0
 15 16  1  0
 15 38  1  1
 16 17  1  0
 16 39  1  0
 16 40  1  0
 17 20  1  0
 17 18  1  1
 18 19  1  0
 19 20  1  0
 20 21  1  6
 21 22  1  0
 21 23  1  0
 21 41  1  0
 22 42  1  0
 22 43  1  0
 22 44  1  0
 23 45  1  0
 23 46  1  0
 23 47  1  0
M  END
>  <i_m_ct_stereo_status>  (419) 
1

>  <s_m_source_file>  (419) 
/var/tmp/pbs.5076255.sched01/tmpsabrbf27/138opeauupd.sdf

>  <i_m_source_file_index>  (419) 
33

>  <i_lp_mmshare_version>  (419) 
48012

>  <i_f3d_flags>  (419) 
0

>  <s_epik_input>  (419) 
TzFPW0NAXTIoW0NIXShbQ0gzXSlbQ0gzXSlbQ0BIXShbQ0gyXTMpW0NAQEhdKEM0PU8pW0NASF0oW0NIM10pTy9DKFtDQEBIXTRbQ0BAXTEyMyk9W0NIXS9bQ0gyXU9bQ0gyXVtDSDJdW09IXQ==

>  <s_epik_cmdline>  (419) 
J2VwaWtfcHl0aG9uJywgJy1waHQnLCAnMi4wJywgJy1waCcsICc3LjAnLCAnLXRuJywgJzgnLCAnLW1hJywgJzIwMCcsICctaW1hZScsICc8aW5maWxlLm1hZT4nLCAnLW9tYWUnLCAnPG91dGZpbGUubWFlPic=

>  <r_lp_tautomer_probability>  (419) 
1

>  <r_epik_Ionization_Penalty>  (419) 
5.15302e-08

>  <r_epik_Ionization_Penalty_Charging>  (419) 
0

>  <r_epik_Ionization_Penalty_Neutral>  (419) 
5.15302e-08

>  <r_epik_State_Penalty>  (419) 
-0

>  <r_epik_Charging_Adjusted_Penalty>  (419) 
0

>  <i_epik_Tot_Q>  (419) 
0

>  <i_epik_Tot_abs_Q>  (419) 
0

>  <s_lp_Force_Field>  (419) 
OPLS3e

>  <r_lp_Energy>  (419) 
76.0583

>  <b_lp_Chiralities_Consistent>  (419) 
1

>  <s_lp_Variant>  (419) 
105:0-2

>  <s_i_glide_gridfile>  (419) 
pfpi4k_grid

>  <i_i_glide_lignum>  (419) 
33

>  <i_i_glide_rotatable_bonds>  (419) 
6

>  <r_i_docking_score>  (419) 
-2.51928

>  <r_i_glide_ligand_efficiency>  (419) 
-0.109534

>  <r_i_glide_ligand_efficiency_sa>  (419) 
-0.311499

>  <r_i_glide_ligand_efficiency_ln>  (419) 
-0.609184

>  <r_i_glide_gscore>  (419) 
-2.51928

>  <r_i_glide_lipo>  (419) 
-0.277223

>  <r_i_glide_hbond>  (419) 
-0.0390615

>  <r_i_glide_metal>  (419) 
-0

>  <r_i_glide_rewards>  (419) 
-1.19749

>  <r_i_glide_evdw>  (419) 
-21.5414

>  <r_i_glide_ecoul>  (419) 
-4.11029

>  <r_i_glide_erotb>  (419) 
0.71194

>  <r_i_glide_esite>  (419) 
-0.023835

>  <r_i_glide_emodel>  (419) 
-26.7849

>  <r_i_glide_energy>  (419) 
-25.6516

>  <r_i_glide_einternal>  (419) 
5.6709

>  <r_i_glide_intrahb_reward>  (419) 
-0

>  <i_i_glide_confnum>  (419) 
6

>  <i_i_glide_posenum>  (419) 
3

>  <r_i_glide_eff_state_penalty>  (419) 
0

>  <ligand_id>  (419) 
105

>  <original_smiles>  (419) 
CC1OC(=CCOCCO)C2C(=O)C1C1CC23OOC13C(C)C

>  <smiles>  (419) 
[H]OC([H])([H])C([H])([H])OC([H])([H])C([H])=C1OC([H])(C([H])([H])[H])C2([H])C(=O)C1([H])C13OOC1(C([H])(C([H])([H])[H])C([H])([H])[H])C2([H])C3([H])[H]

$$$$
106:0:0
     RDKit          3D

 27 29  0  0  1  0  0  0  0  0999 V2000
    3.8211   -0.4502   -3.1484 C   0  0  0  0  0  0  0  0  0  0  0  0
    3.6652   -1.9011   -2.7535 C   0  0  0  0  0  0  0  0  0  0  0  0
    3.0117   -2.6930   -3.8634 C   0  0  0  0  0  0  0  0  0  0  0  0
    4.7340   -2.5545   -1.8985 C   0  0  1  0  0  0  0  0  0  0  0  0
    4.6410   -3.9902   -1.4346 C   0  0  0  0  0  0  0  0  0  0  0  0
    3.2534   -3.7114   -0.8353 C   0  0  1  0  0  0  0  0  0  0  0  0
    3.0336   -3.8905    0.6686 C   0  0  0  0  0  0  0  0  0  0  0  0
    2.7479   -5.2936    0.9718 N   0  0  0  0  0  0  0  0  0  0  0  0
    1.5192   -5.8477    0.8510 N   0  0  0  0  0  0  0  0  0  0  0  0
    1.7850   -7.0753    1.2854 C   0  0  0  0  0  0  0  0  0  0  0  0
    3.0878   -7.2603    1.6372 N   0  0  0  0  0  0  0  0  0  0  0  0
    3.6965   -6.1449    1.4330 N   0  0  0  0  0  0  0  0  0  0  0  0
    3.3785   -2.2696   -1.3017 C   0  0  2  0  0  0  0  0  0  0  0  0
    4.4384   -0.3592   -4.0358 H   0  0  0  0  0  0  0  0  0  0  0  0
    4.2948    0.1056   -2.3490 H   0  0  0  0  0  0  0  0  0  0  0  0
    2.8572    0.0107   -3.3499 H   0  0  0  0  0  0  0  0  0  0  0  0
    2.9309   -3.7348   -3.5554 H   0  0  0  0  0  0  0  0  0  0  0  0
    3.6439   -2.6619   -4.7508 H   0  0  0  0  0  0  0  0  0  0  0  0
    2.0051   -2.3147   -4.0783 H   0  0  0  0  0  0  0  0  0  0  0  0
    5.5501   -1.9629   -1.5017 H   0  0  0  0  0  0  0  0  0  0  0  0
    4.6247   -4.7162   -2.2488 H   0  0  0  0  0  0  0  0  0  0  0  0
    5.3990   -4.2488   -0.6870 H   0  0  0  0  0  0  0  0  0  0  0  0
    2.4764   -4.2150   -1.4158 H   0  0  0  0  0  0  0  0  0  0  0  0
    3.9125   -3.5931    1.2447 H   0  0  0  0  0  0  0  0  0  0  0  0
    2.2094   -3.2805    1.0412 H   0  0  0  0  0  0  0  0  0  0  0  0
    1.0354   -7.8465    1.3613 H   0  0  0  0  0  0  0  0  0  0  0  0
    3.3116   -1.4866   -0.5497 H   0  0  0  0  0  0  0  0  0  0  0  0
  1  2  1  0
  1 14  1  0
  1 15  1  0
  1 16  1  0
  2 13  1  0
  2  3  1  0
  2  4  1  0
  3 17  1  0
  3 18  1  0
  3 19  1  0
  4 13  1  0
  4  5  1  0
  4 20  1  1
  5  6  1  0
  5 21  1  0
  5 22  1  0
  6  7  1  0
  6 13  1  0
  6 23  1  6
  7  8  1  0
  7 24  1  0
  7 25  1  0
  8 12  1  0
  8  9  1  0
  9 10  2  0
 10 11  1  0
 10 26  1  0
 11 12  2  0
 13 27  1  1
M  END
>  <i_m_ct_stereo_status>  (420) 
1

>  <s_m_source_file>  (420) 
/var/tmp/pbs.5076255.sched01/tmpsabrbf27/138opeauupd.sdf

>  <i_m_source_file_index>  (420) 
34

>  <i_lp_mmshare_version>  (420) 
48012

>  <i_f3d_flags>  (420) 
0

>  <s_epik_input>  (420) 
W0NIM11DMShbQ0gzXSlbQ0BIXShbQ0BASF0xMilbQ0BASF0oW0NIMl0yKVtDSDJdbjNuW2NIXW5uMw==

>  <s_epik_cmdline>  (420) 
J2VwaWtfcHl0aG9uJywgJy1waHQnLCAnMi4wJywgJy1waCcsICc3LjAnLCAnLXRuJywgJzgnLCAnLW1hJywgJzIwMCcsICctaW1hZScsICc8aW5maWxlLm1hZT4nLCAnLW9tYWUnLCAnPG91dGZpbGUubWFlPic=

>  <r_lp_tautomer_probability>  (420) 
1

>  <r_epik_Ionization_Penalty>  (420) 
8.75689e-07

>  <r_epik_Ionization_Penalty_Charging>  (420) 
0

>  <r_epik_Ionization_Penalty_Neutral>  (420) 
8.75689e-07

>  <r_epik_State_Penalty>  (420) 
-0

>  <r_epik_Charging_Adjusted_Penalty>  (420) 
0

>  <i_epik_Tot_Q>  (420) 
0

>  <i_epik_Tot_abs_Q>  (420) 
0

>  <s_lp_Force_Field>  (420) 
OPLS3e

>  <r_lp_Energy>  (420) 
23.2264

>  <b_lp_Chiralities_Consistent>  (420) 
1

>  <s_lp_Variant>  (420) 
106:0-1

>  <s_i_glide_gridfile>  (420) 
pfpi4k_grid

>  <i_i_glide_lignum>  (420) 
34

>  <i_i_glide_rotatable_bonds>  (420) 
2

>  <r_i_docking_score>  (420) 
-3.00374

>  <r_i_glide_ligand_efficiency>  (420) 
-0.231057

>  <r_i_glide_ligand_efficiency_sa>  (420) 
-0.543291

>  <r_i_glide_ligand_efficiency_ln>  (420) 
-0.842575

>  <r_i_glide_gscore>  (420) 
-3.00374

>  <r_i_glide_lipo>  (420) 
-0.31404

>  <r_i_glide_hbond>  (420) 
-0.148664

>  <r_i_glide_metal>  (420) 
-0

>  <r_i_glide_rewards>  (420) 
-2.19386

>  <r_i_glide_evdw>  (420) 
-16.531

>  <r_i_glide_ecoul>  (420) 
-3.00086

>  <r_i_glide_erotb>  (420) 
0.988085

>  <r_i_glide_esite>  (420) 
-0.0585831

>  <r_i_glide_emodel>  (420) 
-22.9152

>  <r_i_glide_energy>  (420) 
-19.5318

>  <r_i_glide_einternal>  (420) 
0.318349

>  <r_i_glide_intrahb_reward>  (420) 
-0

>  <i_i_glide_confnum>  (420) 
5

>  <i_i_glide_posenum>  (420) 
16

>  <r_i_glide_eff_state_penalty>  (420) 
0

>  <ligand_id>  (420) 
106

>  <original_smiles>  (420) 
CC1(C)C2CC(Cn3ncnn3)C21

>  <smiles>  (420) 
[H]c1nnn(C([H])([H])C2([H])C([H])([H])C3([H])C2([H])C3(C([H])([H])[H])C([H])([H])[H])n1

$$$$
106:0:1
     RDKit          3D

 27 29  0  0  1  0  0  0  0  0999 V2000
    3.5839   -0.4806   -3.5144 C   0  0  0  0  0  0  0  0  0  0  0  0
    3.5871   -1.8999   -2.9785 C   0  0  0  0  0  0  0  0  0  0  0  0
    2.6022   -2.7814   -3.7218 C   0  0  0  0  0  0  0  0  0  0  0  0
    4.8810   -2.4942   -2.4771 C   0  0  1  0  0  0  0  0  0  0  0  0
    4.9456   -3.8735   -1.8704 C   0  0  0  0  0  0  0  0  0  0  0  0
    3.8443   -3.4934   -0.8742 C   0  0  1  0  0  0  0  0  0  0  0  0
    4.1757   -3.5598    0.6253 C   0  0  0  0  0  0  0  0  0  0  0  0
    3.2304   -2.8684    1.4894 N   0  0  0  0  0  0  0  0  0  0  0  0
    3.1443   -1.5177    1.5433 N   0  0  0  0  0  0  0  0  0  0  0  0
    2.2025   -1.3726    2.4469 C   0  0  0  0  0  0  0  0  0  0  0  0
    1.7814   -2.5472    2.9973 N   0  0  0  0  0  0  0  0  0  0  0  0
    2.4466   -3.4846    2.3970 N   0  0  0  0  0  0  0  0  0  0  0  0
    3.8014   -2.1075   -1.5006 C   0  0  2  0  0  0  0  0  0  0  0  0
    3.8738   -0.4544   -4.5643 H   0  0  0  0  0  0  0  0  0  0  0  0
    4.2825    0.1366   -2.9501 H   0  0  0  0  0  0  0  0  0  0  0  0
    2.6027   -0.0213   -3.4081 H   0  0  0  0  0  0  0  0  0  0  0  0
    2.6408   -3.7861   -3.3134 H   0  0  0  0  0  0  0  0  0  0  0  0
    2.9092   -2.8365   -4.7587 H   0  0  0  0  0  0  0  0  0  0  0  0
    1.5819   -2.3973   -3.6222 H   0  0  0  0  0  0  0  0  0  0  0  0
    5.7892   -1.8897   -2.4332 H   0  0  0  0  0  0  0  0  0  0  0  0
    4.6519   -4.6747   -2.5473 H   0  0  0  0  0  0  0  0  0  0  0  0
    5.9047   -4.0916   -1.3980 H   0  0  0  0  0  0  0  0  0  0  0  0
    2.9374   -4.0606   -1.0981 H   0  0  0  0  0  0  0  0  0  0  0  0
    4.1779   -4.6076    0.9362 H   0  0  0  0  0  0  0  0  0  0  0  0
    5.1727   -3.1714    0.8528 H   0  0  0  0  0  0  0  0  0  0  0  0
    1.8145   -0.4147    2.7318 H   0  0  0  0  0  0  0  0  0  0  0  0
    3.9766   -1.2295   -0.8768 H   0  0  0  0  0  0  0  0  0  0  0  0
  1  2  1  0
  1 14  1  0
  1 15  1  0
  1 16  1  0
  2 13  1  0
  2  3  1  0
  2  4  1  0
  3 17  1  0
  3 18  1  0
  3 19  1  0
  4 13  1  0
  4  5  1  0
  4 20  1  1
  5  6  1  0
  5 21  1  0
  5 22  1  0
  6  7  1  0
  6 13  1  0
  6 23  1  1
  7  8  1  0
  7 24  1  0
  7 25  1  0
  8 12  1  0
  8  9  1  0
  9 10  2  0
 10 11  1  0
 10 26  1  0
 11 12  2  0
 13 27  1  1
M  END
>  <i_m_ct_stereo_status>  (421) 
1

>  <s_m_source_file>  (421) 
/var/tmp/pbs.5076255.sched01/tmpsabrbf27/138opeauupd.sdf

>  <i_m_source_file_index>  (421) 
34

>  <i_lp_mmshare_version>  (421) 
48012

>  <i_f3d_flags>  (421) 
0

>  <s_epik_input>  (421) 
W0NIM11DMShbQ0gzXSlbQ0BIXShbQ0BASF0xMilbQ0BASF0oW0NIMl0yKVtDSDJdbjNuW2NIXW5uMw==

>  <s_epik_cmdline>  (421) 
J2VwaWtfcHl0aG9uJywgJy1waHQnLCAnMi4wJywgJy1waCcsICc3LjAnLCAnLXRuJywgJzgnLCAnLW1hJywgJzIwMCcsICctaW1hZScsICc8aW5maWxlLm1hZT4nLCAnLW9tYWUnLCAnPG91dGZpbGUubWFlPic=

>  <r_lp_tautomer_probability>  (421) 
1

>  <r_epik_Ionization_Penalty>  (421) 
8.75689e-07

>  <r_epik_Ionization_Penalty_Charging>  (421) 
0

>  <r_epik_Ionization_Penalty_Neutral>  (421) 
8.75689e-07

>  <r_epik_State_Penalty>  (421) 
-0

>  <r_epik_Charging_Adjusted_Penalty>  (421) 
0

>  <i_epik_Tot_Q>  (421) 
0

>  <i_epik_Tot_abs_Q>  (421) 
0

>  <s_lp_Force_Field>  (421) 
OPLS3e

>  <r_lp_Energy>  (421) 
23.2264

>  <b_lp_Chiralities_Consistent>  (421) 
1

>  <s_lp_Variant>  (421) 
106:0-1

>  <s_i_glide_gridfile>  (421) 
pfpi4k_grid

>  <i_i_glide_lignum>  (421) 
34

>  <i_i_glide_rotatable_bonds>  (421) 
2

>  <r_i_docking_score>  (421) 
-2.58667

>  <r_i_glide_ligand_efficiency>  (421) 
-0.198975

>  <r_i_glide_ligand_efficiency_sa>  (421) 
-0.467856

>  <r_i_glide_ligand_efficiency_ln>  (421) 
-0.725584

>  <r_i_glide_gscore>  (421) 
-2.58667

>  <r_i_glide_lipo>  (421) 
-0.638239

>  <r_i_glide_hbond>  (421) 
0

>  <r_i_glide_metal>  (421) 
-0

>  <r_i_glide_rewards>  (421) 
-2.19386

>  <r_i_glide_evdw>  (421) 
-15.9518

>  <r_i_glide_ecoul>  (421) 
0.56253

>  <r_i_glide_erotb>  (421) 
0.988085

>  <r_i_glide_esite>  (421) 
-0.029449

>  <r_i_glide_emodel>  (421) 
-17.971

>  <r_i_glide_energy>  (421) 
-15.3893

>  <r_i_glide_einternal>  (421) 
0.453497

>  <r_i_glide_intrahb_reward>  (421) 
-0

>  <i_i_glide_confnum>  (421) 
5

>  <i_i_glide_posenum>  (421) 
2

>  <r_i_glide_eff_state_penalty>  (421) 
0

>  <ligand_id>  (421) 
106

>  <original_smiles>  (421) 
CC1(C)C2CC(Cn3ncnn3)C21

>  <smiles>  (421) 
[H]c1nnn(C([H])([H])C2([H])C([H])([H])C3([H])C2([H])C3(C([H])([H])[H])C([H])([H])[H])n1

$$$$
106:0:2
     RDKit          3D

 27 29  0  0  1  0  0  0  0  0999 V2000
    0.0447    5.3419    5.4082 C   0  0  0  0  0  0  0  0  0  0  0  0
   -0.7810    4.1512    4.9650 C   0  0  0  0  0  0  0  0  0  0  0  0
   -1.4615    3.4857    6.1507 C   0  0  0  0  0  0  0  0  0  0  0  0
   -1.4880    4.1972    3.6315 C   0  0  1  0  0  0  0  0  0  0  0  0
   -2.3041    3.0394    3.1183 C   0  0  0  0  0  0  0  0  0  0  0  0
   -1.0999    2.1158    3.2883 C   0  0  1  0  0  0  0  0  0  0  0  0
   -0.5248    1.4389    2.0374 C   0  0  0  0  0  0  0  0  0  0  0  0
    0.6823    0.6822    2.3048 N   0  0  0  0  0  0  0  0  0  0  0  0
    1.8769    0.9620    1.7198 N   0  0  0  0  0  0  0  0  0  0  0  0
    2.6045   -0.0335    2.1739 C   0  0  0  0  0  0  0  0  0  0  0  0
    1.9222   -0.8877    2.9873 N   0  0  0  0  0  0  0  0  0  0  0  0
    0.7071   -0.4371    3.0452 N   0  0  0  0  0  0  0  0  0  0  0  0
   -0.2970    3.2946    3.8098 C   0  0  2  0  0  0  0  0  0  0  0  0
   -0.5727    6.0960    5.8964 H   0  0  0  0  0  0  0  0  0  0  0  0
    0.5220    5.8073    4.5442 H   0  0  0  0  0  0  0  0  0  0  0  0
    0.8303    5.0378    6.1011 H   0  0  0  0  0  0  0  0  0  0  0  0
   -2.0502    2.6532    5.7814 H   0  0  0  0  0  0  0  0  0  0  0  0
   -2.1565    4.1647    6.6450 H   0  0  0  0  0  0  0  0  0  0  0  0
   -0.7146    3.1112    6.8570 H   0  0  0  0  0  0  0  0  0  0  0  0
   -1.3224    5.0256    2.9387 H   0  0  0  0  0  0  0  0  0  0  0  0
   -3.1496    2.7437    3.7429 H   0  0  0  0  0  0  0  0  0  0  0  0
   -2.6162    3.1735    2.0842 H   0  0  0  0  0  0  0  0  0  0  0  0
   -1.3133    1.3870    4.0764 H   0  0  0  0  0  0  0  0  0  0  0  0
   -1.2657    0.7353    1.6518 H   0  0  0  0  0  0  0  0  0  0  0  0
   -0.3049    2.1378    1.2330 H   0  0  0  0  0  0  0  0  0  0  0  0
    3.6436   -0.1543    1.9222 H   0  0  0  0  0  0  0  0  0  0  0  0
    0.6101    3.5666    3.2617 H   0  0  0  0  0  0  0  0  0  0  0  0
  1  2  1  0
  1 14  1  0
  1 15  1  0
  1 16  1  0
  2 13  1  0
  2  3  1  0
  2  4  1  0
  3 17  1  0
  3 18  1  0
  3 19  1  0
  4 13  1  0
  4  5  1  0
  4 20  1  6
  5  6  1  0
  5 21  1  0
  5 22  1  0
  6  7  1  0
  6 13  1  0
  6 23  1  1
  7  8  1  0
  7 24  1  0
  7 25  1  0
  8 12  1  0
  8  9  1  0
  9 10  2  0
 10 11  1  0
 10 26  1  0
 11 12  2  0
 13 27  1  6
M  END
>  <i_m_ct_stereo_status>  (422) 
1

>  <s_m_source_file>  (422) 
/var/tmp/pbs.5076255.sched01/tmpsabrbf27/138opeauupd.sdf

>  <i_m_source_file_index>  (422) 
34

>  <i_lp_mmshare_version>  (422) 
48012

>  <i_f3d_flags>  (422) 
0

>  <s_epik_input>  (422) 
W0NIM11DMShbQ0gzXSlbQ0BIXShbQ0BASF0xMilbQ0BASF0oW0NIMl0yKVtDSDJdbjNuW2NIXW5uMw==

>  <s_epik_cmdline>  (422) 
J2VwaWtfcHl0aG9uJywgJy1waHQnLCAnMi4wJywgJy1waCcsICc3LjAnLCAnLXRuJywgJzgnLCAnLW1hJywgJzIwMCcsICctaW1hZScsICc8aW5maWxlLm1hZT4nLCAnLW9tYWUnLCAnPG91dGZpbGUubWFlPic=

>  <r_lp_tautomer_probability>  (422) 
1

>  <r_epik_Ionization_Penalty>  (422) 
8.75689e-07

>  <r_epik_Ionization_Penalty_Charging>  (422) 
0

>  <r_epik_Ionization_Penalty_Neutral>  (422) 
8.75689e-07

>  <r_epik_State_Penalty>  (422) 
-0

>  <r_epik_Charging_Adjusted_Penalty>  (422) 
0

>  <i_epik_Tot_Q>  (422) 
0

>  <i_epik_Tot_abs_Q>  (422) 
0

>  <s_lp_Force_Field>  (422) 
OPLS3e

>  <r_lp_Energy>  (422) 
23.2264

>  <b_lp_Chiralities_Consistent>  (422) 
1

>  <s_lp_Variant>  (422) 
106:0-1

>  <s_i_glide_gridfile>  (422) 
pfpi4k_grid

>  <i_i_glide_lignum>  (422) 
34

>  <i_i_glide_rotatable_bonds>  (422) 
2

>  <r_i_docking_score>  (422) 
-2.15838

>  <r_i_glide_ligand_efficiency>  (422) 
-0.16603

>  <r_i_glide_ligand_efficiency_sa>  (422) 
-0.390391

>  <r_i_glide_ligand_efficiency_ln>  (422) 
-0.605446

>  <r_i_glide_gscore>  (422) 
-2.15838

>  <r_i_glide_lipo>  (422) 
-0.0202461

>  <r_i_glide_hbond>  (422) 
0

>  <r_i_glide_metal>  (422) 
-0

>  <r_i_glide_rewards>  (422) 
-2.19386

>  <r_i_glide_evdw>  (422) 
-15.4989

>  <r_i_glide_ecoul>  (422) 
-0.373075

>  <r_i_glide_erotb>  (422) 
0.988085

>  <r_i_glide_esite>  (422) 
-0.101461

>  <r_i_glide_emodel>  (422) 
-18.1401

>  <r_i_glide_energy>  (422) 
-15.8719

>  <r_i_glide_einternal>  (422) 
0.448154

>  <r_i_glide_intrahb_reward>  (422) 
-0

>  <i_i_glide_confnum>  (422) 
5

>  <i_i_glide_posenum>  (422) 
1

>  <r_i_glide_eff_state_penalty>  (422) 
0

>  <ligand_id>  (422) 
106

>  <original_smiles>  (422) 
CC1(C)C2CC(Cn3ncnn3)C21

>  <smiles>  (422) 
[H]c1nnn(C([H])([H])C2([H])C([H])([H])C3([H])C2([H])C3(C([H])([H])[H])C([H])([H])[H])n1

$$$$
107:0:0
     RDKit          3D

 81 85  0  0  1  0  0  0  0  0999 V2000
    3.1173   -1.7902   -1.6730 C   0  0  0  0  0  0  0  0  0  0  0  0
    4.4793   -2.4887   -1.9315 C   0  0  1  0  0  0  0  0  0  0  0  0
    4.5956   -2.7712   -3.4550 C   0  0  0  0  0  0  0  0  0  0  0  0
    5.1068   -3.8495   -3.8222 O   0  0  0  0  0  0  0  0  0  0  0  0
    4.1959   -1.8892   -4.2509 O   0  0  0  0  0  0  0  0  0  0  0  0
    5.6554   -1.5916   -1.5122 C   0  0  0  0  0  0  0  0  0  0  0  0
    5.7056   -1.3581    0.0101 C   0  0  0  0  0  0  0  0  0  0  0  0
    5.6536   -2.6536    0.8750 C   0  0  1  0  0  0  0  0  0  0  0  0
    7.0145   -3.3865    0.7810 C   0  0  0  0  0  0  0  0  0  0  0  0
    5.4044   -2.1968    2.3294 C   0  0  0  0  0  0  0  0  0  0  0  0
    4.9930   -3.3583    3.2366 C   0  0  0  0  0  0  0  0  0  0  0  0
    3.6837   -4.0740    2.7801 C   0  0  1  0  0  0  0  0  0  0  0  0
    2.5296   -3.1187    3.2284 C   0  0  0  0  0  0  0  0  0  0  0  0
    3.6359   -4.1872    1.2370 C   0  0  0  0  0  0  0  0  0  0  0  0
    4.5394   -3.5969    0.3961 C   0  0  0  0  0  0  0  0  0  0  0  0
    4.5648   -3.7988   -1.1210 C   0  0  0  0  0  0  0  0  0  0  0  0
    2.4384   -5.0036    0.7531 C   0  0  0  0  0  0  0  0  0  0  0  0
    2.2851   -6.3755    1.4047 C   0  0  0  0  0  0  0  0  0  0  0  0
    2.2667   -6.2699    2.9524 C   0  0  1  0  0  0  0  0  0  0  0  0
    1.7622   -7.5923    3.6974 C   0  0  1  0  0  0  0  0  0  0  0  0
    0.2106   -7.5887    3.4940 C   0  0  0  0  0  0  0  0  0  0  0  0
    2.3149   -8.8810    3.0148 C   0  0  0  0  0  0  0  0  0  0  0  0
    1.9975  -10.1961    3.7453 C   0  0  0  0  0  0  0  0  0  0  0  0
    2.4608  -10.1627    5.2081 C   0  0  1  0  0  0  0  0  0  0  0  0
    3.8805  -10.1770    5.1773 O   0  0  0  0  0  0  0  0  0  0  0  0
    1.8770   -8.9731    6.0250 C   0  0  1  0  0  0  0  0  0  0  0  0
    0.3543   -9.2250    6.2584 C   0  0  0  0  0  0  0  0  0  0  0  0
    2.5442   -8.9449    7.4533 C   0  0  0  0  0  0  0  0  0  0  0  0
    2.0309   -9.8541    8.4148 O   0  0  0  0  0  0  0  0  0  0  0  0
    2.0754   -7.5868    5.2600 C   0  0  1  0  0  0  0  0  0  0  0  0
    3.4121   -6.8715    5.5936 C   0  0  0  0  0  0  0  0  0  0  0  0
    3.5224   -5.4797    4.9574 C   0  0  0  0  0  0  0  0  0  0  0  0
    3.5769   -5.5434    3.4229 C   0  0  2  0  0  0  0  0  0  0  0  0
    4.8572   -6.3520    3.0262 C   0  0  0  0  0  0  0  0  0  0  0  0
    2.9921   -1.5990   -0.6089 H   0  0  0  0  0  0  0  0  0  0  0  0
    2.2835   -2.4171   -2.0011 H   0  0  0  0  0  0  0  0  0  0  0  0
    3.0404   -0.8308   -2.1893 H   0  0  0  0  0  0  0  0  0  0  0  0
    6.5856   -2.0520   -1.8486 H   0  0  0  0  0  0  0  0  0  0  0  0
    5.5778   -0.6307   -2.0179 H   0  0  0  0  0  0  0  0  0  0  0  0
    6.5899   -0.7816    0.2700 H   0  0  0  0  0  0  0  0  0  0  0  0
    4.8654   -0.7119    0.2763 H   0  0  0  0  0  0  0  0  0  0  0  0
    7.8138   -2.7864    1.2028 H   0  0  0  0  0  0  0  0  0  0  0  0
    7.2980   -3.6047   -0.2499 H   0  0  0  0  0  0  0  0  0  0  0  0
    6.9957   -4.3408    1.3108 H   0  0  0  0  0  0  0  0  0  0  0  0
    6.2943   -1.7123    2.7224 H   0  0  0  0  0  0  0  0  0  0  0  0
    4.6297   -1.4311    2.3606 H   0  0  0  0  0  0  0  0  0  0  0  0
    5.8381   -4.0328    3.2596 H   0  0  0  0  0  0  0  0  0  0  0  0
    4.8943   -2.9892    4.2574 H   0  0  0  0  0  0  0  0  0  0  0  0
    2.5755   -2.8870    4.2913 H   0  0  0  0  0  0  0  0  0  0  0  0
    1.5276   -3.4897    3.0253 H   0  0  0  0  0  0  0  0  0  0  0  0
    2.5856   -2.1625    2.7052 H   0  0  0  0  0  0  0  0  0  0  0  0
    3.8106   -4.4737   -1.4850 H   0  0  0  0  0  0  0  0  0  0  0  0
    5.5034   -4.3037   -1.3394 H   0  0  0  0  0  0  0  0  0  0  0  0
    1.5764   -4.4254    1.0455 H   0  0  0  0  0  0  0  0  0  0  0  0
    2.3526   -5.1199   -0.3221 H   0  0  0  0  0  0  0  0  0  0  0  0
    1.3723   -6.8357    1.0267 H   0  0  0  0  0  0  0  0  0  0  0  0
    3.1038   -7.0149    1.0641 H   0  0  0  0  0  0  0  0  0  0  0  0
    1.4724   -5.5659    3.1919 H   0  0  0  0  0  0  0  0  0  0  0  0
   -0.2245   -8.5830    3.4823 H   0  0  0  0  0  0  0  0  0  0  0  0
   -0.0977   -7.1538    2.5446 H   0  0  0  0  0  0  0  0  0  0  0  0
   -0.3007   -7.0136    4.2669 H   0  0  0  0  0  0  0  0  0  0  0  0
    1.9284   -8.9670    1.9992 H   0  0  0  0  0  0  0  0  0  0  0  0
    3.3928   -8.8408    2.9035 H   0  0  0  0  0  0  0  0  0  0  0  0
    0.9339  -10.4195    3.6930 H   0  0  0  0  0  0  0  0  0  0  0  0
    2.4802  -11.0214    3.2170 H   0  0  0  0  0  0  0  0  0  0  0  0
    2.1560  -11.0993    5.6781 H   0  0  0  0  0  0  0  0  0  0  0  0
    4.1606  -11.0116    4.8334 H   0  0  0  0  0  0  0  0  0  0  0  0
   -0.1229   -8.3640    6.7244 H   0  0  0  0  0  0  0  0  0  0  0  0
    0.1596  -10.0934    6.8900 H   0  0  0  0  0  0  0  0  0  0  0  0
   -0.1894   -9.4588    5.3480 H   0  0  0  0  0  0  0  0  0  0  0  0
    3.6297   -9.0851    7.3874 H   0  0  0  0  0  0  0  0  0  0  0  0
    2.3857   -7.9840    7.9339 H   0  0  0  0  0  0  0  0  0  0  0  0
    1.9265  -10.7346    8.0448 H   0  0  0  0  0  0  0  0  0  0  0  0
    1.3475   -6.9120    5.7108 H   0  0  0  0  0  0  0  0  0  0  0  0
    3.4922   -6.6758    6.6590 H   0  0  0  0  0  0  0  0  0  0  0  0
    4.2648   -7.4996    5.3425 H   0  0  0  0  0  0  0  0  0  0  0  0
    2.6576   -4.8963    5.2799 H   0  0  0  0  0  0  0  0  0  0  0  0
    4.3987   -4.9689    5.3632 H   0  0  0  0  0  0  0  0  0  0  0  0
    4.7634   -7.4068    3.2273 H   0  0  0  0  0  0  0  0  0  0  0  0
    5.7263   -6.0577    3.6111 H   0  0  0  0  0  0  0  0  0  0  0  0
    5.1122   -6.2507    1.9724 H   0  0  0  0  0  0  0  0  0  0  0  0
  2  1  1  6
  1 35  1  0
  1 36  1  0
  1 37  1  0
  2 16  1  0
  2  3  1  0
  2  6  1  0
  3  4  2  0
  3  5  1  0
  6  7  1  0
  6 38  1  0
  6 39  1  0
  7  8  1  0
  7 40  1  0
  7 41  1  0
  8 15  1  0
  8  9  1  1
  8 10  1  0
  9 42  1  0
  9 43  1  0
  9 44  1  0
 10 11  1  0
 10 45  1  0
 10 46  1  0
 11 12  1  0
 11 47  1  0
 11 48  1  0
 12 33  1  0
 12 13  1  1
 12 14  1  0
 13 49  1  0
 13 50  1  0
 13 51  1  0
 14 15  2  0
 14 17  1  0
 15 16  1  0
 16 52  1  0
 16 53  1  0
 17 18  1  0
 17 54  1  0
 17 55  1  0
 18 19  1  0
 18 56  1  0
 18 57  1  0
 19 33  1  0
 19 20  1  0
 19 58  1  6
 20 30  1  0
 20 21  1  1
 20 22  1  0
 21 59  1  0
 21 60  1  0
 21 61  1  0
 22 23  1  0
 22 62  1  0
 22 63  1  0
 23 24  1  0
 23 64  1  0
 23 65  1  0
 24 25  1  0
 24 26  1  0
 24 66  1  1
 25 67  1  0
 26 27  1  1
 26 28  1  0
 26 30  1  0
 27 68  1  0
 27 69  1  0
 27 70  1  0
 28 29  1  0
 28 71  1  0
 28 72  1  0
 29 73  1  0
 30 31  1  0
 30 74  1  1
 31 32  1  0
 31 75  1  0
 31 76  1  0
 32 33  1  0
 32 77  1  0
 32 78  1  0
 33 34  1  1
 34 79  1  0
 34 80  1  0
 34 81  1  0
M  CHG  1   5  -1
M  END
>  <i_m_ct_stereo_status>  (423) 
1

>  <s_m_source_file>  (423) 
/var/tmp/pbs.5076255.sched01/tmpsabrbf27/138opeauupd.sdf

>  <i_m_source_file_index>  (423) 
35

>  <i_lp_mmshare_version>  (423) 
48012

>  <i_f3d_flags>  (423) 
0

>  <s_epik_input>  (423) 
Tz1DKFtPSF0pW0NAXShbQ0gzXSkoW0NIMl1bQ0gyXTEpW0NIMl1DKFtDQEBdMTJbQ0gzXSk9QzNbQ0BdKFtDSDNdKShbQ0gyXVtDSDJdMilbQ0BdNChbQ0gzXSlbQ0BASF0oW0NIMl1bQ0gyXTMpW0NAXTUoW0NIM10pW0NASF0oW0NIMl1bQ0gyXTQpW0NAXShbQ0gzXSkoW0NIMl1bT0hdKVtDQEhdKFtPSF0pW0NIMl1bQ0gyXTU=

>  <s_epik_cmdline>  (423) 
J2VwaWtfcHl0aG9uJywgJy1waHQnLCAnMi4wJywgJy1waCcsICc3LjAnLCAnLXRuJywgJzgnLCAnLW1hJywgJzIwMCcsICctaW1hZScsICc8aW5maWxlLm1hZT4nLCAnLW9tYWUnLCAnPG91dGZpbGUubWFlPic=

>  <r_epik_Ionization_Penalty>  (423) 
0.00582742

>  <r_epik_Ionization_Penalty_Charging>  (423) 
0.00582557

>  <r_epik_Ionization_Penalty_Neutral>  (423) 
1.85211e-06

>  <r_epik_State_Penalty>  (423) 
0.00427953

>  <r_epik_Charging_Adjusted_Penalty>  (423) 
0.0101051

>  <i_epik_Tot_Q>  (423) 
-1

>  <i_epik_Tot_abs_Q>  (423) 
1

>  <s_lp_Force_Field>  (423) 
OPLS3e

>  <r_lp_Energy>  (423) 
94.6155

>  <b_lp_Chiralities_Consistent>  (423) 
1

>  <s_lp_Variant>  (423) 
107:0-1

>  <s_i_glide_gridfile>  (423) 
pfpi4k_grid

>  <i_i_glide_lignum>  (423) 
35

>  <i_i_glide_rotatable_bonds>  (423) 
4

>  <r_i_docking_score>  (423) 
-3.06052

>  <r_i_glide_ligand_efficiency>  (423) 
-0.0900154

>  <r_i_glide_ligand_efficiency_sa>  (423) 
-0.291615

>  <r_i_glide_ligand_efficiency_ln>  (423) 
-0.676156

>  <r_i_glide_gscore>  (423) 
-3.06052

>  <r_i_glide_lipo>  (423) 
-0.2926

>  <r_i_glide_hbond>  (423) 
-0.32

>  <r_i_glide_metal>  (423) 
-0

>  <r_i_glide_rewards>  (423) 
-0.381304

>  <r_i_glide_evdw>  (423) 
-22.4177

>  <r_i_glide_ecoul>  (423) 
-6.91059

>  <r_i_glide_erotb>  (423) 
0.0908544

>  <r_i_glide_esite>  (423) 
0

>  <r_i_glide_emodel>  (423) 
-33.706

>  <r_i_glide_energy>  (423) 
-29.3283

>  <r_i_glide_einternal>  (423) 
3.28364

>  <r_i_glide_intrahb_reward>  (423) 
-0

>  <i_i_glide_confnum>  (423) 
2

>  <i_i_glide_posenum>  (423) 
1

>  <r_i_glide_eff_state_penalty>  (423) 
0

>  <ligand_id>  (423) 
107

>  <original_smiles>  (423) 
CC1(C(=O)O)CCC2(C)CCC3(C)C(=C2C1)CCC1C2(C)CCC(O)C(C)(CO)C2CCC13C

>  <smiles>  (423) 
[H]OC([H])([H])C1(C([H])([H])[H])C([H])(O[H])C([H])([H])C([H])([H])C2(C([H])([H])[H])C1([H])C([H])([H])C([H])([H])C1(C([H])([H])[H])C2([H])C([H])([H])C([H])([H])C2=C3C([H])([H])C(C(=O)[O-])(C([H])([H])[H])C([H])([H])C([H])([H])C3(C([H])([H])[H])C([H])([H])C([H])([H])C21C([H])([H])[H]

$$$$
107:0:1
     RDKit          3D

 81 85  0  0  1  0  0  0  0  0999 V2000
    3.1512   -1.7954   -1.6477 C   0  0  0  0  0  0  0  0  0  0  0  0
    4.5038   -2.4723   -1.9898 C   0  0  1  0  0  0  0  0  0  0  0  0
    4.5441   -2.7387   -3.5218 C   0  0  0  0  0  0  0  0  0  0  0  0
    4.9718   -3.8475   -3.9205 O   0  0  0  0  0  0  0  0  0  0  0  0
    4.1955   -1.8145   -4.2897 O   0  0  0  0  0  0  0  0  0  0  0  0
    5.6949   -1.5649   -1.6270 C   0  0  0  0  0  0  0  0  0  0  0  0
    5.8299   -1.3522   -0.1081 C   0  0  0  0  0  0  0  0  0  0  0  0
    5.8530   -2.6604    0.7345 C   0  0  1  0  0  0  0  0  0  0  0  0
    7.2153   -3.3738    0.5470 C   0  0  0  0  0  0  0  0  0  0  0  0
    5.6843   -2.2308    2.2044 C   0  0  0  0  0  0  0  0  0  0  0  0
    5.3392   -3.4111    3.1162 C   0  0  0  0  0  0  0  0  0  0  0  0
    4.0087   -4.1330    2.7313 C   0  0  1  0  0  0  0  0  0  0  0  0
    2.8717   -3.2008    3.2588 C   0  0  0  0  0  0  0  0  0  0  0  0
    3.8706   -4.2187    1.1904 C   0  0  0  0  0  0  0  0  0  0  0  0
    4.7195   -3.6111    0.3131 C   0  0  0  0  0  0  0  0  0  0  0  0
    4.6606   -3.7932   -1.2043 C   0  0  0  0  0  0  0  0  0  0  0  0
    2.6461   -5.0335    0.7622 C   0  0  0  0  0  0  0  0  0  0  0  0
    2.5539   -6.4215    1.4019 C   0  0  0  0  0  0  0  0  0  0  0  0
    2.6273   -6.3486    2.9477 C   0  0  1  0  0  0  0  0  0  0  0  0
    2.1832   -7.6901    3.6952 C   0  0  1  0  0  0  0  0  0  0  0  0
    0.6225   -7.7069    3.5868 C   0  0  0  0  0  0  0  0  0  0  0  0
    2.7150   -8.9625    2.9648 C   0  0  0  0  0  0  0  0  0  0  0  0
    2.4593  -10.2932    3.6911 C   0  0  0  0  0  0  0  0  0  0  0  0
    3.0054  -10.2793    5.1254 C   0  0  1  0  0  0  0  0  0  0  0  0
    4.4196  -10.2779    5.0493 O   0  0  0  0  0  0  0  0  0  0  0  0
    2.4523   -9.1087    5.9903 C   0  0  1  0  0  0  0  0  0  0  0  0
    0.9569   -9.3858    6.3204 C   0  0  0  0  0  0  0  0  0  0  0  0
    3.1879   -9.0938    7.3698 C   0  0  0  0  0  0  0  0  0  0  0  0
    3.0079  -10.2537    8.1677 O   0  0  0  0  0  0  0  0  0  0  0  0
    2.5831   -7.7076    5.2374 C   0  0  1  0  0  0  0  0  0  0  0  0
    3.9228   -6.9773    5.5149 C   0  0  0  0  0  0  0  0  0  0  0  0
    3.9843   -5.5750    4.8957 C   0  0  0  0  0  0  0  0  0  0  0  0
    3.9577   -5.6137    3.3558 C   0  0  2  0  0  0  0  0  0  0  0  0
    5.2180   -6.4033    2.8740 C   0  0  0  0  0  0  0  0  0  0  0  0
    3.0455   -1.6183   -0.5766 H   0  0  0  0  0  0  0  0  0  0  0  0
    2.3101   -2.4249   -1.9498 H   0  0  0  0  0  0  0  0  0  0  0  0
    3.0386   -0.8281   -2.1445 H   0  0  0  0  0  0  0  0  0  0  0  0
    6.6128   -2.0077   -2.0150 H   0  0  0  0  0  0  0  0  0  0  0  0
    5.5813   -0.5978   -2.1149 H   0  0  0  0  0  0  0  0  0  0  0  0
    6.7222   -0.7652    0.1080 H   0  0  0  0  0  0  0  0  0  0  0  0
    4.9992   -0.7217    0.2146 H   0  0  0  0  0  0  0  0  0  0  0  0
    8.0418   -2.7689    0.9152 H   0  0  0  0  0  0  0  0  0  0  0  0
    7.4361   -3.5788   -0.5005 H   0  0  0  0  0  0  0  0  0  0  0  0
    7.2409   -4.3334    1.0662 H   0  0  0  0  0  0  0  0  0  0  0  0
    6.5987   -1.7365    2.5297 H   0  0  0  0  0  0  0  0  0  0  0  0
    4.9046   -1.4748    2.2985 H   0  0  0  0  0  0  0  0  0  0  0  0
    6.1905   -4.0784    3.0719 H   0  0  0  0  0  0  0  0  0  0  0  0
    5.2986   -3.0614    4.1484 H   0  0  0  0  0  0  0  0  0  0  0  0
    2.9741   -2.9844    4.3219 H   0  0  0  0  0  0  0  0  0  0  0  0
    1.8644   -3.5821    3.1077 H   0  0  0  0  0  0  0  0  0  0  0  0
    2.8846   -2.2367    2.7489 H   0  0  0  0  0  0  0  0  0  0  0  0
    3.8894   -4.4743   -1.5201 H   0  0  0  0  0  0  0  0  0  0  0  0
    5.5878   -4.2805   -1.4949 H   0  0  0  0  0  0  0  0  0  0  0  0
    1.7982   -4.4440    1.0787 H   0  0  0  0  0  0  0  0  0  0  0  0
    2.5043   -5.1513   -0.3057 H   0  0  0  0  0  0  0  0  0  0  0  0
    1.6275   -6.8928    1.0683 H   0  0  0  0  0  0  0  0  0  0  0  0
    3.3555   -7.0452    1.0021 H   0  0  0  0  0  0  0  0  0  0  0  0
    1.8414   -5.6598    3.2444 H   0  0  0  0  0  0  0  0  0  0  0  0
    0.1984   -8.7068    3.5864 H   0  0  0  0  0  0  0  0  0  0  0  0
    0.2525   -7.2597    2.6660 H   0  0  0  0  0  0  0  0  0  0  0  0
    0.1486   -7.1512    4.3974 H   0  0  0  0  0  0  0  0  0  0  0  0
    2.2728   -9.0376    1.9714 H   0  0  0  0  0  0  0  0  0  0  0  0
    3.7827   -8.9077    2.7955 H   0  0  0  0  0  0  0  0  0  0  0  0
    1.3978  -10.5301    3.6977 H   0  0  0  0  0  0  0  0  0  0  0  0
    2.9199  -11.1048    3.1236 H   0  0  0  0  0  0  0  0  0  0  0  0
    2.7304  -11.2214    5.6005 H   0  0  0  0  0  0  0  0  0  0  0  0
    4.7042  -11.1555    4.8349 H   0  0  0  0  0  0  0  0  0  0  0  0
    0.4924   -8.5331    6.8174 H   0  0  0  0  0  0  0  0  0  0  0  0
    0.8282  -10.2485    6.9744 H   0  0  0  0  0  0  0  0  0  0  0  0
    0.3596   -9.6290    5.4471 H   0  0  0  0  0  0  0  0  0  0  0  0
    4.2624   -8.9811    7.2389 H   0  0  0  0  0  0  0  0  0  0  0  0
    2.8625   -8.2408    7.9598 H   0  0  0  0  0  0  0  0  0  0  0  0
    2.3759  -10.8561    7.7776 H   0  0  0  0  0  0  0  0  0  0  0  0
    1.8742   -7.0480    5.7412 H   0  0  0  0  0  0  0  0  0  0  0  0
    4.0436   -6.8134    6.5841 H   0  0  0  0  0  0  0  0  0  0  0  0
    4.7727   -7.5862    5.2125 H   0  0  0  0  0  0  0  0  0  0  0  0
    3.1353   -5.0059    5.2752 H   0  0  0  0  0  0  0  0  0  0  0  0
    4.8782   -5.0620    5.2583 H   0  0  0  0  0  0  0  0  0  0  0  0
    5.1528   -7.4638    3.0612 H   0  0  0  0  0  0  0  0  0  0  0  0
    6.1189   -6.1089    3.4103 H   0  0  0  0  0  0  0  0  0  0  0  0
    5.4130   -6.2830    1.8086 H   0  0  0  0  0  0  0  0  0  0  0  0
  2  1  1  6
  1 35  1  0
  1 36  1  0
  1 37  1  0
  2 16  1  0
  2  3  1  0
  2  6  1  0
  3  4  2  0
  3  5  1  0
  6  7  1  0
  6 38  1  0
  6 39  1  0
  7  8  1  0
  7 40  1  0
  7 41  1  0
  8 15  1  0
  8  9  1  1
  8 10  1  0
  9 42  1  0
  9 43  1  0
  9 44  1  0
 10 11  1  0
 10 45  1  0
 10 46  1  0
 11 12  1  0
 11 47  1  0
 11 48  1  0
 12 33  1  0
 12 13  1  1
 12 14  1  0
 13 49  1  0
 13 50  1  0
 13 51  1  0
 14 15  2  0
 14 17  1  0
 15 16  1  0
 16 52  1  0
 16 53  1  0
 17 18  1  0
 17 54  1  0
 17 55  1  0
 18 19  1  0
 18 56  1  0
 18 57  1  0
 19 33  1  0
 19 20  1  0
 19 58  1  1
 20 30  1  0
 20 21  1  1
 20 22  1  0
 21 59  1  0
 21 60  1  0
 21 61  1  0
 22 23  1  0
 22 62  1  0
 22 63  1  0
 23 24  1  0
 23 64  1  0
 23 65  1  0
 24 25  1  0
 24 26  1  0
 24 66  1  1
 25 67  1  0
 26 27  1  1
 26 28  1  0
 26 30  1  0
 27 68  1  0
 27 69  1  0
 27 70  1  0
 28 29  1  0
 28 71  1  0
 28 72  1  0
 29 73  1  0
 30 31  1  0
 30 74  1  1
 31 32  1  0
 31 75  1  0
 31 76  1  0
 32 33  1  0
 32 77  1  0
 32 78  1  0
 33 34  1  6
 34 79  1  0
 34 80  1  0
 34 81  1  0
M  CHG  1   5  -1
M  END
>  <i_m_ct_stereo_status>  (424) 
1

>  <s_m_source_file>  (424) 
/var/tmp/pbs.5076255.sched01/tmpsabrbf27/138opeauupd.sdf

>  <i_m_source_file_index>  (424) 
35

>  <i_lp_mmshare_version>  (424) 
48012

>  <i_f3d_flags>  (424) 
0

>  <s_epik_input>  (424) 
Tz1DKFtPSF0pW0NAXShbQ0gzXSkoW0NIMl1bQ0gyXTEpW0NIMl1DKFtDQEBdMTJbQ0gzXSk9QzNbQ0BdKFtDSDNdKShbQ0gyXVtDSDJdMilbQ0BdNChbQ0gzXSlbQ0BASF0oW0NIMl1bQ0gyXTMpW0NAXTUoW0NIM10pW0NASF0oW0NIMl1bQ0gyXTQpW0NAXShbQ0gzXSkoW0NIMl1bT0hdKVtDQEhdKFtPSF0pW0NIMl1bQ0gyXTU=

>  <s_epik_cmdline>  (424) 
J2VwaWtfcHl0aG9uJywgJy1waHQnLCAnMi4wJywgJy1waCcsICc3LjAnLCAnLXRuJywgJzgnLCAnLW1hJywgJzIwMCcsICctaW1hZScsICc8aW5maWxlLm1hZT4nLCAnLW9tYWUnLCAnPG91dGZpbGUubWFlPic=

>  <r_epik_Ionization_Penalty>  (424) 
0.00582742

>  <r_epik_Ionization_Penalty_Charging>  (424) 
0.00582557

>  <r_epik_Ionization_Penalty_Neutral>  (424) 
1.85211e-06

>  <r_epik_State_Penalty>  (424) 
0.00427953

>  <r_epik_Charging_Adjusted_Penalty>  (424) 
0.0101051

>  <i_epik_Tot_Q>  (424) 
-1

>  <i_epik_Tot_abs_Q>  (424) 
1

>  <s_lp_Force_Field>  (424) 
OPLS3e

>  <r_lp_Energy>  (424) 
94.6155

>  <b_lp_Chiralities_Consistent>  (424) 
1

>  <s_lp_Variant>  (424) 
107:0-1

>  <s_i_glide_gridfile>  (424) 
pfpi4k_grid

>  <i_i_glide_lignum>  (424) 
35

>  <i_i_glide_rotatable_bonds>  (424) 
4

>  <r_i_docking_score>  (424) 
-2.86811

>  <r_i_glide_ligand_efficiency>  (424) 
-0.0843563

>  <r_i_glide_ligand_efficiency_sa>  (424) 
-0.273282

>  <r_i_glide_ligand_efficiency_ln>  (424) 
-0.633647

>  <r_i_glide_gscore>  (424) 
-2.86811

>  <r_i_glide_lipo>  (424) 
-0.33253

>  <r_i_glide_hbond>  (424) 
-0.16

>  <r_i_glide_metal>  (424) 
-0

>  <r_i_glide_rewards>  (424) 
-0.386824

>  <r_i_glide_evdw>  (424) 
-22.745

>  <r_i_glide_ecoul>  (424) 
-6.28242

>  <r_i_glide_erotb>  (424) 
0.0908544

>  <r_i_glide_esite>  (424) 
0

>  <r_i_glide_emodel>  (424) 
-33.8602

>  <r_i_glide_energy>  (424) 
-29.0274

>  <r_i_glide_einternal>  (424) 
2.60105

>  <r_i_glide_intrahb_reward>  (424) 
-0

>  <i_i_glide_confnum>  (424) 
2

>  <i_i_glide_posenum>  (424) 
39

>  <r_i_glide_eff_state_penalty>  (424) 
0

>  <ligand_id>  (424) 
107

>  <original_smiles>  (424) 
CC1(C(=O)O)CCC2(C)CCC3(C)C(=C2C1)CCC1C2(C)CCC(O)C(C)(CO)C2CCC13C

>  <smiles>  (424) 
[H]OC([H])([H])C1(C([H])([H])[H])C([H])(O[H])C([H])([H])C([H])([H])C2(C([H])([H])[H])C1([H])C([H])([H])C([H])([H])C1(C([H])([H])[H])C2([H])C([H])([H])C([H])([H])C2=C3C([H])([H])C(C(=O)[O-])(C([H])([H])[H])C([H])([H])C([H])([H])C3(C([H])([H])[H])C([H])([H])C([H])([H])C21C([H])([H])[H]

$$$$
107:0:2
     RDKit          3D

 81 85  0  0  1  0  0  0  0  0999 V2000
    3.0631   -1.6777   -1.6272 C   0  0  0  0  0  0  0  0  0  0  0  0
    4.4092   -2.2850   -2.0630 C   0  0  1  0  0  0  0  0  0  0  0  0
    4.3838   -2.3966   -3.6016 C   0  0  0  0  0  0  0  0  0  0  0  0
    4.5735   -3.5144   -4.1378 O   0  0  0  0  0  0  0  0  0  0  0  0
    4.1941   -1.3438   -4.2573 O   0  0  0  0  0  0  0  0  0  0  0  0
    5.5966   -1.4086   -1.6354 C   0  0  0  0  0  0  0  0  0  0  0  0
    5.7591   -1.3593   -0.1062 C   0  0  0  0  0  0  0  0  0  0  0  0
    5.8197   -2.7513    0.5908 C   0  0  1  0  0  0  0  0  0  0  0  0
    7.1857   -3.4183    0.2988 C   0  0  0  0  0  0  0  0  0  0  0  0
    5.6771   -2.4862    2.1006 C   0  0  0  0  0  0  0  0  0  0  0  0
    5.3662   -3.7597    2.8842 C   0  0  0  0  0  0  0  0  0  0  0  0
    4.0362   -4.4546    2.4512 C   0  0  1  0  0  0  0  0  0  0  0  0
    2.9000   -3.6056    3.0997 C   0  0  0  0  0  0  0  0  0  0  0  0
    3.8609   -4.3740    0.9159 C   0  0  0  0  0  0  0  0  0  0  0  0
    4.6857   -3.6642    0.0902 C   0  0  0  0  0  0  0  0  0  0  0  0
    4.5977   -3.6753   -1.4336 C   0  0  0  0  0  0  0  0  0  0  0  0
    2.6350   -5.1532    0.4304 C   0  0  0  0  0  0  0  0  0  0  0  0
    2.5868   -6.6017    0.9255 C   0  0  0  0  0  0  0  0  0  0  0  0
    2.6858   -6.6972    2.4628 C   0  0  1  0  0  0  0  0  0  0  0  0
    2.2815   -8.1191    3.0627 C   0  0  1  0  0  0  0  0  0  0  0  0
    0.7203   -8.1571    2.9863 C   0  0  0  0  0  0  0  0  0  0  0  0
    2.8139   -9.3009    2.1901 C   0  0  0  0  0  0  0  0  0  0  0  0
    2.5856  -10.6981    2.7843 C   0  0  0  0  0  0  0  0  0  0  0  0
    3.1736  -10.8251    4.1936 C   0  0  1  0  0  0  0  0  0  0  0  0
    4.5834  -10.7902    4.0708 O   0  0  0  0  0  0  0  0  0  0  0  0
    2.6303   -9.7522    5.1871 C   0  0  1  0  0  0  0  0  0  0  0  0
    1.1537  -10.1122    5.5105 C   0  0  0  0  0  0  0  0  0  0  0  0
    3.4151   -9.9140    6.5327 C   0  0  0  0  0  0  0  0  0  0  0  0
    2.8845   -9.1129    7.5752 O   0  0  0  0  0  0  0  0  0  0  0  0
    2.7185   -8.2856    4.5839 C   0  0  1  0  0  0  0  0  0  0  0  0
    4.0569   -7.5737    4.9044 C   0  0  0  0  0  0  0  0  0  0  0  0
    4.0846   -6.1173    4.4422 C   0  0  0  0  0  0  0  0  0  0  0  0
    4.0232   -5.9947    2.9104 C   0  0  2  0  0  0  0  0  0  0  0  0
    5.2806   -6.7098    2.3193 C   0  0  0  0  0  0  0  0  0  0  0  0
    3.0026   -1.6131   -0.5407 H   0  0  0  0  0  0  0  0  0  0  0  0
    2.2303   -2.2990   -1.9701 H   0  0  0  0  0  0  0  0  0  0  0  0
    2.9204   -0.6687   -2.0280 H   0  0  0  0  0  0  0  0  0  0  0  0
    6.5036   -1.8093   -2.0885 H   0  0  0  0  0  0  0  0  0  0  0  0
    5.4545   -0.3971   -2.0165 H   0  0  0  0  0  0  0  0  0  0  0  0
    6.6489   -0.7830    0.1490 H   0  0  0  0  0  0  0  0  0  0  0  0
    4.9276   -0.7811    0.2984 H   0  0  0  0  0  0  0  0  0  0  0  0
    8.0076   -2.8497    0.7352 H   0  0  0  0  0  0  0  0  0  0  0  0
    7.3895   -3.4964   -0.7691 H   0  0  0  0  0  0  0  0  0  0  0  0
    7.2318   -4.4291    0.7022 H   0  0  0  0  0  0  0  0  0  0  0  0
    6.5933   -2.0236    2.4670 H   0  0  0  0  0  0  0  0  0  0  0  0
    4.8917   -1.7544    2.2864 H   0  0  0  0  0  0  0  0  0  0  0  0
    6.2239   -4.4053    2.7580 H   0  0  0  0  0  0  0  0  0  0  0  0
    5.3414   -3.5226    3.9462 H   0  0  0  0  0  0  0  0  0  0  0  0
    3.0240   -3.5075    4.1771 H   0  0  0  0  0  0  0  0  0  0  0  0
    1.8962   -3.9839    2.9270 H   0  0  0  0  0  0  0  0  0  0  0  0
    2.8906   -2.5929    2.6994 H   0  0  0  0  0  0  0  0  0  0  0  0
    3.7849   -4.2626   -1.8145 H   0  0  0  0  0  0  0  0  0  0  0  0
    5.5114   -4.1341   -1.8113 H   0  0  0  0  0  0  0  0  0  0  0  0
    1.7705   -4.6323    0.8190 H   0  0  0  0  0  0  0  0  0  0  0  0
    2.4778   -5.1482   -0.6408 H   0  0  0  0  0  0  0  0  0  0  0  0
    1.6666   -7.0586    0.5571 H   0  0  0  0  0  0  0  0  0  0  0  0
    3.4088   -7.1564    0.4745 H   0  0  0  0  0  0  0  0  0  0  0  0
    1.8957   -6.0605    2.8506 H   0  0  0  0  0  0  0  0  0  0  0  0
    0.3122   -9.1580    2.8891 H   0  0  0  0  0  0  0  0  0  0  0  0
    0.3225   -7.6233    2.1265 H   0  0  0  0  0  0  0  0  0  0  0  0
    0.2570   -7.6999    3.8612 H   0  0  0  0  0  0  0  0  0  0  0  0
    2.3495   -9.2834    1.2045 H   0  0  0  0  0  0  0  0  0  0  0  0
    3.8766   -9.2156    2.0024 H   0  0  0  0  0  0  0  0  0  0  0  0
    1.5285  -10.9541    2.7888 H   0  0  0  0  0  0  0  0  0  0  0  0
    3.0357  -11.4429    2.1272 H   0  0  0  0  0  0  0  0  0  0  0  0
    2.9248  -11.8182    4.5740 H   0  0  0  0  0  0  0  0  0  0  0  0
    4.8322  -11.4429    3.4264 H   0  0  0  0  0  0  0  0  0  0  0  0
    0.6637   -9.3392    6.1049 H   0  0  0  0  0  0  0  0  0  0  0  0
    1.0943  -11.0469    6.0717 H   0  0  0  0  0  0  0  0  0  0  0  0
    0.5357  -10.2849    4.6381 H   0  0  0  0  0  0  0  0  0  0  0  0
    3.3966  -10.9539    6.8652 H   0  0  0  0  0  0  0  0  0  0  0  0
    4.4761   -9.6791    6.4204 H   0  0  0  0  0  0  0  0  0  0  0  0
    2.1765   -9.6006    7.9726 H   0  0  0  0  0  0  0  0  0  0  0  0
    2.0111   -7.7002    5.1732 H   0  0  0  0  0  0  0  0  0  0  0  0
    4.1960   -7.5147    5.9806 H   0  0  0  0  0  0  0  0  0  0  0  0
    4.9045   -8.1385    4.5221 H   0  0  0  0  0  0  0  0  0  0  0  0
    3.2352   -5.6108    4.8986 H   0  0  0  0  0  0  0  0  0  0  0  0
    4.9794   -5.6334    4.8393 H   0  0  0  0  0  0  0  0  0  0  0  0
    5.2333   -7.7859    2.3927 H   0  0  0  0  0  0  0  0  0  0  0  0
    6.1910   -6.4616    2.8639 H   0  0  0  0  0  0  0  0  0  0  0  0
    5.4519   -6.4723    1.2689 H   0  0  0  0  0  0  0  0  0  0  0  0
  2  1  1  1
  1 35  1  0
  1 36  1  0
  1 37  1  0
  2 16  1  0
  2  3  1  0
  2  6  1  0
  3  4  2  0
  3  5  1  0
  6  7  1  0
  6 38  1  0
  6 39  1  0
  7  8  1  0
  7 40  1  0
  7 41  1  0
  8 15  1  0
  8  9  1  1
  8 10  1  0
  9 42  1  0
  9 43  1  0
  9 44  1  0
 10 11  1  0
 10 45  1  0
 10 46  1  0
 11 12  1  0
 11 47  1  0
 11 48  1  0
 12 33  1  0
 12 13  1  1
 12 14  1  0
 13 49  1  0
 13 50  1  0
 13 51  1  0
 14 15  2  0
 14 17  1  0
 15 16  1  0
 16 52  1  0
 16 53  1  0
 17 18  1  0
 17 54  1  0
 17 55  1  0
 18 19  1  0
 18 56  1  0
 18 57  1  0
 19 33  1  0
 19 20  1  0
 19 58  1  1
 20 30  1  0
 20 21  1  1
 20 22  1  0
 21 59  1  0
 21 60  1  0
 21 61  1  0
 22 23  1  0
 22 62  1  0
 22 63  1  0
 23 24  1  0
 23 64  1  0
 23 65  1  0
 24 25  1  0
 24 26  1  0
 24 66  1  1
 25 67  1  0
 26 27  1  1
 26 28  1  0
 26 30  1  0
 27 68  1  0
 27 69  1  0
 27 70  1  0
 28 29  1  0
 28 71  1  0
 28 72  1  0
 29 73  1  0
 30 31  1  0
 30 74  1  1
 31 32  1  0
 31 75  1  0
 31 76  1  0
 32 33  1  0
 32 77  1  0
 32 78  1  0
 33 34  1  6
 34 79  1  0
 34 80  1  0
 34 81  1  0
M  CHG  1   5  -1
M  END
>  <i_m_ct_stereo_status>  (425) 
1

>  <s_m_source_file>  (425) 
/var/tmp/pbs.5076255.sched01/tmpsabrbf27/138opeauupd.sdf

>  <i_m_source_file_index>  (425) 
35

>  <i_lp_mmshare_version>  (425) 
48012

>  <i_f3d_flags>  (425) 
0

>  <s_epik_input>  (425) 
Tz1DKFtPSF0pW0NAXShbQ0gzXSkoW0NIMl1bQ0gyXTEpW0NIMl1DKFtDQEBdMTJbQ0gzXSk9QzNbQ0BdKFtDSDNdKShbQ0gyXVtDSDJdMilbQ0BdNChbQ0gzXSlbQ0BASF0oW0NIMl1bQ0gyXTMpW0NAXTUoW0NIM10pW0NASF0oW0NIMl1bQ0gyXTQpW0NAXShbQ0gzXSkoW0NIMl1bT0hdKVtDQEhdKFtPSF0pW0NIMl1bQ0gyXTU=

>  <s_epik_cmdline>  (425) 
J2VwaWtfcHl0aG9uJywgJy1waHQnLCAnMi4wJywgJy1waCcsICc3LjAnLCAnLXRuJywgJzgnLCAnLW1hJywgJzIwMCcsICctaW1hZScsICc8aW5maWxlLm1hZT4nLCAnLW9tYWUnLCAnPG91dGZpbGUubWFlPic=

>  <r_epik_Ionization_Penalty>  (425) 
0.00582742

>  <r_epik_Ionization_Penalty_Charging>  (425) 
0.00582557

>  <r_epik_Ionization_Penalty_Neutral>  (425) 
1.85211e-06

>  <r_epik_State_Penalty>  (425) 
0.00427953

>  <r_epik_Charging_Adjusted_Penalty>  (425) 
0.0101051

>  <i_epik_Tot_Q>  (425) 
-1

>  <i_epik_Tot_abs_Q>  (425) 
1

>  <s_lp_Force_Field>  (425) 
OPLS3e

>  <r_lp_Energy>  (425) 
94.6155

>  <b_lp_Chiralities_Consistent>  (425) 
1

>  <s_lp_Variant>  (425) 
107:0-1

>  <s_i_glide_gridfile>  (425) 
pfpi4k_grid

>  <i_i_glide_lignum>  (425) 
35

>  <i_i_glide_rotatable_bonds>  (425) 
4

>  <r_i_docking_score>  (425) 
-2.6126

>  <r_i_glide_ligand_efficiency>  (425) 
-0.076841

>  <r_i_glide_ligand_efficiency_sa>  (425) 
-0.248935

>  <r_i_glide_ligand_efficiency_ln>  (425) 
-0.577196

>  <r_i_glide_gscore>  (425) 
-2.6126

>  <r_i_glide_lipo>  (425) 
-0.339273

>  <r_i_glide_hbond>  (425) 
-0.132929

>  <r_i_glide_metal>  (425) 
-0

>  <r_i_glide_rewards>  (425) 
-0.37451

>  <r_i_glide_evdw>  (425) 
-24.1706

>  <r_i_glide_ecoul>  (425) 
-4.32137

>  <r_i_glide_erotb>  (425) 
0.0908544

>  <r_i_glide_esite>  (425) 
0

>  <r_i_glide_emodel>  (425) 
-33.3168

>  <r_i_glide_energy>  (425) 
-28.492

>  <r_i_glide_einternal>  (425) 
2.00229

>  <r_i_glide_intrahb_reward>  (425) 
-0

>  <i_i_glide_confnum>  (425) 
4

>  <i_i_glide_posenum>  (425) 
22

>  <r_i_glide_eff_state_penalty>  (425) 
0

>  <ligand_id>  (425) 
107

>  <original_smiles>  (425) 
CC1(C(=O)O)CCC2(C)CCC3(C)C(=C2C1)CCC1C2(C)CCC(O)C(C)(CO)C2CCC13C

>  <smiles>  (425) 
[H]OC([H])([H])C1(C([H])([H])[H])C([H])(O[H])C([H])([H])C([H])([H])C2(C([H])([H])[H])C1([H])C([H])([H])C([H])([H])C1(C([H])([H])[H])C2([H])C([H])([H])C([H])([H])C2=C3C([H])([H])C(C(=O)[O-])(C([H])([H])[H])C([H])([H])C([H])([H])C3(C([H])([H])[H])C([H])([H])C([H])([H])C21C([H])([H])[H]

$$$$
108:0:0
     RDKit          3D

 33 36  0  0  1  0  0  0  0  0999 V2000
    1.7516   -6.8043    5.0927 O   0  0  0  0  0  0  0  0  0  0  0  0
    1.9110   -7.9719    4.4515 C   0  0  0  0  0  0  0  0  0  0  0  0
    0.8959   -8.9938    4.9336 C   0  0  0  0  0  0  0  0  0  0  0  0
    0.6830  -10.1463    3.9283 C   0  0  0  0  0  0  0  0  0  0  0  0
    1.9069  -10.4151    3.0687 C   0  0  0  0  0  0  0  0  0  0  0  0
    2.9015   -9.5325    2.8819 C   0  0  0  0  0  0  0  0  0  0  0  0
    4.0079   -9.8623    2.1068 N   0  0  0  0  0  0  0  0  0  0  0  0
    5.1425   -9.0684    2.0859 C   0  0  0  0  0  0  0  0  0  0  0  0
    6.3643   -9.4102    1.7098 N   0  0  0  0  0  0  0  0  0  0  0  0
    7.0248   -8.2555    2.0383 C   0  0  0  0  0  0  0  0  0  0  0  0
    6.2814   -7.2636    2.5352 N   0  0  0  0  0  0  0  0  0  0  0  0
    5.0460   -7.8215    2.5553 N   0  0  0  0  0  0  0  0  0  0  0  0
    3.8374   -7.1404    3.0078 C   0  0  1  0  0  0  0  0  0  0  0  0
    3.2819   -6.2696    1.8744 C   0  0  0  0  0  0  0  0  0  0  0  0
    4.0311   -5.1912    1.3533 C   0  0  0  0  0  0  0  0  0  0  0  0
    3.4884   -4.4284    0.2995 C   0  0  0  0  0  0  0  0  0  0  0  0
    2.2191   -4.7726   -0.1961 C   0  0  0  0  0  0  0  0  0  0  0  0
    1.4814   -5.8013    0.2815 N   0  0  0  0  0  0  0  0  0  0  0  0
    2.0125   -6.5218    1.2896 C   0  0  0  0  0  0  0  0  0  0  0  0
    2.8352   -8.2010    3.4917 C   0  0  0  0  0  0  0  0  0  0  0  0
   -0.0602   -8.5129    5.1489 H   0  0  0  0  0  0  0  0  0  0  0  0
    1.2725   -9.4037    5.8744 H   0  0  0  0  0  0  0  0  0  0  0  0
    0.4313  -11.0597    4.4700 H   0  0  0  0  0  0  0  0  0  0  0  0
   -0.1528   -9.9309    3.2572 H   0  0  0  0  0  0  0  0  0  0  0  0
    1.9445  -11.3857    2.5973 H   0  0  0  0  0  0  0  0  0  0  0  0
    8.0944   -8.1463    1.9100 H   0  0  0  0  0  0  0  0  0  0  0  0
    4.1170   -6.5046    3.8411 H   0  0  0  0  0  0  0  0  0  0  0  0
    5.0115   -4.9492    1.7445 H   0  0  0  0  0  0  0  0  0  0  0  0
    4.0307   -3.5994   -0.1314 H   0  0  0  0  0  0  0  0  0  0  0  0
    1.7758   -4.2137   -1.0035 H   0  0  0  0  0  0  0  0  0  0  0  0
    1.3681   -7.3226    1.6218 H   0  0  0  0  0  0  0  0  0  0  0  0
    4.0898  -10.7973    1.7175 H   0  0  0  0  0  0  0  0  0  0  0  0
    2.4205   -6.2172    4.7799 H   0  0  0  0  0  0  0  0  0  0  0  0
  1  2  1  0
  1 33  1  0
  2  3  1  0
  2 20  2  0
  3  4  1  0
  3 21  1  0
  3 22  1  0
  4  5  1  0
  4 23  1  0
  4 24  1  0
  5 25  1  0
  5  6  2  0
  6 20  1  0
  6  7  1  0
  7  8  1  0
  7 32  1  0
  8 12  1  0
  8  9  2  0
  9 10  1  0
 10 11  2  0
 10 26  1  0
 11 12  1  0
 12 13  1  0
 13 14  1  0
 13 27  1  1
 13 20  1  0
 14 19  1  0
 14 15  2  0
 15 16  1  0
 15 28  1  0
 16 17  2  0
 16 29  1  0
 17 18  1  0
 17 30  1  0
 18 19  2  0
 19 31  1  0
M  END
>  <i_m_ct_stereo_status>  (426) 
1

>  <s_m_source_file>  (426) 
/var/tmp/pbs.5076255.sched01/tmpsabrbf27/138opeauupd.sdf

>  <i_m_source_file_index>  (426) 
36

>  <i_lp_mmshare_version>  (426) 
48012

>  <i_f3d_flags>  (426) 
0

>  <s_epik_input>  (426) 
W0NIMl0xW0NIMl1bQ0gyXUMoPU8pW0NAQEhdKEMxPTIpW0NAQEhdKG4zYyhOMiluW2NIXW4zKWM0W2NIXVtjSF1bY0hdbltjSF00

>  <s_epik_cmdline>  (426) 
J2VwaWtfcHl0aG9uJywgJy1waHQnLCAnMi4wJywgJy1waCcsICc3LjAnLCAnLXRuJywgJzgnLCAnLW1hJywgJzIwMCcsICctaW1hZScsICc8aW5maWxlLm1hZT4nLCAnLW9tYWUnLCAnPG91dGZpbGUubWFlPic=

>  <r_epik_Ionization_Penalty>  (426) 
0.305879

>  <r_epik_Ionization_Penalty_Charging>  (426) 
2.93331e-10

>  <r_epik_Ionization_Penalty_Neutral>  (426) 
0.305879

>  <r_epik_State_Penalty>  (426) 
0.299045

>  <r_epik_Charging_Adjusted_Penalty>  (426) 
0.299045

>  <i_epik_Tot_Q>  (426) 
0

>  <i_epik_Tot_abs_Q>  (426) 
0

>  <s_epik_Chemistry_Notes>  (426) 
This compound has an imine and may undergo hydrolysis.

>  <s_lp_Force_Field>  (426) 
OPLS3e

>  <r_lp_Energy>  (426) 
34.9558

>  <b_lp_Chiralities_Consistent>  (426) 
1

>  <s_lp_Variant>  (426) 
108:0-1

>  <s_i_glide_gridfile>  (426) 
pfpi4k_grid

>  <i_i_glide_lignum>  (426) 
36

>  <i_i_glide_rotatable_bonds>  (426) 
2

>  <r_i_docking_score>  (426) 
-3.94129

>  <r_i_glide_ligand_efficiency>  (426) 
-0.197065

>  <r_i_glide_ligand_efficiency_sa>  (426) 
-0.534916

>  <r_i_glide_ligand_efficiency_ln>  (426) 
-0.986376

>  <r_i_glide_gscore>  (426) 
-3.94129

>  <r_i_glide_lipo>  (426) 
-0.128181

>  <r_i_glide_hbond>  (426) 
-0.304865

>  <r_i_glide_metal>  (426) 
-0

>  <r_i_glide_rewards>  (426) 
-1.73811

>  <r_i_glide_evdw>  (426) 
-18.3661

>  <r_i_glide_ecoul>  (426) 
-6.69517

>  <r_i_glide_erotb>  (426) 
0.249566

>  <r_i_glide_esite>  (426) 
-0.0971258

>  <r_i_glide_emodel>  (426) 
-31.4447

>  <r_i_glide_energy>  (426) 
-25.0613

>  <r_i_glide_einternal>  (426) 
0.877841

>  <r_i_glide_intrahb_reward>  (426) 
-0

>  <i_i_glide_confnum>  (426) 
4

>  <i_i_glide_posenum>  (426) 
37

>  <r_i_glide_eff_state_penalty>  (426) 
0

>  <ligand_id>  (426) 
108

>  <original_smiles>  (426) 
O=C1CCCC2=Nc3ncnn3C(c3cccnc3)C12

>  <smiles>  (426) 
[H]OC1=C2C(=C([H])C([H])([H])C1([H])[H])N([H])c1nc([H])nn1C2([H])c1c([H])nc([H])c([H])c1[H]

$$$$
108:0:1
     RDKit          3D

 33 36  0  0  1  0  0  0  0  0999 V2000
    2.2828   -6.9400    5.1795 O   0  0  0  0  0  0  0  0  0  0  0  0
    2.4041   -8.0840    4.4900 C   0  0  0  0  0  0  0  0  0  0  0  0
    1.4635   -9.1539    5.0299 C   0  0  0  0  0  0  0  0  0  0  0  0
    1.1940  -10.2809    4.0058 C   0  0  0  0  0  0  0  0  0  0  0  0
    2.3443  -10.4879    3.0384 C   0  0  0  0  0  0  0  0  0  0  0  0
    3.2986   -9.5677    2.8018 C   0  0  0  0  0  0  0  0  0  0  0  0
    4.3520   -9.8538    1.9448 N   0  0  0  0  0  0  0  0  0  0  0  0
    5.4411   -8.9997    1.8394 C   0  0  0  0  0  0  0  0  0  0  0  0
    6.6249   -9.2754    1.3355 N   0  0  0  0  0  0  0  0  0  0  0  0
    7.2809   -8.1131    1.6618 C   0  0  0  0  0  0  0  0  0  0  0  0
    6.5530   -7.1621    2.2469 N   0  0  0  0  0  0  0  0  0  0  0  0
    5.3454   -7.7691    2.3544 N   0  0  0  0  0  0  0  0  0  0  0  0
    4.1609   -7.1448    2.9252 C   0  0  1  0  0  0  0  0  0  0  0  0
    3.4906   -6.2470    1.8775 C   0  0  0  0  0  0  0  0  0  0  0  0
    4.1134   -5.0622    1.4302 C   0  0  0  0  0  0  0  0  0  0  0  0
    3.4636   -4.2869    0.4497 C   0  0  0  0  0  0  0  0  0  0  0  0
    2.2202   -4.7217   -0.0434 C   0  0  0  0  0  0  0  0  0  0  0  0
    1.6002   -5.8433    0.3805 N   0  0  0  0  0  0  0  0  0  0  0  0
    2.2342   -6.5837    1.3113 C   0  0  0  0  0  0  0  0  0  0  0  0
    3.2408   -8.2563    3.4484 C   0  0  0  0  0  0  0  0  0  0  0  0
    0.5131   -8.7186    5.3447 H   0  0  0  0  0  0  0  0  0  0  0  0
    1.9292   -9.5870    5.9183 H   0  0  0  0  0  0  0  0  0  0  0  0
    1.0202  -11.2220    4.5316 H   0  0  0  0  0  0  0  0  0  0  0  0
    0.2991  -10.0682    3.4177 H   0  0  0  0  0  0  0  0  0  0  0  0
    2.3769  -11.4398    2.5318 H   0  0  0  0  0  0  0  0  0  0  0  0
    8.3327   -7.9572    1.4445 H   0  0  0  0  0  0  0  0  0  0  0  0
    4.4861   -6.5272    3.7630 H   0  0  0  0  0  0  0  0  0  0  0  0
    5.0718   -4.7509    1.8223 H   0  0  0  0  0  0  0  0  0  0  0  0
    3.9009   -3.3702    0.0791 H   0  0  0  0  0  0  0  0  0  0  0  0
    1.7020   -4.1510   -0.7937 H   0  0  0  0  0  0  0  0  0  0  0  0
    1.6913   -7.4762    1.5892 H   0  0  0  0  0  0  0  0  0  0  0  0
    4.3948  -10.7616    1.4750 H   0  0  0  0  0  0  0  0  0  0  0  0
    1.6710   -7.1045    5.8816 H   0  0  0  0  0  0  0  0  0  0  0  0
  1  2  1  0
  1 33  1  0
  2  3  1  0
  2 20  2  0
  3  4  1  0
  3 21  1  0
  3 22  1  0
  4  5  1  0
  4 23  1  0
  4 24  1  0
  5 25  1  0
  5  6  2  0
  6 20  1  0
  6  7  1  0
  7  8  1  0
  7 32  1  0
  8 12  1  0
  8  9  2  0
  9 10  1  0
 10 11  2  0
 10 26  1  0
 11 12  1  0
 12 13  1  0
 13 14  1  0
 13 27  1  1
 13 20  1  0
 14 19  1  0
 14 15  2  0
 15 16  1  0
 15 28  1  0
 16 17  2  0
 16 29  1  0
 17 18  1  0
 17 30  1  0
 18 19  2  0
 19 31  1  0
M  END
>  <i_m_ct_stereo_status>  (427) 
1

>  <s_m_source_file>  (427) 
/var/tmp/pbs.5076255.sched01/tmpsabrbf27/138opeauupd.sdf

>  <i_m_source_file_index>  (427) 
36

>  <i_lp_mmshare_version>  (427) 
48012

>  <i_f3d_flags>  (427) 
0

>  <s_epik_input>  (427) 
W0NIMl0xW0NIMl1bQ0gyXUMoPU8pW0NAQEhdKEMxPTIpW0NAQEhdKG4zYyhOMiluW2NIXW4zKWM0W2NIXVtjSF1bY0hdbltjSF00

>  <s_epik_cmdline>  (427) 
J2VwaWtfcHl0aG9uJywgJy1waHQnLCAnMi4wJywgJy1waCcsICc3LjAnLCAnLXRuJywgJzgnLCAnLW1hJywgJzIwMCcsICctaW1hZScsICc8aW5maWxlLm1hZT4nLCAnLW9tYWUnLCAnPG91dGZpbGUubWFlPic=

>  <r_epik_Ionization_Penalty>  (427) 
0.305879

>  <r_epik_Ionization_Penalty_Charging>  (427) 
2.93331e-10

>  <r_epik_Ionization_Penalty_Neutral>  (427) 
0.305879

>  <r_epik_State_Penalty>  (427) 
0.299045

>  <r_epik_Charging_Adjusted_Penalty>  (427) 
0.299045

>  <i_epik_Tot_Q>  (427) 
0

>  <i_epik_Tot_abs_Q>  (427) 
0

>  <s_epik_Chemistry_Notes>  (427) 
This compound has an imine and may undergo hydrolysis.

>  <s_lp_Force_Field>  (427) 
OPLS3e

>  <r_lp_Energy>  (427) 
34.9558

>  <b_lp_Chiralities_Consistent>  (427) 
1

>  <s_lp_Variant>  (427) 
108:0-1

>  <s_i_glide_gridfile>  (427) 
pfpi4k_grid

>  <i_i_glide_lignum>  (427) 
36

>  <i_i_glide_rotatable_bonds>  (427) 
2

>  <r_i_docking_score>  (427) 
-3.87367

>  <r_i_glide_ligand_efficiency>  (427) 
-0.193684

>  <r_i_glide_ligand_efficiency_sa>  (427) 
-0.525738

>  <r_i_glide_ligand_efficiency_ln>  (427) 
-0.969452

>  <r_i_glide_gscore>  (427) 
-3.87367

>  <r_i_glide_lipo>  (427) 
-0.0677854

>  <r_i_glide_hbond>  (427) 
-0.287079

>  <r_i_glide_metal>  (427) 
-0

>  <r_i_glide_rewards>  (427) 
-1.71144

>  <r_i_glide_evdw>  (427) 
-18.4446

>  <r_i_glide_ecoul>  (427) 
-6.94878

>  <r_i_glide_erotb>  (427) 
0.249566

>  <r_i_glide_esite>  (427) 
-0.0923835

>  <r_i_glide_emodel>  (427) 
-30.6508

>  <r_i_glide_energy>  (427) 
-25.3934

>  <r_i_glide_einternal>  (427) 
2.74559

>  <r_i_glide_intrahb_reward>  (427) 
-0

>  <i_i_glide_confnum>  (427) 
2

>  <i_i_glide_posenum>  (427) 
34

>  <r_i_glide_eff_state_penalty>  (427) 
0

>  <ligand_id>  (427) 
108

>  <original_smiles>  (427) 
O=C1CCCC2=Nc3ncnn3C(c3cccnc3)C12

>  <smiles>  (427) 
[H]OC1=C2C(=C([H])C([H])([H])C1([H])[H])N([H])c1nc([H])nn1C2([H])c1c([H])nc([H])c([H])c1[H]

$$$$
108:0:2
     RDKit          3D

 33 36  0  0  1  0  0  0  0  0999 V2000
    1.0437   -5.4552   -0.7182 O   0  0  0  0  0  0  0  0  0  0  0  0
    2.0793   -5.1834    0.0946 C   0  0  0  0  0  0  0  0  0  0  0  0
    2.7274   -3.8517   -0.2675 C   0  0  0  0  0  0  0  0  0  0  0  0
    3.5932   -3.2727    0.8789 C   0  0  0  0  0  0  0  0  0  0  0  0
    4.1864   -4.3423    1.7677 C   0  0  0  0  0  0  0  0  0  0  0  0
    3.6990   -5.5988    1.8478 C   0  0  0  0  0  0  0  0  0  0  0  0
    4.3563   -6.5559    2.6070 N   0  0  0  0  0  0  0  0  0  0  0  0
    4.0320   -7.9009    2.5217 C   0  0  0  0  0  0  0  0  0  0  0  0
    4.7588   -8.9274    2.9298 N   0  0  0  0  0  0  0  0  0  0  0  0
    3.9581   -9.9468    2.4802 C   0  0  0  0  0  0  0  0  0  0  0  0
    2.8169   -9.5836    1.8778 N   0  0  0  0  0  0  0  0  0  0  0  0
    2.8938   -8.2396    1.9130 N   0  0  0  0  0  0  0  0  0  0  0  0
    1.8603   -7.3370    1.4161 C   0  0  1  0  0  0  0  0  0  0  0  0
    0.7367   -7.2240    2.4314 C   0  0  0  0  0  0  0  0  0  0  0  0
    0.9887   -6.8042    3.7545 C   0  0  0  0  0  0  0  0  0  0  0  0
   -0.0873   -6.7285    4.6536 C   0  0  0  0  0  0  0  0  0  0  0  0
   -1.3675   -7.0733    4.1919 C   0  0  0  0  0  0  0  0  0  0  0  0
   -1.6279   -7.4569    2.9255 N   0  0  0  0  0  0  0  0  0  0  0  0
   -0.5867   -7.5567    2.0740 C   0  0  0  0  0  0  0  0  0  0  0  0
    2.4991   -5.9811    1.0990 C   0  0  0  0  0  0  0  0  0  0  0  0
    1.9649   -3.1204   -0.5384 H   0  0  0  0  0  0  0  0  0  0  0  0
    3.3529   -4.0092   -1.1504 H   0  0  0  0  0  0  0  0  0  0  0  0
    4.4079   -2.6805    0.4611 H   0  0  0  0  0  0  0  0  0  0  0  0
    3.0029   -2.6154    1.5171 H   0  0  0  0  0  0  0  0  0  0  0  0
    5.0516   -4.0569    2.3465 H   0  0  0  0  0  0  0  0  0  0  0  0
    4.2295  -10.9915    2.5765 H   0  0  0  0  0  0  0  0  0  0  0  0
    1.4344   -7.7647    0.5106 H   0  0  0  0  0  0  0  0  0  0  0  0
    1.9885   -6.5542    4.0803 H   0  0  0  0  0  0  0  0  0  0  0  0
    0.0670   -6.4169    5.6720 H   0  0  0  0  0  0  0  0  0  0  0  0
   -2.2089   -7.0080    4.8544 H   0  0  0  0  0  0  0  0  0  0  0  0
   -0.8369   -7.8707    1.0681 H   0  0  0  0  0  0  0  0  0  0  0  0
    5.2229   -6.3316    3.0701 H   0  0  0  0  0  0  0  0  0  0  0  0
    1.1399   -4.8820   -1.4697 H   0  0  0  0  0  0  0  0  0  0  0  0
  1  2  1  0
  1 33  1  0
  2  3  1  0
  2 20  2  0
  3  4  1  0
  3 21  1  0
  3 22  1  0
  4  5  1  0
  4 23  1  0
  4 24  1  0
  5 25  1  0
  5  6  2  0
  6 20  1  0
  6  7  1  0
  7  8  1  0
  7 32  1  0
  8 12  1  0
  8  9  2  0
  9 10  1  0
 10 11  2  0
 10 26  1  0
 11 12  1  0
 12 13  1  0
 13 14  1  0
 13 27  1  6
 13 20  1  0
 14 19  1  0
 14 15  2  0
 15 16  1  0
 15 28  1  0
 16 17  2  0
 16 29  1  0
 17 18  1  0
 17 30  1  0
 18 19  2  0
 19 31  1  0
M  END
>  <i_m_ct_stereo_status>  (428) 
1

>  <s_m_source_file>  (428) 
/var/tmp/pbs.5076255.sched01/tmpsabrbf27/138opeauupd.sdf

>  <i_m_source_file_index>  (428) 
36

>  <i_lp_mmshare_version>  (428) 
48012

>  <i_f3d_flags>  (428) 
0

>  <s_epik_input>  (428) 
W0NIMl0xW0NIMl1bQ0gyXUMoPU8pW0NAQEhdKEMxPTIpW0NAQEhdKG4zYyhOMiluW2NIXW4zKWM0W2NIXVtjSF1bY0hdbltjSF00

>  <s_epik_cmdline>  (428) 
J2VwaWtfcHl0aG9uJywgJy1waHQnLCAnMi4wJywgJy1waCcsICc3LjAnLCAnLXRuJywgJzgnLCAnLW1hJywgJzIwMCcsICctaW1hZScsICc8aW5maWxlLm1hZT4nLCAnLW9tYWUnLCAnPG91dGZpbGUubWFlPic=

>  <r_epik_Ionization_Penalty>  (428) 
0.305879

>  <r_epik_Ionization_Penalty_Charging>  (428) 
2.93331e-10

>  <r_epik_Ionization_Penalty_Neutral>  (428) 
0.305879

>  <r_epik_State_Penalty>  (428) 
0.299045

>  <r_epik_Charging_Adjusted_Penalty>  (428) 
0.299045

>  <i_epik_Tot_Q>  (428) 
0

>  <i_epik_Tot_abs_Q>  (428) 
0

>  <s_epik_Chemistry_Notes>  (428) 
This compound has an imine and may undergo hydrolysis.

>  <s_lp_Force_Field>  (428) 
OPLS3e

>  <r_lp_Energy>  (428) 
34.9558

>  <b_lp_Chiralities_Consistent>  (428) 
1

>  <s_lp_Variant>  (428) 
108:0-1

>  <s_i_glide_gridfile>  (428) 
pfpi4k_grid

>  <i_i_glide_lignum>  (428) 
36

>  <i_i_glide_rotatable_bonds>  (428) 
2

>  <r_i_docking_score>  (428) 
-3.58188

>  <r_i_glide_ligand_efficiency>  (428) 
-0.179094

>  <r_i_glide_ligand_efficiency_sa>  (428) 
-0.486136

>  <r_i_glide_ligand_efficiency_ln>  (428) 
-0.896426

>  <r_i_glide_gscore>  (428) 
-3.58188

>  <r_i_glide_lipo>  (428) 
-0.0260946

>  <r_i_glide_hbond>  (428) 
-0.452093

>  <r_i_glide_metal>  (428) 
-0

>  <r_i_glide_rewards>  (428) 
-1.58669

>  <r_i_glide_evdw>  (428) 
-18.7687

>  <r_i_glide_ecoul>  (428) 
-5.02032

>  <r_i_glide_erotb>  (428) 
0.249566

>  <r_i_glide_esite>  (428) 
-0.0750877

>  <r_i_glide_emodel>  (428) 
-28.4579

>  <r_i_glide_energy>  (428) 
-23.789

>  <r_i_glide_einternal>  (428) 
2.64636

>  <r_i_glide_intrahb_reward>  (428) 
-0

>  <i_i_glide_confnum>  (428) 
1

>  <i_i_glide_posenum>  (428) 
7

>  <r_i_glide_eff_state_penalty>  (428) 
0

>  <ligand_id>  (428) 
108

>  <original_smiles>  (428) 
O=C1CCCC2=Nc3ncnn3C(c3cccnc3)C12

>  <smiles>  (428) 
[H]OC1=C2C(=C([H])C([H])([H])C1([H])[H])N([H])c1nc([H])nn1C2([H])c1c([H])nc([H])c([H])c1[H]

$$$$
108:1:0
     RDKit          3D

 32 35  0  0  1  0  0  0  0  0999 V2000
   -0.6285   -6.7070    2.2872 O   0  0  0  0  0  0  0  0  0  0  0  0
   -0.2835   -7.4356    3.2516 C   0  0  0  0  0  0  0  0  0  0  0  0
   -0.4200   -8.9144    2.8618 C   0  0  0  0  0  0  0  0  0  0  0  0
    0.5201   -9.8598    3.6379 C   0  0  0  0  0  0  0  0  0  0  0  0
    0.6775   -9.4313    5.0757 C   0  0  0  0  0  0  0  0  0  0  0  0
    0.4740   -8.1697    5.4866 C   0  0  0  0  0  0  0  0  0  0  0  0
    0.5875   -7.8453    6.8335 N   0  0  0  0  0  0  0  0  0  0  0  0
    0.2091   -6.5996    7.3163 C   0  0  0  0  0  0  0  0  0  0  0  0
   -0.0943   -6.2772    8.5632 N   0  0  0  0  0  0  0  0  0  0  0  0
   -0.5366   -4.9931    8.3553 C   0  0  0  0  0  0  0  0  0  0  0  0
   -0.5090   -4.5458    7.0973 N   0  0  0  0  0  0  0  0  0  0  0  0
   -0.0051   -5.6182    6.4332 N   0  0  0  0  0  0  0  0  0  0  0  0
    0.2406   -5.6503    5.0012 C   0  0  1  0  0  0  0  0  0  0  0  0
    1.5975   -5.0228    4.6905 C   0  0  0  0  0  0  0  0  0  0  0  0
    1.7089   -3.8520    3.9125 C   0  0  0  0  0  0  0  0  0  0  0  0
    2.9941   -3.3302    3.6602 C   0  0  0  0  0  0  0  0  0  0  0  0
    4.1114   -4.0007    4.1946 C   0  0  0  0  0  0  0  0  0  0  0  0
    4.0199   -5.1171    4.9400 N   0  0  0  0  0  0  0  0  0  0  0  0
    2.7887   -5.6138    5.1727 C   0  0  0  0  0  0  0  0  0  0  0  0
    0.1549   -7.0983    4.5290 C   0  0  0  0  0  0  0  0  0  0  0  0
   -0.2432   -9.0439    1.7912 H   0  0  0  0  0  0  0  0  0  0  0  0
   -1.4520   -9.2315    3.0406 H   0  0  0  0  0  0  0  0  0  0  0  0
    0.1199  -10.8738    3.6145 H   0  0  0  0  0  0  0  0  0  0  0  0
    1.5063   -9.8895    3.1769 H   0  0  0  0  0  0  0  0  0  0  0  0
    0.9567  -10.2069    5.7703 H   0  0  0  0  0  0  0  0  0  0  0  0
   -0.8986   -4.3717    9.1615 H   0  0  0  0  0  0  0  0  0  0  0  0
   -0.5498   -5.0850    4.5129 H   0  0  0  0  0  0  0  0  0  0  0  0
    0.8323   -3.3641    3.5120 H   0  0  0  0  0  0  0  0  0  0  0  0
    3.1235   -2.4382    3.0655 H   0  0  0  0  0  0  0  0  0  0  0  0
    5.1073   -3.6309    4.0219 H   0  0  0  0  0  0  0  0  0  0  0  0
    2.7579   -6.5129    5.7703 H   0  0  0  0  0  0  0  0  0  0  0  0
    0.7027   -8.5925    7.5016 H   0  0  0  0  0  0  0  0  0  0  0  0
  1  2  1  0
  2  3  1  0
  2 20  2  0
  3  4  1  0
  3 21  1  0
  3 22  1  0
  4  5  1  0
  4 23  1  0
  4 24  1  0
  5 25  1  0
  5  6  2  0
  6 20  1  0
  6  7  1  0
  7  8  1  0
  7 32  1  0
  8 12  1  0
  8  9  2  0
  9 10  1  0
 10 11  2  0
 10 26  1  0
 11 12  1  0
 12 13  1  0
 13 14  1  0
 13 27  1  6
 13 20  1  0
 14 19  1  0
 14 15  2  0
 15 16  1  0
 15 28  1  0
 16 17  2  0
 16 29  1  0
 17 18  1  0
 17 30  1  0
 18 19  2  0
 19 31  1  0
M  CHG  1   1  -1
M  END
>  <i_m_ct_stereo_status>  (429) 
1

>  <s_m_source_file>  (429) 
/var/tmp/pbs.5076255.sched01/tmpsabrbf27/138opeauupd.sdf

>  <i_m_source_file_index>  (429) 
37

>  <i_lp_mmshare_version>  (429) 
48012

>  <i_f3d_flags>  (429) 
0

>  <s_epik_input>  (429) 
W0NIMl0xW0NIMl1bQ0gyXUMoPU8pW0NAQEhdKEMxPTIpW0NAQEhdKG4zYyhOMiluW2NIXW4zKWM0W2NIXVtjSF1bY0hdbltjSF00

>  <s_epik_cmdline>  (429) 
J2VwaWtfcHl0aG9uJywgJy1waHQnLCAnMi4wJywgJy1waCcsICc3LjAnLCAnLXRuJywgJzgnLCAnLW1hJywgJzIwMCcsICctaW1hZScsICc8aW5maWxlLm1hZT4nLCAnLW9tYWUnLCAnPG91dGZpbGUubWFlPic=

>  <r_epik_Ionization_Penalty>  (429) 
0.539566

>  <r_epik_Ionization_Penalty_Charging>  (429) 
0.538938

>  <r_epik_Ionization_Penalty_Neutral>  (429) 
0.000628151

>  <r_epik_State_Penalty>  (429) 
0.548349

>  <r_epik_Charging_Adjusted_Penalty>  (429) 
1.08729

>  <i_epik_Tot_Q>  (429) 
-1

>  <i_epik_Tot_abs_Q>  (429) 
1

>  <s_epik_Chemistry_Notes>  (429) 
This compound has an imine and may undergo hydrolysis.

>  <s_lp_Force_Field>  (429) 
OPLS3e

>  <r_lp_Energy>  (429) 
33.8346

>  <b_lp_Chiralities_Consistent>  (429) 
1

>  <s_lp_Variant>  (429) 
108:0-2

>  <s_i_glide_gridfile>  (429) 
pfpi4k_grid

>  <i_i_glide_lignum>  (429) 
37

>  <i_i_glide_rotatable_bonds>  (429) 
1

>  <r_i_docking_score>  (429) 
-3.07399

>  <r_i_glide_ligand_efficiency>  (429) 
-0.153699

>  <r_i_glide_ligand_efficiency_sa>  (429) 
-0.417204

>  <r_i_glide_ligand_efficiency_ln>  (429) 
-0.769318

>  <r_i_glide_gscore>  (429) 
-3.07399

>  <r_i_glide_lipo>  (429) 
-0.00524384

>  <r_i_glide_hbond>  (429) 
-0.313913

>  <r_i_glide_metal>  (429) 
-0

>  <r_i_glide_rewards>  (429) 
-1.62263

>  <r_i_glide_evdw>  (429) 
-17.3752

>  <r_i_glide_ecoul>  (429) 
-3.22574

>  <r_i_glide_erotb>  (429) 
0.2512

>  <r_i_glide_esite>  (429) 
-0.0307805

>  <r_i_glide_emodel>  (429) 
-26.4568

>  <r_i_glide_energy>  (429) 
-20.6009

>  <r_i_glide_einternal>  (429) 
0.105503

>  <r_i_glide_intrahb_reward>  (429) 
-0

>  <i_i_glide_confnum>  (429) 
4

>  <i_i_glide_posenum>  (429) 
23

>  <r_i_glide_eff_state_penalty>  (429) 
0

>  <ligand_id>  (429) 
108

>  <original_smiles>  (429) 
O=C1CCCC2=Nc3ncnn3C(c3cccnc3)C12

>  <smiles>  (429) 
[H]C1=C2C(=C([O-])C([H])([H])C1([H])[H])C([H])(c1c([H])nc([H])c([H])c1[H])n1nc([H])nc1N2[H]

$$$$
108:1:1
     RDKit          3D

 32 35  0  0  1  0  0  0  0  0999 V2000
   -1.1417   -7.0772    3.0382 O   0  0  0  0  0  0  0  0  0  0  0  0
   -0.4729   -8.0086    3.5928 C   0  0  0  0  0  0  0  0  0  0  0  0
   -0.6285   -9.2806    2.7503 C   0  0  0  0  0  0  0  0  0  0  0  0
    0.5445  -10.2774    2.8788 C   0  0  0  0  0  0  0  0  0  0  0  0
    1.0789  -10.3317    4.2829 C   0  0  0  0  0  0  0  0  0  0  0  0
    0.9317   -9.3195    5.1489 C   0  0  0  0  0  0  0  0  0  0  0  0
    1.3777   -9.4581    6.4606 N   0  0  0  0  0  0  0  0  0  0  0  0
    1.0785   -8.5111    7.4326 C   0  0  0  0  0  0  0  0  0  0  0  0
    1.1514   -8.6563    8.7486 N   0  0  0  0  0  0  0  0  0  0  0  0
    0.6353   -7.4388    9.1256 C   0  0  0  0  0  0  0  0  0  0  0  0
    0.2850   -6.6046    8.1387 N   0  0  0  0  0  0  0  0  0  0  0  0
    0.6152   -7.3216    7.0368 N   0  0  0  0  0  0  0  0  0  0  0  0
    0.4434   -6.8459    5.6735 C   0  0  1  0  0  0  0  0  0  0  0  0
    1.6183   -5.9543    5.2811 C   0  0  0  0  0  0  0  0  0  0  0  0
    1.4336   -4.6022    4.9192 C   0  0  0  0  0  0  0  0  0  0  0  0
    2.5657   -3.8416    4.5570 C   0  0  0  0  0  0  0  0  0  0  0  0
    3.8301   -4.4639    4.5701 C   0  0  0  0  0  0  0  0  0  0  0  0
    4.0223   -5.7512    4.9105 N   0  0  0  0  0  0  0  0  0  0  0  0
    2.9348   -6.4745    5.2511 C   0  0  0  0  0  0  0  0  0  0  0  0
    0.3099   -8.0444    4.7402 C   0  0  0  0  0  0  0  0  0  0  0  0
   -0.7628   -9.0326    1.6956 H   0  0  0  0  0  0  0  0  0  0  0  0
   -1.5450   -9.7935    3.0545 H   0  0  0  0  0  0  0  0  0  0  0  0
    0.2191  -11.2779    2.5936 H   0  0  0  0  0  0  0  0  0  0  0  0
    1.3543  -10.0099    2.2079 H   0  0  0  0  0  0  0  0  0  0  0  0
    1.5833  -11.2389    4.5680 H   0  0  0  0  0  0  0  0  0  0  0  0
    0.4884   -7.1664   10.1661 H   0  0  0  0  0  0  0  0  0  0  0  0
   -0.4870   -6.2806    5.6328 H   0  0  0  0  0  0  0  0  0  0  0  0
    0.4484   -4.1547    4.9118 H   0  0  0  0  0  0  0  0  0  0  0  0
    2.4735   -2.8040    4.2720 H   0  0  0  0  0  0  0  0  0  0  0  0
    4.7165   -3.9150    4.3017 H   0  0  0  0  0  0  0  0  0  0  0  0
    3.1283   -7.5048    5.5127 H   0  0  0  0  0  0  0  0  0  0  0  0
    1.6998  -10.3593    6.7914 H   0  0  0  0  0  0  0  0  0  0  0  0
  1  2  1  0
  2  3  1  0
  2 20  2  0
  3  4  1  0
  3 21  1  0
  3 22  1  0
  4  5  1  0
  4 23  1  0
  4 24  1  0
  5 25  1  0
  5  6  2  0
  6 20  1  0
  6  7  1  0
  7  8  1  0
  7 32  1  0
  8 12  1  0
  8  9  2  0
  9 10  1  0
 10 11  2  0
 10 26  1  0
 11 12  1  0
 12 13  1  0
 13 14  1  0
 13 27  1  1
 13 20  1  0
 14 19  1  0
 14 15  2  0
 15 16  1  0
 15 28  1  0
 16 17  2  0
 16 29  1  0
 17 18  1  0
 17 30  1  0
 18 19  2  0
 19 31  1  0
M  CHG  1   1  -1
M  END
>  <i_m_ct_stereo_status>  (430) 
1

>  <s_m_source_file>  (430) 
/var/tmp/pbs.5076255.sched01/tmpsabrbf27/138opeauupd.sdf

>  <i_m_source_file_index>  (430) 
37

>  <i_lp_mmshare_version>  (430) 
48012

>  <i_f3d_flags>  (430) 
0

>  <s_epik_input>  (430) 
W0NIMl0xW0NIMl1bQ0gyXUMoPU8pW0NAQEhdKEMxPTIpW0NAQEhdKG4zYyhOMiluW2NIXW4zKWM0W2NIXVtjSF1bY0hdbltjSF00

>  <s_epik_cmdline>  (430) 
J2VwaWtfcHl0aG9uJywgJy1waHQnLCAnMi4wJywgJy1waCcsICc3LjAnLCAnLXRuJywgJzgnLCAnLW1hJywgJzIwMCcsICctaW1hZScsICc8aW5maWxlLm1hZT4nLCAnLW9tYWUnLCAnPG91dGZpbGUubWFlPic=

>  <r_epik_Ionization_Penalty>  (430) 
0.539566

>  <r_epik_Ionization_Penalty_Charging>  (430) 
0.538938

>  <r_epik_Ionization_Penalty_Neutral>  (430) 
0.000628151

>  <r_epik_State_Penalty>  (430) 
0.548349

>  <r_epik_Charging_Adjusted_Penalty>  (430) 
1.08729

>  <i_epik_Tot_Q>  (430) 
-1

>  <i_epik_Tot_abs_Q>  (430) 
1

>  <s_epik_Chemistry_Notes>  (430) 
This compound has an imine and may undergo hydrolysis.

>  <s_lp_Force_Field>  (430) 
OPLS3e

>  <r_lp_Energy>  (430) 
33.8346

>  <b_lp_Chiralities_Consistent>  (430) 
1

>  <s_lp_Variant>  (430) 
108:0-2

>  <s_i_glide_gridfile>  (430) 
pfpi4k_grid

>  <i_i_glide_lignum>  (430) 
37

>  <i_i_glide_rotatable_bonds>  (430) 
1

>  <r_i_docking_score>  (430) 
-3.04958

>  <r_i_glide_ligand_efficiency>  (430) 
-0.152479

>  <r_i_glide_ligand_efficiency_sa>  (430) 
-0.413891

>  <r_i_glide_ligand_efficiency_ln>  (430) 
-0.763208

>  <r_i_glide_gscore>  (430) 
-3.04958

>  <r_i_glide_lipo>  (430) 
-0.109013

>  <r_i_glide_hbond>  (430) 
-0.296834

>  <r_i_glide_metal>  (430) 
-0

>  <r_i_glide_rewards>  (430) 
-1.59356

>  <r_i_glide_evdw>  (430) 
-19.0629

>  <r_i_glide_ecoul>  (430) 
-1.28108

>  <r_i_glide_erotb>  (430) 
0.2512

>  <r_i_glide_esite>  (430) 
-0.15606

>  <r_i_glide_emodel>  (430) 
-26.165

>  <r_i_glide_energy>  (430) 
-20.344

>  <r_i_glide_einternal>  (430) 
0.116348

>  <r_i_glide_intrahb_reward>  (430) 
-0

>  <i_i_glide_confnum>  (430) 
4

>  <i_i_glide_posenum>  (430) 
4

>  <r_i_glide_eff_state_penalty>  (430) 
0

>  <ligand_id>  (430) 
108

>  <original_smiles>  (430) 
O=C1CCCC2=Nc3ncnn3C(c3cccnc3)C12

>  <smiles>  (430) 
[H]C1=C2C(=C([O-])C([H])([H])C1([H])[H])C([H])(c1c([H])nc([H])c([H])c1[H])n1nc([H])nc1N2[H]

$$$$
108:1:2
     RDKit          3D

 32 35  0  0  1  0  0  0  0  0999 V2000
    1.3961   -5.4580   -0.3160 O   0  0  0  0  0  0  0  0  0  0  0  0
    2.3435   -5.3929    0.4943 C   0  0  0  0  0  0  0  0  0  0  0  0
    3.1886   -4.1447    0.1971 C   0  0  0  0  0  0  0  0  0  0  0  0
    3.9617   -3.6119    1.4209 C   0  0  0  0  0  0  0  0  0  0  0  0
    4.4690   -4.7357    2.2865 C   0  0  0  0  0  0  0  0  0  0  0  0
    3.9146   -5.9594    2.2974 C   0  0  0  0  0  0  0  0  0  0  0  0
    4.4714   -6.9866    3.0459 N   0  0  0  0  0  0  0  0  0  0  0  0
    4.0398   -8.2980    2.9221 C   0  0  0  0  0  0  0  0  0  0  0  0
    4.6749   -9.3922    3.3152 N   0  0  0  0  0  0  0  0  0  0  0  0
    3.8025  -10.3322    2.8203 C   0  0  0  0  0  0  0  0  0  0  0  0
    2.7032   -9.8633    2.2142 N   0  0  0  0  0  0  0  0  0  0  0  0
    2.8902   -8.5300    2.2958 N   0  0  0  0  0  0  0  0  0  0  0  0
    1.9520   -7.5467    1.7840 C   0  0  1  0  0  0  0  0  0  0  0  0
    0.8012   -7.3613    2.7564 C   0  0  0  0  0  0  0  0  0  0  0  0
    1.0454   -6.9198    4.0740 C   0  0  0  0  0  0  0  0  0  0  0  0
   -0.0446   -6.7679    4.9468 C   0  0  0  0  0  0  0  0  0  0  0  0
   -1.3314   -7.0541    4.4586 C   0  0  0  0  0  0  0  0  0  0  0  0
   -1.5849   -7.4543    3.1954 N   0  0  0  0  0  0  0  0  0  0  0  0
   -0.5312   -7.6276    2.3692 C   0  0  0  0  0  0  0  0  0  0  0  0
    2.7019   -6.2451    1.5230 C   0  0  0  0  0  0  0  0  0  0  0  0
    2.5650   -3.3428   -0.2044 H   0  0  0  0  0  0  0  0  0  0  0  0
    3.9073   -4.3851   -0.5932 H   0  0  0  0  0  0  0  0  0  0  0  0
    4.8061   -3.0086    1.0861 H   0  0  0  0  0  0  0  0  0  0  0  0
    3.3155   -2.9792    2.0257 H   0  0  0  0  0  0  0  0  0  0  0  0
    5.3215   -4.5083    2.9016 H   0  0  0  0  0  0  0  0  0  0  0  0
    3.9846  -11.3941    2.8981 H   0  0  0  0  0  0  0  0  0  0  0  0
    1.5605   -7.9346    0.8513 H   0  0  0  0  0  0  0  0  0  0  0  0
    2.0494   -6.6991    4.4070 H   0  0  0  0  0  0  0  0  0  0  0  0
    0.1065   -6.4360    5.9616 H   0  0  0  0  0  0  0  0  0  0  0  0
   -2.1872   -6.9258    5.0918 H   0  0  0  0  0  0  0  0  0  0  0  0
   -0.7742   -7.9511    1.3636 H   0  0  0  0  0  0  0  0  0  0  0  0
    5.3371   -6.8395    3.5361 H   0  0  0  0  0  0  0  0  0  0  0  0
  1  2  1  0
  2  3  1  0
  2 20  2  0
  3  4  1  0
  3 21  1  0
  3 22  1  0
  4  5  1  0
  4 23  1  0
  4 24  1  0
  5 25  1  0
  5  6  2  0
  6 20  1  0
  6  7  1  0
  7  8  1  0
  7 32  1  0
  8 12  1  0
  8  9  2  0
  9 10  1  0
 10 11  2  0
 10 26  1  0
 11 12  1  0
 12 13  1  0
 13 14  1  0
 13 27  1  6
 13 20  1  0
 14 19  1  0
 14 15  2  0
 15 16  1  0
 15 28  1  0
 16 17  2  0
 16 29  1  0
 17 18  1  0
 17 30  1  0
 18 19  2  0
 19 31  1  0
M  CHG  1   1  -1
M  END
>  <i_m_ct_stereo_status>  (431) 
1

>  <s_m_source_file>  (431) 
/var/tmp/pbs.5076255.sched01/tmpsabrbf27/138opeauupd.sdf

>  <i_m_source_file_index>  (431) 
37

>  <i_lp_mmshare_version>  (431) 
48012

>  <i_f3d_flags>  (431) 
0

>  <s_epik_input>  (431) 
W0NIMl0xW0NIMl1bQ0gyXUMoPU8pW0NAQEhdKEMxPTIpW0NAQEhdKG4zYyhOMiluW2NIXW4zKWM0W2NIXVtjSF1bY0hdbltjSF00

>  <s_epik_cmdline>  (431) 
J2VwaWtfcHl0aG9uJywgJy1waHQnLCAnMi4wJywgJy1waCcsICc3LjAnLCAnLXRuJywgJzgnLCAnLW1hJywgJzIwMCcsICctaW1hZScsICc8aW5maWxlLm1hZT4nLCAnLW9tYWUnLCAnPG91dGZpbGUubWFlPic=

>  <r_epik_Ionization_Penalty>  (431) 
0.539566

>  <r_epik_Ionization_Penalty_Charging>  (431) 
0.538938

>  <r_epik_Ionization_Penalty_Neutral>  (431) 
0.000628151

>  <r_epik_State_Penalty>  (431) 
0.548349

>  <r_epik_Charging_Adjusted_Penalty>  (431) 
1.08729

>  <i_epik_Tot_Q>  (431) 
-1

>  <i_epik_Tot_abs_Q>  (431) 
1

>  <s_epik_Chemistry_Notes>  (431) 
This compound has an imine and may undergo hydrolysis.

>  <s_lp_Force_Field>  (431) 
OPLS3e

>  <r_lp_Energy>  (431) 
33.8346

>  <b_lp_Chiralities_Consistent>  (431) 
1

>  <s_lp_Variant>  (431) 
108:0-2

>  <s_i_glide_gridfile>  (431) 
pfpi4k_grid

>  <i_i_glide_lignum>  (431) 
37

>  <i_i_glide_rotatable_bonds>  (431) 
1

>  <r_i_docking_score>  (431) 
-2.79623

>  <r_i_glide_ligand_efficiency>  (431) 
-0.139811

>  <r_i_glide_ligand_efficiency_sa>  (431) 
-0.379506

>  <r_i_glide_ligand_efficiency_ln>  (431) 
-0.699803

>  <r_i_glide_gscore>  (431) 
-2.79623

>  <r_i_glide_lipo>  (431) 
-0.0207658

>  <r_i_glide_hbond>  (431) 
-0.223966

>  <r_i_glide_metal>  (431) 
-0

>  <r_i_glide_rewards>  (431) 
-1.59356

>  <r_i_glide_evdw>  (431) 
-20.2985

>  <r_i_glide_ecoul>  (431) 
-0.83211

>  <r_i_glide_erotb>  (431) 
0.2512

>  <r_i_glide_esite>  (431) 
-0.0693952

>  <r_i_glide_emodel>  (431) 
-26.4637

>  <r_i_glide_energy>  (431) 
-21.1306

>  <r_i_glide_einternal>  (431) 
0.0583026

>  <r_i_glide_intrahb_reward>  (431) 
-0

>  <i_i_glide_confnum>  (431) 
3

>  <i_i_glide_posenum>  (431) 
2

>  <r_i_glide_eff_state_penalty>  (431) 
0

>  <ligand_id>  (431) 
108

>  <original_smiles>  (431) 
O=C1CCCC2=Nc3ncnn3C(c3cccnc3)C12

>  <smiles>  (431) 
[H]C1=C2C(=C([O-])C([H])([H])C1([H])[H])C([H])(c1c([H])nc([H])c([H])c1[H])n1nc([H])nc1N2[H]

$$$$
109:0:0
     RDKit          3D

 22 24  0  0  1  0  0  0  0  0999 V2000
   -2.7646    2.7207    7.0699 C   0  0  0  0  0  0  0  0  0  0  0  0
   -1.9173    1.8894    6.2387 N   0  0  0  0  0  0  0  0  0  0  0  0
   -1.1188    2.2412    5.1589 C   0  0  0  0  0  0  0  0  0  0  0  0
   -0.5396    1.0765    4.7547 C   0  0  0  0  0  0  0  0  0  0  0  0
   -1.0228    0.0706    5.6188 C   0  0  0  0  0  0  0  0  0  0  0  0
   -1.8672    0.5651    6.5091 N   0  0  0  0  0  0  0  0  0  0  0  0
   -0.5577   -1.3573    5.4486 C   0  0  0  0  0  0  0  0  0  0  0  0
   -0.9937   -2.2214    6.2129 O   0  0  0  0  0  0  0  0  0  0  0  0
    0.3289   -1.6136    4.4360 N   0  0  0  0  0  0  0  0  0  0  0  0
    0.7825   -2.9913    4.2606 C   0  0  0  0  0  0  0  0  0  0  0  0
    0.8143   -0.5795    3.5548 C   0  0  0  0  0  0  0  0  0  0  0  0
    1.7207   -0.7277    2.4905 N   0  0  0  0  0  0  0  0  0  0  0  0
    1.9792    0.3940    1.8718 N   0  0  0  0  0  0  0  0  0  0  0  0
    1.1221    1.6964    2.5222 S   0  0  0  0  0  0  0  0  0  0  0  0
    0.3905    0.7034    3.7153 C   0  0  0  0  0  0  0  0  0  0  0  0
   -2.7273    3.7577    6.7356 H   0  0  0  0  0  0  0  0  0  0  0  0
   -2.4324    2.6494    8.1079 H   0  0  0  0  0  0  0  0  0  0  0  0
   -3.7880    2.3517    7.0069 H   0  0  0  0  0  0  0  0  0  0  0  0
   -1.0358    3.2491    4.7868 H   0  0  0  0  0  0  0  0  0  0  0  0
    1.4758   -3.1172    3.4333 H   0  0  0  0  0  0  0  0  0  0  0  0
   -0.0714   -3.6425    4.0816 H   0  0  0  0  0  0  0  0  0  0  0  0
    1.2809   -3.3397    5.1650 H   0  0  0  0  0  0  0  0  0  0  0  0
  1  2  1  0
  1 16  1  0
  1 17  1  0
  1 18  1  0
  2  6  1  0
  2  3  1  0
  3  4  2  0
  3 19  1  0
  4 15  1  0
  4  5  1  0
  5  6  2  0
  5  7  1  0
  7  8  2  0
  7  9  1  0
  9 10  1  0
  9 11  1  0
 10 20  1  0
 10 21  1  0
 10 22  1  0
 11 15  2  0
 11 12  1  0
 12 13  2  0
 13 14  1  0
 14 15  1  0
M  END
>  <i_m_ct_stereo_status>  (432) 
1

>  <s_m_source_file>  (432) 
/var/tmp/pbs.5076255.sched01/tmpsabrbf27/138opeauupd.sdf

>  <i_m_source_file_index>  (432) 
38

>  <i_lp_mmshare_version>  (432) 
48012

>  <i_f3d_flags>  (432) 
0

>  <s_epik_input>  (432) 
W0NIM11uKFtjSF0xKW5jKGMxMiljKD1PKW4oW0NIM10pYzNjMnNubjM=

>  <s_epik_cmdline>  (432) 
J2VwaWtfcHl0aG9uJywgJy1waHQnLCAnMi4wJywgJy1waCcsICc3LjAnLCAnLXRuJywgJzgnLCAnLW1hJywgJzIwMCcsICctaW1hZScsICc8aW5maWxlLm1hZT4nLCAnLW9tYWUnLCAnPG91dGZpbGUubWFlPic=

>  <r_lp_tautomer_probability>  (432) 
1

>  <r_epik_Ionization_Penalty>  (432) 
2.53002e-08

>  <r_epik_Ionization_Penalty_Charging>  (432) 
1.1089e-11

>  <r_epik_Ionization_Penalty_Neutral>  (432) 
2.52891e-08

>  <r_epik_State_Penalty>  (432) 
-0

>  <r_epik_Charging_Adjusted_Penalty>  (432) 
1.1089e-11

>  <i_epik_Tot_Q>  (432) 
0

>  <i_epik_Tot_abs_Q>  (432) 
0

>  <s_lp_Force_Field>  (432) 
OPLS3e

>  <r_lp_Energy>  (432) 
23.7469

>  <b_lp_Chiralities_Consistent>  (432) 
1

>  <s_lp_Variant>  (432) 
109:0-1

>  <s_i_glide_gridfile>  (432) 
pfpi4k_grid

>  <i_i_glide_lignum>  (432) 
38

>  <i_i_glide_rotatable_bonds>  (432) 
0

>  <r_i_docking_score>  (432) 
-4.03054

>  <r_i_glide_ligand_efficiency>  (432) 
-0.268703

>  <r_i_glide_ligand_efficiency_sa>  (432) 
-0.662678

>  <r_i_glide_ligand_efficiency_ln>  (432) 
-1.08697

>  <r_i_glide_gscore>  (432) 
-4.03054

>  <r_i_glide_lipo>  (432) 
-0.213062

>  <r_i_glide_hbond>  (432) 
-0.16

>  <r_i_glide_metal>  (432) 
-0

>  <r_i_glide_rewards>  (432) 
-1.90064

>  <r_i_glide_evdw>  (432) 
-18.6569

>  <r_i_glide_ecoul>  (432) 
-4.80096

>  <r_i_glide_erotb>  (432) 
0

>  <r_i_glide_esite>  (432) 
-0.103859

>  <r_i_glide_emodel>  (432) 
-29.8499

>  <r_i_glide_energy>  (432) 
-23.4578

>  <r_i_glide_einternal>  (432) 
0

>  <r_i_glide_intrahb_reward>  (432) 
-0

>  <i_i_glide_confnum>  (432) 
2

>  <i_i_glide_posenum>  (432) 
1

>  <r_i_glide_eff_state_penalty>  (432) 
0

>  <ligand_id>  (432) 
109

>  <original_smiles>  (432) 
Cn1cc2c(n1)c(=O)n(C)c1nnsc21

>  <smiles>  (432) 
[H]c1c2c(nn1C([H])([H])[H])c(=O)n(C([H])([H])[H])c1nnsc21

$$$$
109:0:1
     RDKit          3D

 22 24  0  0  1  0  0  0  0  0999 V2000
    0.1231   -4.6710    6.3392 C   0  0  0  0  0  0  0  0  0  0  0  0
    0.1101   -3.3963    5.6547 N   0  0  0  0  0  0  0  0  0  0  0  0
    0.8971   -2.9479    4.6029 C   0  0  0  0  0  0  0  0  0  0  0  0
    0.4642   -1.6780    4.3532 C   0  0  0  0  0  0  0  0  0  0  0  0
   -0.5761   -1.4271    5.2754 C   0  0  0  0  0  0  0  0  0  0  0  0
   -0.7891   -2.4679    6.0634 N   0  0  0  0  0  0  0  0  0  0  0  0
   -1.2766   -0.0853    5.2601 C   0  0  0  0  0  0  0  0  0  0  0  0
   -2.1738    0.1197    6.0852 O   0  0  0  0  0  0  0  0  0  0  0  0
   -0.8671    0.8287    4.3279 N   0  0  0  0  0  0  0  0  0  0  0  0
   -1.5318    2.1321    4.3042 C   0  0  0  0  0  0  0  0  0  0  0  0
    0.1954    0.5586    3.3912 C   0  0  0  0  0  0  0  0  0  0  0  0
    0.7039    1.4171    2.4057 N   0  0  0  0  0  0  0  0  0  0  0  0
    1.6811    0.8970    1.7086 N   0  0  0  0  0  0  0  0  0  0  0  0
    2.0376   -0.6799    2.1972 S   0  0  0  0  0  0  0  0  0  0  0  0
    0.8271   -0.6493    3.4145 C   0  0  0  0  0  0  0  0  0  0  0  0
    0.8871   -5.3287    5.9142 H   0  0  0  0  0  0  0  0  0  0  0  0
   -0.8609   -5.1393    6.2430 H   0  0  0  0  0  0  0  0  0  0  0  0
    0.3299   -4.5043    7.4005 H   0  0  0  0  0  0  0  0  0  0  0  0
    1.6649   -3.5453    4.1416 H   0  0  0  0  0  0  0  0  0  0  0  0
   -1.1464    2.8036    3.5416 H   0  0  0  0  0  0  0  0  0  0  0  0
   -1.4177    2.6286    5.2678 H   0  0  0  0  0  0  0  0  0  0  0  0
   -2.5950    1.9989    4.1104 H   0  0  0  0  0  0  0  0  0  0  0  0
  1  2  1  0
  1 16  1  0
  1 17  1  0
  1 18  1  0
  2  6  1  0
  2  3  1  0
  3  4  2  0
  3 19  1  0
  4 15  1  0
  4  5  1  0
  5  6  2  0
  5  7  1  0
  7  8  2  0
  7  9  1  0
  9 10  1  0
  9 11  1  0
 10 20  1  0
 10 21  1  0
 10 22  1  0
 11 15  2  0
 11 12  1  0
 12 13  2  0
 13 14  1  0
 14 15  1  0
M  END
>  <i_m_ct_stereo_status>  (433) 
1

>  <s_m_source_file>  (433) 
/var/tmp/pbs.5076255.sched01/tmpsabrbf27/138opeauupd.sdf

>  <i_m_source_file_index>  (433) 
38

>  <i_lp_mmshare_version>  (433) 
48012

>  <i_f3d_flags>  (433) 
0

>  <s_epik_input>  (433) 
W0NIM11uKFtjSF0xKW5jKGMxMiljKD1PKW4oW0NIM10pYzNjMnNubjM=

>  <s_epik_cmdline>  (433) 
J2VwaWtfcHl0aG9uJywgJy1waHQnLCAnMi4wJywgJy1waCcsICc3LjAnLCAnLXRuJywgJzgnLCAnLW1hJywgJzIwMCcsICctaW1hZScsICc8aW5maWxlLm1hZT4nLCAnLW9tYWUnLCAnPG91dGZpbGUubWFlPic=

>  <r_lp_tautomer_probability>  (433) 
1

>  <r_epik_Ionization_Penalty>  (433) 
2.53002e-08

>  <r_epik_Ionization_Penalty_Charging>  (433) 
1.1089e-11

>  <r_epik_Ionization_Penalty_Neutral>  (433) 
2.52891e-08

>  <r_epik_State_Penalty>  (433) 
-0

>  <r_epik_Charging_Adjusted_Penalty>  (433) 
1.1089e-11

>  <i_epik_Tot_Q>  (433) 
0

>  <i_epik_Tot_abs_Q>  (433) 
0

>  <s_lp_Force_Field>  (433) 
OPLS3e

>  <r_lp_Energy>  (433) 
23.7469

>  <b_lp_Chiralities_Consistent>  (433) 
1

>  <s_lp_Variant>  (433) 
109:0-1

>  <s_i_glide_gridfile>  (433) 
pfpi4k_grid

>  <i_i_glide_lignum>  (433) 
38

>  <i_i_glide_rotatable_bonds>  (433) 
0

>  <r_i_docking_score>  (433) 
-3.8753

>  <r_i_glide_ligand_efficiency>  (433) 
-0.258353

>  <r_i_glide_ligand_efficiency_sa>  (433) 
-0.637154

>  <r_i_glide_ligand_efficiency_ln>  (433) 
-1.0451

>  <r_i_glide_gscore>  (433) 
-3.8753

>  <r_i_glide_lipo>  (433) 
-0.0179151

>  <r_i_glide_hbond>  (433) 
-0.16

>  <r_i_glide_metal>  (433) 
-0

>  <r_i_glide_rewards>  (433) 
-1.90064

>  <r_i_glide_evdw>  (433) 
-19.0386

>  <r_i_glide_ecoul>  (433) 
-4.6235

>  <r_i_glide_erotb>  (433) 
0

>  <r_i_glide_esite>  (433) 
-0.151295

>  <r_i_glide_emodel>  (433) 
-29.8116

>  <r_i_glide_energy>  (433) 
-23.6621

>  <r_i_glide_einternal>  (433) 
0

>  <r_i_glide_intrahb_reward>  (433) 
-0

>  <i_i_glide_confnum>  (433) 
2

>  <i_i_glide_posenum>  (433) 
16

>  <r_i_glide_eff_state_penalty>  (433) 
0

>  <ligand_id>  (433) 
109

>  <original_smiles>  (433) 
Cn1cc2c(n1)c(=O)n(C)c1nnsc21

>  <smiles>  (433) 
[H]c1c2c(nn1C([H])([H])[H])c(=O)n(C([H])([H])[H])c1nnsc21

$$$$
109:0:2
     RDKit          3D

 22 24  0  0  1  0  0  0  0  0999 V2000
   -1.7428   -9.4365    2.2931 C   0  0  0  0  0  0  0  0  0  0  0  0
   -1.0145   -8.3290    2.8656 N   0  0  0  0  0  0  0  0  0  0  0  0
   -1.0555   -7.8228    4.1532 C   0  0  0  0  0  0  0  0  0  0  0  0
   -0.1585   -6.7931    4.1529 C   0  0  0  0  0  0  0  0  0  0  0  0
    0.3942   -6.7497    2.8573 C   0  0  0  0  0  0  0  0  0  0  0  0
   -0.1562   -7.6506    2.0674 N   0  0  0  0  0  0  0  0  0  0  0  0
    1.4398   -5.7159    2.5143 C   0  0  0  0  0  0  0  0  0  0  0  0
    1.8705   -5.6687    1.3589 O   0  0  0  0  0  0  0  0  0  0  0  0
    1.8119   -4.8453    3.5049 N   0  0  0  0  0  0  0  0  0  0  0  0
    2.8029   -3.8180    3.1794 C   0  0  0  0  0  0  0  0  0  0  0  0
    1.2359   -4.8887    4.8280 C   0  0  0  0  0  0  0  0  0  0  0  0
    1.5297   -4.0441    5.9081 N   0  0  0  0  0  0  0  0  0  0  0  0
    0.8478   -4.3326    6.9922 N   0  0  0  0  0  0  0  0  0  0  0  0
   -0.1945   -5.6371    6.7541 S   0  0  0  0  0  0  0  0  0  0  0  0
    0.2966   -5.8267    5.1240 C   0  0  0  0  0  0  0  0  0  0  0  0
   -2.4124   -9.8498    3.0399 H   0  0  0  0  0  0  0  0  0  0  0  0
   -1.0303  -10.1951    1.9467 H   0  0  0  0  0  0  0  0  0  0  0  0
   -2.3164   -9.0611    1.4429 H   0  0  0  0  0  0  0  0  0  0  0  0
   -1.6963   -8.2338    4.9133 H   0  0  0  0  0  0  0  0  0  0  0  0
    3.0408   -3.1673    4.0160 H   0  0  0  0  0  0  0  0  0  0  0  0
    2.4460   -3.1875    2.3644 H   0  0  0  0  0  0  0  0  0  0  0  0
    3.7291   -4.2936    2.8604 H   0  0  0  0  0  0  0  0  0  0  0  0
  1  2  1  0
  1 16  1  0
  1 17  1  0
  1 18  1  0
  2  6  1  0
  2  3  1  0
  3  4  2  0
  3 19  1  0
  4 15  1  0
  4  5  1  0
  5  6  2  0
  5  7  1  0
  7  8  2  0
  7  9  1  0
  9 10  1  0
  9 11  1  0
 10 20  1  0
 10 21  1  0
 10 22  1  0
 11 15  2  0
 11 12  1  0
 12 13  2  0
 13 14  1  0
 14 15  1  0
M  END
>  <i_m_ct_stereo_status>  (434) 
1

>  <s_m_source_file>  (434) 
/var/tmp/pbs.5076255.sched01/tmpsabrbf27/138opeauupd.sdf

>  <i_m_source_file_index>  (434) 
38

>  <i_lp_mmshare_version>  (434) 
48012

>  <i_f3d_flags>  (434) 
0

>  <s_epik_input>  (434) 
W0NIM11uKFtjSF0xKW5jKGMxMiljKD1PKW4oW0NIM10pYzNjMnNubjM=

>  <s_epik_cmdline>  (434) 
J2VwaWtfcHl0aG9uJywgJy1waHQnLCAnMi4wJywgJy1waCcsICc3LjAnLCAnLXRuJywgJzgnLCAnLW1hJywgJzIwMCcsICctaW1hZScsICc8aW5maWxlLm1hZT4nLCAnLW9tYWUnLCAnPG91dGZpbGUubWFlPic=

>  <r_lp_tautomer_probability>  (434) 
1

>  <r_epik_Ionization_Penalty>  (434) 
2.53002e-08

>  <r_epik_Ionization_Penalty_Charging>  (434) 
1.1089e-11

>  <r_epik_Ionization_Penalty_Neutral>  (434) 
2.52891e-08

>  <r_epik_State_Penalty>  (434) 
-0

>  <r_epik_Charging_Adjusted_Penalty>  (434) 
1.1089e-11

>  <i_epik_Tot_Q>  (434) 
0

>  <i_epik_Tot_abs_Q>  (434) 
0

>  <s_lp_Force_Field>  (434) 
OPLS3e

>  <r_lp_Energy>  (434) 
23.7469

>  <b_lp_Chiralities_Consistent>  (434) 
1

>  <s_lp_Variant>  (434) 
109:0-1

>  <s_i_glide_gridfile>  (434) 
pfpi4k_grid

>  <i_i_glide_lignum>  (434) 
38

>  <i_i_glide_rotatable_bonds>  (434) 
0

>  <r_i_docking_score>  (434) 
-3.37702

>  <r_i_glide_ligand_efficiency>  (434) 
-0.225135

>  <r_i_glide_ligand_efficiency_sa>  (434) 
-0.55523

>  <r_i_glide_ligand_efficiency_ln>  (434) 
-0.910727

>  <r_i_glide_gscore>  (434) 
-3.37702

>  <r_i_glide_lipo>  (434) 
-0.307205

>  <r_i_glide_hbond>  (434) 
-0.0426179

>  <r_i_glide_metal>  (434) 
-0

>  <r_i_glide_rewards>  (434) 
-1.90064

>  <r_i_glide_evdw>  (434) 
-18.2034

>  <r_i_glide_ecoul>  (434) 
-1.06873

>  <r_i_glide_erotb>  (434) 
0

>  <r_i_glide_esite>  (434) 
-0.0560849

>  <r_i_glide_emodel>  (434) 
-24.5908

>  <r_i_glide_energy>  (434) 
-19.2721

>  <r_i_glide_einternal>  (434) 
0

>  <r_i_glide_intrahb_reward>  (434) 
-0

>  <i_i_glide_confnum>  (434) 
1

>  <i_i_glide_posenum>  (434) 
7

>  <r_i_glide_eff_state_penalty>  (434) 
0

>  <ligand_id>  (434) 
109

>  <original_smiles>  (434) 
Cn1cc2c(n1)c(=O)n(C)c1nnsc21

>  <smiles>  (434) 
[H]c1c2c(nn1C([H])([H])[H])c(=O)n(C([H])([H])[H])c1nnsc21

$$$$
110:0:0
     RDKit          3D

106114  0  0  1  0  0  0  0  0999 V2000
   -2.0324    3.2213    7.6989 C   0  0  0  0  0  0  0  0  0  0  0  0
   -1.1468    2.8733    6.5069 C   0  0  2  0  0  0  0  0  0  0  0  0
   -1.9440    2.5326    5.2219 C   0  0  0  0  0  0  0  0  0  0  0  0
   -1.2458    1.3240    4.5425 C   0  0  1  0  0  0  0  0  0  0  0  0
   -0.2363    1.8119    3.4675 C   0  0  2  0  0  0  0  0  0  0  0  0
    0.9099    2.7369    3.9173 C   0  0  0  0  0  0  0  0  0  0  0  0
   -0.9679    2.5183    2.4949 O   0  0  0  0  0  0  0  0  0  0  0  0
   -0.7097    0.5605    5.7768 C   0  0  2  0  0  0  0  0  0  0  0  0
   -0.2615    1.6546    6.7619 C   0  0  0  0  0  0  0  0  0  0  0  0
    0.7985    1.6802    7.5961 C   0  0  0  0  0  0  0  0  0  0  0  0
    1.7347    0.5975    7.6587 C   0  0  0  0  0  0  0  0  0  0  0  0
    3.0206    0.8660    7.3375 C   0  0  0  0  0  0  0  0  0  0  0  0
    3.9122   -0.0856    6.4669 C   0  0  0  0  0  0  0  0  0  0  0  0
    4.8987    0.7931    5.6796 C   0  0  0  0  0  0  0  0  0  0  0  0
    4.7380   -1.0391    7.3414 C   0  0  0  0  0  0  0  0  0  0  0  0
    2.8416   -0.7931    5.5548 C   0  0  2  0  0  0  0  0  0  0  0  0
    2.1725    0.2871    4.8798 O   0  0  0  0  0  0  0  0  0  0  0  0
    1.8834   -1.5932    6.4895 C   0  0  2  0  0  0  0  0  0  0  0  0
    0.7866   -2.0063    5.5818 C   0  0  1  0  0  0  0  0  0  0  0  0
   -0.3934   -0.9997    5.9494 C   0  0  1  0  0  0  0  0  0  0  0  0
   -0.1807   -1.0035    7.3556 O   0  0  0  0  0  0  0  0  0  0  0  0
    1.2248   -0.8437    7.6366 C   0  0  2  0  0  0  0  0  0  0  0  0
    1.4118   -1.5071    9.0079 C   0  0  0  0  0  0  0  0  0  0  0  0
    1.5219   -2.2998    4.2022 C   0  0  2  0  0  0  0  0  0  0  0  0
    0.7885   -1.5676    3.0599 C   0  0  0  0  0  0  0  0  0  0  0  0
    1.6619   -3.8031    3.8552 C   0  0  0  0  0  0  0  0  0  0  0  0
    2.6525   -4.0639    2.6731 C   0  0  0  0  0  0  0  0  0  0  0  0
    4.1528   -3.5798    2.8356 C   0  0  2  0  0  0  0  0  0  0  0  0
    4.7325   -4.4015    4.0454 C   0  0  0  0  0  0  0  0  0  0  0  0
    5.4815   -3.8275    4.8593 O   0  0  0  0  0  0  0  0  0  0  0  0
    4.4048   -5.6155    4.1396 O   0  0  0  0  0  0  0  0  0  0  0  0
    4.0588   -2.0375    3.2862 C   0  0  1  0  0  0  0  0  0  0  0  0
    3.8230   -1.1620    2.0184 C   0  0  1  0  0  0  0  0  0  0  0  0
    3.6764    0.5456    2.4636 Cl  0  0  0  0  0  0  0  0  0  0  0  0
    4.9591   -1.2736    0.9981 C   0  0  1  0  0  0  0  0  0  0  0  0
    6.1663   -0.8246    1.6116 O   0  0  0  0  0  0  0  0  0  0  0  0
    5.1067   -2.6862    0.3877 C   0  0  2  0  0  0  0  0  0  0  0  0
    6.3925   -2.6341   -0.5146 C   0  0  0  0  0  0  0  0  0  0  0  0
    3.8481   -2.8969   -0.4659 C   0  0  2  0  0  0  0  0  0  0  0  0
    4.1038   -4.2127   -1.1891 C   0  0  1  0  0  0  0  0  0  0  0  0
    3.7094   -5.2735   -0.1850 C   0  0  0  0  0  0  0  0  0  0  0  0
    4.7778   -5.2680    0.9034 C   0  0  0  0  0  0  0  0  0  0  0  0
    5.1192   -3.8635    1.5149 C   0  0  2  0  0  0  0  0  0  0  0  0
    6.6053   -4.0678    1.9061 C   0  0  0  0  0  0  0  0  0  0  0  0
    3.4303   -3.0882   -1.8982 C   0  0  0  0  0  0  0  0  0  0  0  0
    1.9747   -3.2445   -2.2597 C   0  0  0  0  0  0  0  0  0  0  0  0
    4.1020   -2.3170   -3.0247 C   0  0  0  0  0  0  0  0  0  0  0  0
    3.0152   -1.8934    4.4878 C   0  0  1  0  0  0  0  0  0  0  0  0
   -1.4209    3.4772    8.5689 H   0  0  0  0  0  0  0  0  0  0  0  0
   -2.6744    2.3845    7.9855 H   0  0  0  0  0  0  0  0  0  0  0  0
   -2.6725    4.0803    7.4826 H   0  0  0  0  0  0  0  0  0  0  0  0
   -0.4759    3.7028    6.2923 H   0  0  0  0  0  0  0  0  0  0  0  0
   -2.9465    2.2707    5.5238 H   0  0  0  0  0  0  0  0  0  0  0  0
   -2.0568    3.4005    4.5690 H   0  0  0  0  0  0  0  0  0  0  0  0
   -2.0169    0.7050    4.0569 H   0  0  0  0  0  0  0  0  0  0  0  0
    0.1579    0.9551    2.9520 H   0  0  0  0  0  0  0  0  0  0  0  0
    1.4919    2.3264    4.7688 H   0  0  0  0  0  0  0  0  0  0  0  0
    0.5463    3.7457    4.1646 H   0  0  0  0  0  0  0  0  0  0  0  0
    1.6051    2.8591    3.0888 H   0  0  0  0  0  0  0  0  0  0  0  0
   -0.3751    3.0303    1.9332 H   0  0  0  0  0  0  0  0  0  0  0  0
   -1.6632    0.4277    6.2803 H   0  0  0  0  0  0  0  0  0  0  0  0
    1.0126    2.5892    8.1318 H   0  0  0  0  0  0  0  0  0  0  0  0
    3.3296    1.8989    7.2898 H   0  0  0  0  0  0  0  0  0  0  0  0
    5.4865    0.2076    4.9698 H   0  0  0  0  0  0  0  0  0  0  0  0
    5.6119    1.2819    6.3525 H   0  0  0  0  0  0  0  0  0  0  0  0
    4.4078    1.5922    5.1367 H   0  0  0  0  0  0  0  0  0  0  0  0
    5.3295   -1.7137    6.7123 H   0  0  0  0  0  0  0  0  0  0  0  0
    4.1274   -1.6717    7.9875 H   0  0  0  0  0  0  0  0  0  0  0  0
    5.4271   -0.5080    7.9926 H   0  0  0  0  0  0  0  0  0  0  0  0
    2.8575    0.6164    4.2819 H   0  0  0  0  0  0  0  0  0  0  0  0
    2.3579   -2.4698    6.8904 H   0  0  0  0  0  0  0  0  0  0  0  0
    0.4353   -2.9708    5.9402 H   0  0  0  0  0  0  0  0  0  0  0  0
   -1.3176   -1.5328    5.7513 H   0  0  0  0  0  0  0  0  0  0  0  0
    2.4335   -1.4572    9.3570 H   0  0  0  0  0  0  0  0  0  0  0  0
    1.1321   -2.5643    8.9760 H   0  0  0  0  0  0  0  0  0  0  0  0
    0.7927   -1.0301    9.7631 H   0  0  0  0  0  0  0  0  0  0  0  0
    1.2986   -0.6968    2.6887 H   0  0  0  0  0  0  0  0  0  0  0  0
   -0.2051   -1.2756    3.3695 H   0  0  0  0  0  0  0  0  0  0  0  0
    0.6674   -2.2160    2.1965 H   0  0  0  0  0  0  0  0  0  0  0  0
    1.9955   -4.3487    4.7435 H   0  0  0  0  0  0  0  0  0  0  0  0
    0.6850   -4.2236    3.6231 H   0  0  0  0  0  0  0  0  0  0  0  0
    2.6225   -5.1305    2.4930 H   0  0  0  0  0  0  0  0  0  0  0  0
    2.2138   -3.6299    1.7855 H   0  0  0  0  0  0  0  0  0  0  0  0
    5.0200   -1.7424    3.6889 H   0  0  0  0  0  0  0  0  0  0  0  0
    2.8931   -1.4102    1.5174 H   0  0  0  0  0  0  0  0  0  0  0  0
    4.7492   -0.5755    0.1777 H   0  0  0  0  0  0  0  0  0  0  0  0
    6.5635   -0.1564    1.0639 H   0  0  0  0  0  0  0  0  0  0  0  0
    6.6293   -3.5830   -0.9909 H   0  0  0  0  0  0  0  0  0  0  0  0
    7.2882   -2.3736    0.0520 H   0  0  0  0  0  0  0  0  0  0  0  0
    6.2961   -1.8680   -1.2701 H   0  0  0  0  0  0  0  0  0  0  0  0
    2.9699   -2.8163    0.1219 H   0  0  0  0  0  0  0  0  0  0  0  0
    4.9841   -4.5000   -1.7091 H   0  0  0  0  0  0  0  0  0  0  0  0
    2.6894   -5.1398    0.1812 H   0  0  0  0  0  0  0  0  0  0  0  0
    3.7863   -6.2243   -0.6706 H   0  0  0  0  0  0  0  0  0  0  0  0
    4.5264   -5.9972    1.6590 H   0  0  0  0  0  0  0  0  0  0  0  0
    5.6878   -5.6630    0.4143 H   0  0  0  0  0  0  0  0  0  0  0  0
    7.2746   -4.3065    1.0716 H   0  0  0  0  0  0  0  0  0  0  0  0
    6.7478   -4.8839    2.6178 H   0  0  0  0  0  0  0  0  0  0  0  0
    6.8271   -3.0995    2.3008 H   0  0  0  0  0  0  0  0  0  0  0  0
    1.8894   -3.8032   -3.1968 H   0  0  0  0  0  0  0  0  0  0  0  0
    1.5475   -2.2607   -2.4336 H   0  0  0  0  0  0  0  0  0  0  0  0
    1.4306   -3.7497   -1.4792 H   0  0  0  0  0  0  0  0  0  0  0  0
    3.7731   -2.6999   -3.9912 H   0  0  0  0  0  0  0  0  0  0  0  0
    5.1727   -2.4174   -2.9723 H   0  0  0  0  0  0  0  0  0  0  0  0
    3.8195   -1.2661   -2.9620 H   0  0  0  0  0  0  0  0  0  0  0  0
    3.4028   -2.6495    5.1407 H   0  0  0  0  0  0  0  0  0  0  0  0
  1  2  1  0
  1 49  1  0
  1 50  1  0
  1 51  1  0
  2  9  1  0
  2  3  1  0
  2 52  1  6
  3  4  1  0
  3 53  1  0
  3 54  1  0
  4  5  1  0
  4  8  1  0
  4 55  1  6
  5  6  1  0
  5  7  1  0
  5 56  1  6
  6 57  1  0
  6 58  1  0
  6 59  1  0
  7 60  1  0
  8 20  1  0
  8  9  1  0
  8 61  1  1
  9 10  2  0
 10 11  1  0
 10 62  1  0
 11 22  1  0
 11 12  2  0
 12 13  1  0
 12 63  1  0
 13 14  1  0
 13 15  1  0
 13 16  1  0
 14 64  1  0
 14 65  1  0
 14 66  1  0
 15 67  1  0
 15 68  1  0
 15 69  1  0
 16 48  1  0
 16 17  1  6
 16 18  1  0
 17 70  1  0
 18 22  1  0
 18 19  1  0
 18 71  1  1
 19 20  1  0
 19 24  1  0
 19 72  1  1
 20 21  1  0
 20 73  1  1
 21 22  1  0
 22 23  1  1
 23 74  1  0
 23 75  1  0
 23 76  1  0
 24 48  1  0
 24 25  1  6
 24 26  1  0
 25 77  1  0
 25 78  1  0
 25 79  1  0
 26 27  1  0
 26 80  1  0
 26 81  1  0
 27 28  1  0
 27 82  1  0
 27 83  1  0
 28 43  1  0
 28 29  1  1
 28 32  1  0
 29 30  2  0
 29 31  1  0
 32 33  1  0
 32 48  1  0
 32 84  1  1
 33 34  1  0
 33 35  1  0
 33 85  1  6
 35 36  1  0
 35 37  1  0
 35 86  1  6
 36 87  1  0
 37 43  1  0
 37 38  1  6
 37 39  1  0
 38 88  1  0
 38 89  1  0
 38 90  1  0
 39 45  1  0
 39 40  1  0
 39 91  1  1
 40 41  1  0
 40 45  1  0
 40 92  1  6
 41 42  1  0
 41 93  1  0
 41 94  1  0
 42 43  1  0
 42 95  1  0
 42 96  1  0
 43 44  1  1
 44 97  1  0
 44 98  1  0
 44 99  1  0
 45 46  1  0
 45 47  1  0
 46100  1  0
 46101  1  0
 46102  1  0
 47103  1  0
 47104  1  0
 47105  1  0
 48106  1  1
M  CHG  1  31  -1
M  END
>  <i_m_ct_stereo_status>  (435) 
1

>  <s_m_source_file>  (435) 
/var/tmp/pbs.5076255.sched01/tmpsabrbf27/138opeauupd.sdf

>  <i_m_source_file_index>  (435) 
39

>  <i_lp_mmshare_version>  (435) 
48012

>  <i_f3d_flags>  (435) 
0

>  <s_epik_input>  (435) 
W0NIM11bQ0BIXShbT0hdKVtDQEBIXTFbQ0gyXVtDQEBIXShbQ0gzXSlDKD1bQ0hdQyhbQ0BdMihPMylbQ0gzXSk9W0NIXUM0KFtDSDNdKVtDSDNdKVtDQEBIXTFbQ0BIXTNbQ0BIXShbQ0BIXTJbQ0BAXTQ1W09IXSlbQ0BAXTYoW0NIM10pW0NASF01W0NASF03W0NAXShbQ0gyXVtDSDJdNikoQyg9TylbT0hdKVtDQF04KFtDSDNdKVtDQF0oW0NIM10pKFtDQEBIXShbQ0BASF03Q2wpW09IXSlbQ0BASF05W0NAQEhdKFtDSDJdW0NIMl04KUM5KFtDSDNdKVtDSDNd

>  <s_epik_cmdline>  (435) 
J2VwaWtfcHl0aG9uJywgJy1waHQnLCAnMi4wJywgJy1waCcsICc3LjAnLCAnLXRuJywgJzgnLCAnLW1hJywgJzIwMCcsICctaW1hZScsICc8aW5maWxlLm1hZT4nLCAnLW9tYWUnLCAnPG91dGZpbGUubWFlPic=

>  <r_epik_Ionization_Penalty>  (435) 
0.00323083

>  <r_epik_Ionization_Penalty_Charging>  (435) 
0.00323032

>  <r_epik_Ionization_Penalty_Neutral>  (435) 
5.11575e-07

>  <r_epik_State_Penalty>  (435) 
0.00227951

>  <r_epik_Charging_Adjusted_Penalty>  (435) 
0.00550982

>  <i_epik_Tot_Q>  (435) 
-1

>  <i_epik_Tot_abs_Q>  (435) 
1

>  <s_lp_Force_Field>  (435) 
OPLS3e

>  <r_lp_Energy>  (435) 
230.802

>  <b_lp_Chiralities_Consistent>  (435) 
1

>  <s_lp_Variant>  (435) 
110:0-1

>  <s_i_glide_gridfile>  (435) 
pfpi4k_grid

>  <i_i_glide_lignum>  (435) 
39

>  <i_i_glide_rotatable_bonds>  (435) 
5

>  <r_i_docking_score>  (435) 
-2.69768

>  <r_i_glide_ligand_efficiency>  (435) 
-0.0562017

>  <r_i_glide_ligand_efficiency_sa>  (435) 
-0.204251

>  <r_i_glide_ligand_efficiency_ln>  (435) 
-0.553802

>  <r_i_glide_gscore>  (435) 
-2.69768

>  <r_i_glide_lipo>  (435) 
-0.669186

>  <r_i_glide_hbond>  (435) 
-0.291848

>  <r_i_glide_metal>  (435) 
-0

>  <r_i_glide_rewards>  (435) 
-0.00378117

>  <r_i_glide_evdw>  (435) 
-22.4935

>  <r_i_glide_ecoul>  (435) 
-4.58916

>  <r_i_glide_erotb>  (435) 
0.0458944

>  <r_i_glide_esite>  (435) 
0

>  <r_i_glide_emodel>  (435) 
-22.7859

>  <r_i_glide_energy>  (435) 
-27.0826

>  <r_i_glide_einternal>  (435) 
3.57645

>  <r_i_glide_intrahb_reward>  (435) 
-0

>  <i_i_glide_confnum>  (435) 
5

>  <i_i_glide_posenum>  (435) 
39

>  <r_i_glide_eff_state_penalty>  (435) 
0

>  <ligand_id>  (435) 
110

>  <original_smiles>  (435) 
CC1CC(C(C)O)C2C1=CC1=CC(C)(C)C3(O)C4C(C2OC14C)C1(C)CCC2(C(=O)O)C(C(Cl)C(O)C4(C)C5C(CCC24C)C5(C)C)C13

>  <smiles>  (435) 
[H]OC([H])(C([H])([H])[H])C1([H])C([H])([H])C([H])(C([H])([H])[H])C2=C([H])C3=C([H])C(C([H])([H])[H])(C([H])([H])[H])C4(O[H])C5([H])C3(C([H])([H])[H])OC([H])(C21[H])C5([H])C1(C([H])([H])[H])C([H])([H])C([H])([H])C2(C(=O)[O-])C([H])(C([H])(Cl)C([H])(O[H])C3(C([H])([H])[H])C5([H])C([H])(C([H])([H])C([H])([H])C23C([H])([H])[H])C5(C([H])([H])[H])C([H])([H])[H])C41[H]

$$$$
110:0:1
     RDKit          3D

106114  0  0  1  0  0  0  0  0999 V2000
   -1.3782    2.1719    8.0393 C   0  0  0  0  0  0  0  0  0  0  0  0
   -0.5319    1.9283    6.7815 C   0  0  2  0  0  0  0  0  0  0  0  0
   -1.3724    1.6215    5.5173 C   0  0  0  0  0  0  0  0  0  0  0  0
   -0.6503    0.4843    4.7419 C   0  0  1  0  0  0  0  0  0  0  0  0
    0.2884    1.0834    3.6571 C   0  0  2  0  0  0  0  0  0  0  0  0
    1.3021    2.1658    4.0772 C   0  0  0  0  0  0  0  0  0  0  0  0
   -0.5264    1.6593    2.6543 O   0  0  0  0  0  0  0  0  0  0  0  0
   -0.0122   -0.3072    5.9140 C   0  0  2  0  0  0  0  0  0  0  0  0
    0.4191    0.7575    6.9330 C   0  0  0  0  0  0  0  0  0  0  0  0
    1.5196    0.7908    7.7269 C   0  0  0  0  0  0  0  0  0  0  0  0
    2.5048   -0.2524    7.6929 C   0  0  0  0  0  0  0  0  0  0  0  0
    3.7708    0.1052    7.3395 C   0  0  0  0  0  0  0  0  0  0  0  0
    4.6446   -0.7368    6.3764 C   0  0  0  0  0  0  0  0  0  0  0  0
    5.5736    0.2294    5.6001 C   0  0  0  0  0  0  0  0  0  0  0  0
    5.5626   -1.7167    7.1433 C   0  0  0  0  0  0  0  0  0  0  0  0
    3.5753   -1.4276    5.4528 C   0  0  2  0  0  0  0  0  0  0  0  0
    2.8497   -0.3745    4.8598 O   0  0  0  0  0  0  0  0  0  0  0  0
    2.6918   -2.3232    6.3709 C   0  0  2  0  0  0  0  0  0  0  0  0
    1.5858   -2.7622    5.4798 C   0  0  1  0  0  0  0  0  0  0  0  0
    0.3763   -1.8529    5.9788 C   0  0  1  0  0  0  0  0  0  0  0  0
    0.6552   -1.9180    7.3737 O   0  0  0  0  0  0  0  0  0  0  0  0
    2.0573   -1.7037    7.6008 C   0  0  2  0  0  0  0  0  0  0  0  0
    2.3462   -2.4522    8.9176 C   0  0  0  0  0  0  0  0  0  0  0  0
    2.2520   -2.9401    4.0529 C   0  0  2  0  0  0  0  0  0  0  0  0
    1.4097   -2.2392    2.9707 C   0  0  0  0  0  0  0  0  0  0  0  0
    2.4832   -4.4164    3.6355 C   0  0  0  0  0  0  0  0  0  0  0  0
    3.4487   -4.5582    2.4124 C   0  0  0  0  0  0  0  0  0  0  0  0
    4.9284   -3.9967    2.5644 C   0  0  2  0  0  0  0  0  0  0  0  0
    5.5514   -4.9277    3.6960 C   0  0  0  0  0  0  0  0  0  0  0  0
    6.0254   -4.4308    4.7458 O   0  0  0  0  0  0  0  0  0  0  0  0
    5.5512   -6.1634    3.5119 O   0  0  0  0  0  0  0  0  0  0  0  0
    4.7585   -2.4804    3.0734 C   0  0  1  0  0  0  0  0  0  0  0  0
    4.4584   -1.5281    1.8838 C   0  0  1  0  0  0  0  0  0  0  0  0
    4.2519    0.1300    2.4066 Cl  0  0  0  0  0  0  0  0  0  0  0  0
    5.5435   -1.5359    0.8073 C   0  0  1  0  0  0  0  0  0  0  0  0
    6.7770   -1.0734    1.3169 O   0  0  0  0  0  0  0  0  0  0  0  0
    5.7109   -2.9172    0.1226 C   0  0  2  0  0  0  0  0  0  0  0  0
    6.9569   -2.7632   -0.8401 C   0  0  0  0  0  0  0  0  0  0  0  0
    4.4412   -3.1529   -0.7015 C   0  0  2  0  0  0  0  0  0  0  0  0
    4.6834   -4.3864   -1.5213 C   0  0  1  0  0  0  0  0  0  0  0  0
    4.4558   -5.5091   -0.5467 C   0  0  0  0  0  0  0  0  0  0  0  0
    5.5567   -5.5220    0.4837 C   0  0  0  0  0  0  0  0  0  0  0  0
    5.8309   -4.1491    1.1916 C   0  0  2  0  0  0  0  0  0  0  0  0
    7.3372   -4.3364    1.5040 C   0  0  0  0  0  0  0  0  0  0  0  0
    3.9221   -3.2350   -2.1301 C   0  0  0  0  0  0  0  0  0  0  0  0
    2.4301   -3.4009   -2.3879 C   0  0  0  0  0  0  0  0  0  0  0  0
    4.5300   -2.3973   -3.2365 C   0  0  0  0  0  0  0  0  0  0  0  0
    3.7228   -2.4296    4.2838 C   0  0  1  0  0  0  0  0  0  0  0  0
   -0.7399    2.4059    8.8930 H   0  0  0  0  0  0  0  0  0  0  0  0
   -1.9659    1.2927    8.3025 H   0  0  0  0  0  0  0  0  0  0  0  0
   -2.0642    3.0069    7.8991 H   0  0  0  0  0  0  0  0  0  0  0  0
    0.0807    2.8093    6.5950 H   0  0  0  0  0  0  0  0  0  0  0  0
   -2.3535    1.2671    5.8287 H   0  0  0  0  0  0  0  0  0  0  0  0
   -1.5512    2.5073    4.9091 H   0  0  0  0  0  0  0  0  0  0  0  0
   -1.3957   -0.1458    4.2453 H   0  0  0  0  0  0  0  0  0  0  0  0
    0.8299    0.2835    3.1833 H   0  0  0  0  0  0  0  0  0  0  0  0
    1.9303    1.8704    4.9132 H   0  0  0  0  0  0  0  0  0  0  0  0
    0.8203    3.0965    4.3707 H   0  0  0  0  0  0  0  0  0  0  0  0
    1.9712    2.3844    3.2453 H   0  0  0  0  0  0  0  0  0  0  0  0
   -0.0172    2.3014    2.1785 H   0  0  0  0  0  0  0  0  0  0  0  0
   -0.9418   -0.5185    6.4450 H   0  0  0  0  0  0  0  0  0  0  0  0
    1.7103    1.6778    8.3037 H   0  0  0  0  0  0  0  0  0  0  0  0
    4.0181    1.1550    7.3449 H   0  0  0  0  0  0  0  0  0  0  0  0
    6.1521   -0.2818    4.8325 H   0  0  0  0  0  0  0  0  0  0  0  0
    6.2884    0.7072    6.2741 H   0  0  0  0  0  0  0  0  0  0  0  0
    5.0213    1.0383    5.1233 H   0  0  0  0  0  0  0  0  0  0  0  0
    6.1599   -2.3142    6.4539 H   0  0  0  0  0  0  0  0  0  0  0  0
    5.0116   -2.4109    7.7732 H   0  0  0  0  0  0  0  0  0  0  0  0
    6.2507   -1.1849    7.8001 H   0  0  0  0  0  0  0  0  0  0  0  0
    3.4292    0.0398    4.2399 H   0  0  0  0  0  0  0  0  0  0  0  0
    3.2403   -3.2026    6.7038 H   0  0  0  0  0  0  0  0  0  0  0  0
    1.3094   -3.7622    5.8048 H   0  0  0  0  0  0  0  0  0  0  0  0
   -0.5284   -2.4251    5.7819 H   0  0  0  0  0  0  0  0  0  0  0  0
    3.3835   -2.3678    9.2300 H   0  0  0  0  0  0  0  0  0  0  0  0
    2.1171   -3.5156    8.8314 H   0  0  0  0  0  0  0  0  0  0  0  0
    1.7386   -2.0532    9.7280 H   0  0  0  0  0  0  0  0  0  0  0  0
    1.8781   -1.3407    2.5977 H   0  0  0  0  0  0  0  0  0  0  0  0
    0.4176   -1.9779    3.3364 H   0  0  0  0  0  0  0  0  0  0  0  0
    1.2560   -2.8695    2.1023 H   0  0  0  0  0  0  0  0  0  0  0  0
    2.8858   -4.9862    4.4740 H   0  0  0  0  0  0  0  0  0  0  0  0
    1.5289   -4.8899    3.4106 H   0  0  0  0  0  0  0  0  0  0  0  0
    3.4685   -5.6202    2.1691 H   0  0  0  0  0  0  0  0  0  0  0  0
    2.9500   -4.1057    1.5690 H   0  0  0  0  0  0  0  0  0  0  0  0
    5.7248   -2.1889    3.4820 H   0  0  0  0  0  0  0  0  0  0  0  0
    3.5248   -1.7905    1.4136 H   0  0  0  0  0  0  0  0  0  0  0  0
    5.2597   -0.8309    0.0200 H   0  0  0  0  0  0  0  0  0  0  0  0
    6.7796   -0.1277    1.4008 H   0  0  0  0  0  0  0  0  0  0  0  0
    7.2216   -3.6658   -1.3940 H   0  0  0  0  0  0  0  0  0  0  0  0
    7.8716   -2.4934   -0.3126 H   0  0  0  0  0  0  0  0  0  0  0  0
    6.7953   -1.9597   -1.5549 H   0  0  0  0  0  0  0  0  0  0  0  0
    3.5704   -3.1490   -0.0717 H   0  0  0  0  0  0  0  0  0  0  0  0
    5.5602   -4.5784   -2.1232 H   0  0  0  0  0  0  0  0  0  0  0  0
    3.4425   -5.4790   -0.1334 H   0  0  0  0  0  0  0  0  0  0  0  0
    4.5599   -6.4560   -1.0718 H   0  0  0  0  0  0  0  0  0  0  0  0
    5.3552   -6.3365    1.1663 H   0  0  0  0  0  0  0  0  0  0  0  0
    6.4488   -5.8509   -0.0544 H   0  0  0  0  0  0  0  0  0  0  0  0
    7.9682   -4.4859    0.6248 H   0  0  0  0  0  0  0  0  0  0  0  0
    7.5719   -5.2006    2.1224 H   0  0  0  0  0  0  0  0  0  0  0  0
    7.6831   -3.4517    2.0026 H   0  0  0  0  0  0  0  0  0  0  0  0
    2.2651   -3.8543   -3.3677 H   0  0  0  0  0  0  0  0  0  0  0  0
    1.9146   -2.4490   -2.3616 H   0  0  0  0  0  0  0  0  0  0  0  0
    1.9927   -4.0618   -1.6407 H   0  0  0  0  0  0  0  0  0  0  0  0
    4.1973   -2.7522   -4.2090 H   0  0  0  0  0  0  0  0  0  0  0  0
    5.6083   -2.4710   -3.2193 H   0  0  0  0  0  0  0  0  0  0  0  0
    4.2289   -1.3626   -3.1152 H   0  0  0  0  0  0  0  0  0  0  0  0
    4.1528   -3.2108    4.8779 H   0  0  0  0  0  0  0  0  0  0  0  0
  1  2  1  0
  1 49  1  0
  1 50  1  0
  1 51  1  0
  2  9  1  0
  2  3  1  0
  2 52  1  6
  3  4  1  0
  3 53  1  0
  3 54  1  0
  4  5  1  0
  4  8  1  0
  4 55  1  6
  5  6  1  0
  5  7  1  0
  5 56  1  6
  6 57  1  0
  6 58  1  0
  6 59  1  0
  7 60  1  0
  8 20  1  0
  8  9  1  0
  8 61  1  1
  9 10  2  0
 10 11  1  0
 10 62  1  0
 11 22  1  0
 11 12  2  0
 12 13  1  0
 12 63  1  0
 13 14  1  0
 13 15  1  0
 13 16  1  0
 14 64  1  0
 14 65  1  0
 14 66  1  0
 15 67  1  0
 15 68  1  0
 15 69  1  0
 16 48  1  0
 16 17  1  6
 16 18  1  0
 17 70  1  0
 18 22  1  0
 18 19  1  0
 18 71  1  1
 19 20  1  0
 19 24  1  0
 19 72  1  1
 20 21  1  0
 20 73  1  1
 21 22  1  0
 22 23  1  1
 23 74  1  0
 23 75  1  0
 23 76  1  0
 24 48  1  0
 24 25  1  6
 24 26  1  0
 25 77  1  0
 25 78  1  0
 25 79  1  0
 26 27  1  0
 26 80  1  0
 26 81  1  0
 27 28  1  0
 27 82  1  0
 27 83  1  0
 28 43  1  0
 28 29  1  1
 28 32  1  0
 29 30  2  0
 29 31  1  0
 32 33  1  0
 32 48  1  0
 32 84  1  1
 33 34  1  0
 33 35  1  0
 33 85  1  6
 35 36  1  0
 35 37  1  0
 35 86  1  6
 36 87  1  0
 37 43  1  0
 37 38  1  6
 37 39  1  0
 38 88  1  0
 38 89  1  0
 38 90  1  0
 39 45  1  0
 39 40  1  0
 39 91  1  1
 40 41  1  0
 40 45  1  0
 40 92  1  6
 41 42  1  0
 41 93  1  0
 41 94  1  0
 42 43  1  0
 42 95  1  0
 42 96  1  0
 43 44  1  1
 44 97  1  0
 44 98  1  0
 44 99  1  0
 45 46  1  0
 45 47  1  0
 46100  1  0
 46101  1  0
 46102  1  0
 47103  1  0
 47104  1  0
 47105  1  0
 48106  1  1
M  CHG  1  31  -1
M  END
>  <i_m_ct_stereo_status>  (436) 
1

>  <s_m_source_file>  (436) 
/var/tmp/pbs.5076255.sched01/tmpsabrbf27/138opeauupd.sdf

>  <i_m_source_file_index>  (436) 
39

>  <i_lp_mmshare_version>  (436) 
48012

>  <i_f3d_flags>  (436) 
0

>  <s_epik_input>  (436) 
W0NIM11bQ0BIXShbT0hdKVtDQEBIXTFbQ0gyXVtDQEBIXShbQ0gzXSlDKD1bQ0hdQyhbQ0BdMihPMylbQ0gzXSk9W0NIXUM0KFtDSDNdKVtDSDNdKVtDQEBIXTFbQ0BIXTNbQ0BIXShbQ0BIXTJbQ0BAXTQ1W09IXSlbQ0BAXTYoW0NIM10pW0NASF01W0NASF03W0NAXShbQ0gyXVtDSDJdNikoQyg9TylbT0hdKVtDQF04KFtDSDNdKVtDQF0oW0NIM10pKFtDQEBIXShbQ0BASF03Q2wpW09IXSlbQ0BASF05W0NAQEhdKFtDSDJdW0NIMl04KUM5KFtDSDNdKVtDSDNd

>  <s_epik_cmdline>  (436) 
J2VwaWtfcHl0aG9uJywgJy1waHQnLCAnMi4wJywgJy1waCcsICc3LjAnLCAnLXRuJywgJzgnLCAnLW1hJywgJzIwMCcsICctaW1hZScsICc8aW5maWxlLm1hZT4nLCAnLW9tYWUnLCAnPG91dGZpbGUubWFlPic=

>  <r_epik_Ionization_Penalty>  (436) 
0.00323083

>  <r_epik_Ionization_Penalty_Charging>  (436) 
0.00323032

>  <r_epik_Ionization_Penalty_Neutral>  (436) 
5.11575e-07

>  <r_epik_State_Penalty>  (436) 
0.00227951

>  <r_epik_Charging_Adjusted_Penalty>  (436) 
0.00550982

>  <i_epik_Tot_Q>  (436) 
-1

>  <i_epik_Tot_abs_Q>  (436) 
1

>  <s_lp_Force_Field>  (436) 
OPLS3e

>  <r_lp_Energy>  (436) 
230.802

>  <b_lp_Chiralities_Consistent>  (436) 
1

>  <s_lp_Variant>  (436) 
110:0-1

>  <s_i_glide_gridfile>  (436) 
pfpi4k_grid

>  <i_i_glide_lignum>  (436) 
39

>  <i_i_glide_rotatable_bonds>  (436) 
5

>  <r_i_docking_score>  (436) 
-2.57683

>  <r_i_glide_ligand_efficiency>  (436) 
-0.053684

>  <r_i_glide_ligand_efficiency_sa>  (436) 
-0.195101

>  <r_i_glide_ligand_efficiency_ln>  (436) 
-0.528993

>  <r_i_glide_gscore>  (436) 
-2.57683

>  <r_i_glide_lipo>  (436) 
-0.90169

>  <r_i_glide_hbond>  (436) 
-0.263577

>  <r_i_glide_metal>  (436) 
-0

>  <r_i_glide_rewards>  (436) 
-0.00466846

>  <r_i_glide_evdw>  (436) 
-22.7241

>  <r_i_glide_ecoul>  (436) 
-2.11055

>  <r_i_glide_erotb>  (436) 
0.0458944

>  <r_i_glide_esite>  (436) 
0

>  <r_i_glide_emodel>  (436) 
-21.6003

>  <r_i_glide_energy>  (436) 
-24.8347

>  <r_i_glide_einternal>  (436) 
5.67165

>  <r_i_glide_intrahb_reward>  (436) 
-0

>  <i_i_glide_confnum>  (436) 
5

>  <i_i_glide_posenum>  (436) 
29

>  <r_i_glide_eff_state_penalty>  (436) 
0

>  <ligand_id>  (436) 
110

>  <original_smiles>  (436) 
CC1CC(C(C)O)C2C1=CC1=CC(C)(C)C3(O)C4C(C2OC14C)C1(C)CCC2(C(=O)O)C(C(Cl)C(O)C4(C)C5C(CCC24C)C5(C)C)C13

>  <smiles>  (436) 
[H]OC([H])(C([H])([H])[H])C1([H])C([H])([H])C([H])(C([H])([H])[H])C2=C([H])C3=C([H])C(C([H])([H])[H])(C([H])([H])[H])C4(O[H])C5([H])C3(C([H])([H])[H])OC([H])(C21[H])C5([H])C1(C([H])([H])[H])C([H])([H])C([H])([H])C2(C(=O)[O-])C([H])(C([H])(Cl)C([H])(O[H])C3(C([H])([H])[H])C5([H])C([H])(C([H])([H])C([H])([H])C23C([H])([H])[H])C5(C([H])([H])[H])C([H])([H])[H])C41[H]

$$$$
110:0:2
     RDKit          3D

106114  0  0  1  0  0  0  0  0999 V2000
   -2.0295    3.3219    7.8210 C   0  0  0  0  0  0  0  0  0  0  0  0
   -1.1799    2.9419    6.6020 C   0  0  2  0  0  0  0  0  0  0  0  0
   -2.0200    2.4661    5.3963 C   0  0  0  0  0  0  0  0  0  0  0  0
   -1.3229    1.2503    4.7433 C   0  0  1  0  0  0  0  0  0  0  0  0
   -0.4151    1.7013    3.5762 C   0  0  2  0  0  0  0  0  0  0  0  0
    0.7011    2.7275    3.8976 C   0  0  0  0  0  0  0  0  0  0  0  0
   -1.2175    2.2685    2.5686 O   0  0  0  0  0  0  0  0  0  0  0  0
   -0.6804    0.6027    5.9956 C   0  0  2  0  0  0  0  0  0  0  0  0
   -0.2395    1.7820    6.8855 C   0  0  0  0  0  0  0  0  0  0  0  0
    0.8617    1.9126    7.6461 C   0  0  0  0  0  0  0  0  0  0  0  0
    1.8471    0.8743    7.7099 C   0  0  0  0  0  0  0  0  0  0  0  0
    3.1072    1.1837    7.2970 C   0  0  0  0  0  0  0  0  0  0  0  0
    3.9897    0.2221    6.4464 C   0  0  0  0  0  0  0  0  0  0  0  0
    4.8861    1.0920    5.5396 C   0  0  0  0  0  0  0  0  0  0  0  0
    4.9178   -0.6346    7.3246 C   0  0  0  0  0  0  0  0  0  0  0  0
    2.9034   -0.5951    5.6411 C   0  0  2  0  0  0  0  0  0  0  0  0
    2.1488    0.3841    4.9276 O   0  0  0  0  0  0  0  0  0  0  0  0
    2.0418   -1.3740    6.6805 C   0  0  2  0  0  0  0  0  0  0  0  0
    0.9201   -1.8993    5.8678 C   0  0  1  0  0  0  0  0  0  0  0  0
   -0.2846   -0.9250    6.2483 C   0  0  1  0  0  0  0  0  0  0  0  0
    0.0034   -0.8198    7.6360 O   0  0  0  0  0  0  0  0  0  0  0  0
    1.4118   -0.5829    7.8148 C   0  0  2  0  0  0  0  0  0  0  0  0
    1.7165   -1.1445    9.2147 C   0  0  0  0  0  0  0  0  0  0  0  0
    1.5781   -2.2533    4.4639 C   0  0  2  0  0  0  0  0  0  0  0  0
    0.7083   -1.6787    3.3260 C   0  0  0  0  0  0  0  0  0  0  0  0
    1.7851   -3.7673    4.2160 C   0  0  0  0  0  0  0  0  0  0  0  0
    2.7140   -4.0517    2.9954 C   0  0  0  0  0  0  0  0  0  0  0  0
    4.1939   -3.4774    3.0325 C   0  0  2  0  0  0  0  0  0  0  0  0
    4.8872   -4.1961    4.2515 C   0  0  0  0  0  0  0  0  0  0  0  0
    5.6152   -3.5325    5.0133 O   0  0  0  0  0  0  0  0  0  0  0  0
    4.6792   -5.4281    4.3928 O   0  0  0  0  0  0  0  0  0  0  0  0
    4.0485   -1.9188    3.3861 C   0  0  1  0  0  0  0  0  0  0  0  0
    3.7017   -1.1429    2.0837 C   0  0  1  0  0  0  0  0  0  0  0  0
    3.3971    0.5677    2.3838 Cl  0  0  0  0  0  0  0  0  0  0  0  0
    4.7891   -1.2552    1.0110 C   0  0  1  0  0  0  0  0  0  0  0  0
    5.9942   -0.7034    1.5145 O   0  0  0  0  0  0  0  0  0  0  0  0
    4.9626   -2.6979    0.4849 C   0  0  2  0  0  0  0  0  0  0  0  0
    6.1846   -2.6578   -0.4988 C   0  0  0  0  0  0  0  0  0  0  0  0
    3.6780   -2.9995   -0.2657 C   0  0  2  0  0  0  0  0  0  0  0  0
    3.9364   -4.3475   -0.9090 C   0  0  1  0  0  0  0  0  0  0  0  0
    3.6419   -5.3958    0.1228 C   0  0  0  0  0  0  0  0  0  0  0  0
    4.7748   -5.2740    1.1468 C   0  0  0  0  0  0  0  0  0  0  0  0
    5.0711   -3.8104    1.6692 C   0  0  2  0  0  0  0  0  0  0  0  0
    6.5861   -3.9245    1.9692 C   0  0  0  0  0  0  0  0  0  0  0  0
    3.1703   -3.3090   -1.6448 C   0  0  0  0  0  0  0  0  0  0  0  0
    1.6967   -3.5472   -1.8434 C   0  0  0  0  0  0  0  0  0  0  0  0
    3.7289   -2.6155   -2.8767 C   0  0  0  0  0  0  0  0  0  0  0  0
    3.0612   -1.7442    4.6209 C   0  0  1  0  0  0  0  0  0  0  0  0
   -1.3878    3.6623    8.6364 H   0  0  0  0  0  0  0  0  0  0  0  0
   -2.6091    2.4754    8.1975 H   0  0  0  0  0  0  0  0  0  0  0  0
   -2.7256    4.1297    7.5907 H   0  0  0  0  0  0  0  0  0  0  0  0
   -0.5707    3.7932    6.2995 H   0  0  0  0  0  0  0  0  0  0  0  0
   -2.9305    2.0368    5.8150 H   0  0  0  0  0  0  0  0  0  0  0  0
   -2.2566    3.2832    4.7020 H   0  0  0  0  0  0  0  0  0  0  0  0
   -2.1012    0.5818    4.3510 H   0  0  0  0  0  0  0  0  0  0  0  0
   -0.0030    0.8258    3.1104 H   0  0  0  0  0  0  0  0  0  0  0  0
    1.3416    2.4316    4.7434 H   0  0  0  0  0  0  0  0  0  0  0  0
    0.3014    3.7353    4.1120 H   0  0  0  0  0  0  0  0  0  0  0  0
    1.3492    2.8216    3.0183 H   0  0  0  0  0  0  0  0  0  0  0  0
   -0.6458    2.6932    1.9308 H   0  0  0  0  0  0  0  0  0  0  0  0
   -1.5973    0.4623    6.5630 H   0  0  0  0  0  0  0  0  0  0  0  0
    1.0652    2.8635    8.1038 H   0  0  0  0  0  0  0  0  0  0  0  0
    3.3564    2.2260    7.1700 H   0  0  0  0  0  0  0  0  0  0  0  0
    5.4569    0.4918    4.8346 H   0  0  0  0  0  0  0  0  0  0  0  0
    5.6050    1.6578    6.1354 H   0  0  0  0  0  0  0  0  0  0  0  0
    4.3192    1.8308    4.9792 H   0  0  0  0  0  0  0  0  0  0  0  0
    5.4999   -1.3143    6.7019 H   0  0  0  0  0  0  0  0  0  0  0  0
    4.3724   -1.2442    8.0415 H   0  0  0  0  0  0  0  0  0  0  0  0
    5.6090   -0.0230    7.8945 H   0  0  0  0  0  0  0  0  0  0  0  0
    2.7691    0.6798    4.2693 H   0  0  0  0  0  0  0  0  0  0  0  0
    2.5862   -2.2005    7.1083 H   0  0  0  0  0  0  0  0  0  0  0  0
    0.6381   -2.8492    6.3095 H   0  0  0  0  0  0  0  0  0  0  0  0
   -1.1896   -1.5124    6.1362 H   0  0  0  0  0  0  0  0  0  0  0  0
    2.7541   -1.0229    9.4999 H   0  0  0  0  0  0  0  0  0  0  0  0
    1.4916   -2.2122    9.2700 H   0  0  0  0  0  0  0  0  0  0  0  0
    1.1206   -0.6489    9.9761 H   0  0  0  0  0  0  0  0  0  0  0  0
    1.1479   -0.8304    2.8361 H   0  0  0  0  0  0  0  0  0  0  0  0
   -0.2712   -1.3876    3.6847 H   0  0  0  0  0  0  0  0  0  0  0  0
    0.5426   -2.4117    2.5464 H   0  0  0  0  0  0  0  0  0  0  0  0
    2.2005   -4.2287    5.1152 H   0  0  0  0  0  0  0  0  0  0  0  0
    0.8228   -4.2535    4.0688 H   0  0  0  0  0  0  0  0  0  0  0  0
    2.7386   -5.1270    2.8857 H   0  0  0  0  0  0  0  0  0  0  0  0
    2.2042   -3.7048    2.1120 H   0  0  0  0  0  0  0  0  0  0  0  0
    5.0148   -1.5484    3.7175 H   0  0  0  0  0  0  0  0  0  0  0  0
    2.7641   -1.4549    1.6521 H   0  0  0  0  0  0  0  0  0  0  0  0
    4.5044   -0.6281    0.1568 H   0  0  0  0  0  0  0  0  0  0  0  0
    6.6218   -0.6530    0.8022 H   0  0  0  0  0  0  0  0  0  0  0  0
    6.4414   -3.6255   -0.9298 H   0  0  0  0  0  0  0  0  0  0  0  0
    7.1063   -2.3318   -0.0171 H   0  0  0  0  0  0  0  0  0  0  0  0
    6.0137   -1.9528   -1.2991 H   0  0  0  0  0  0  0  0  0  0  0  0
    2.8314   -2.9500    0.3673 H   0  0  0  0  0  0  0  0  0  0  0  0
    4.7870   -4.6110   -1.4826 H   0  0  0  0  0  0  0  0  0  0  0  0
    2.6437   -5.2900    0.5458 H   0  0  0  0  0  0  0  0  0  0  0  0
    3.6973   -6.3825   -0.3293 H   0  0  0  0  0  0  0  0  0  0  0  0
    4.6040   -5.9688    1.9593 H   0  0  0  0  0  0  0  0  0  0  0  0
    5.6774   -5.6580    0.6430 H   0  0  0  0  0  0  0  0  0  0  0  0
    7.2215   -4.1803    1.1255 H   0  0  0  0  0  0  0  0  0  0  0  0
    6.8031   -4.6860    2.7114 H   0  0  0  0  0  0  0  0  0  0  0  0
    6.7878   -2.9232    2.2875 H   0  0  0  0  0  0  0  0  0  0  0  0
    1.5625   -4.1771   -2.7255 H   0  0  0  0  0  0  0  0  0  0  0  0
    1.1630   -2.6143   -2.0187 H   0  0  0  0  0  0  0  0  0  0  0  0
    1.2733   -4.1193   -1.0285 H   0  0  0  0  0  0  0  0  0  0  0  0
    3.3690   -3.0887   -3.7962 H   0  0  0  0  0  0  0  0  0  0  0  0
    4.8070   -2.6658   -2.8879 H   0  0  0  0  0  0  0  0  0  0  0  0
    3.4080   -1.5730   -2.8789 H   0  0  0  0  0  0  0  0  0  0  0  0
    3.5170   -2.4385    5.2988 H   0  0  0  0  0  0  0  0  0  0  0  0
  1  2  1  0
  1 49  1  0
  1 50  1  0
  1 51  1  0
  2  9  1  0
  2  3  1  0
  2 52  1  6
  3  4  1  0
  3 53  1  0
  3 54  1  0
  4  5  1  0
  4  8  1  0
  4 55  1  6
  5  6  1  0
  5  7  1  0
  5 56  1  6
  6 57  1  0
  6 58  1  0
  6 59  1  0
  7 60  1  0
  8 20  1  0
  8  9  1  0
  8 61  1  1
  9 10  2  0
 10 11  1  0
 10 62  1  0
 11 22  1  0
 11 12  2  0
 12 13  1  0
 12 63  1  0
 13 14  1  0
 13 15  1  0
 13 16  1  0
 14 64  1  0
 14 65  1  0
 14 66  1  0
 15 67  1  0
 15 68  1  0
 15 69  1  0
 16 48  1  0
 16 17  1  6
 16 18  1  0
 17 70  1  0
 18 22  1  0
 18 19  1  0
 18 71  1  1
 19 20  1  0
 19 24  1  0
 19 72  1  1
 20 21  1  0
 20 73  1  1
 21 22  1  0
 22 23  1  1
 23 74  1  0
 23 75  1  0
 23 76  1  0
 24 48  1  0
 24 25  1  6
 24 26  1  0
 25 77  1  0
 25 78  1  0
 25 79  1  0
 26 27  1  0
 26 80  1  0
 26 81  1  0
 27 28  1  0
 27 82  1  0
 27 83  1  0
 28 43  1  0
 28 29  1  1
 28 32  1  0
 29 30  2  0
 29 31  1  0
 32 33  1  0
 32 48  1  0
 32 84  1  1
 33 34  1  0
 33 35  1  0
 33 85  1  6
 35 36  1  0
 35 37  1  0
 35 86  1  6
 36 87  1  0
 37 43  1  0
 37 38  1  6
 37 39  1  0
 38 88  1  0
 38 89  1  0
 38 90  1  0
 39 45  1  0
 39 40  1  0
 39 91  1  1
 40 41  1  0
 40 45  1  0
 40 92  1  6
 41 42  1  0
 41 93  1  0
 41 94  1  0
 42 43  1  0
 42 95  1  0
 42 96  1  0
 43 44  1  1
 44 97  1  0
 44 98  1  0
 44 99  1  0
 45 46  1  0
 45 47  1  0
 46100  1  0
 46101  1  0
 46102  1  0
 47103  1  0
 47104  1  0
 47105  1  0
 48106  1  1
M  CHG  1  31  -1
M  END
>  <i_m_ct_stereo_status>  (437) 
1

>  <s_m_source_file>  (437) 
/var/tmp/pbs.5076255.sched01/tmpsabrbf27/138opeauupd.sdf

>  <i_m_source_file_index>  (437) 
39

>  <i_lp_mmshare_version>  (437) 
48012

>  <i_f3d_flags>  (437) 
0

>  <s_epik_input>  (437) 
W0NIM11bQ0BIXShbT0hdKVtDQEBIXTFbQ0gyXVtDQEBIXShbQ0gzXSlDKD1bQ0hdQyhbQ0BdMihPMylbQ0gzXSk9W0NIXUM0KFtDSDNdKVtDSDNdKVtDQEBIXTFbQ0BIXTNbQ0BIXShbQ0BIXTJbQ0BAXTQ1W09IXSlbQ0BAXTYoW0NIM10pW0NASF01W0NASF03W0NAXShbQ0gyXVtDSDJdNikoQyg9TylbT0hdKVtDQF04KFtDSDNdKVtDQF0oW0NIM10pKFtDQEBIXShbQ0BASF03Q2wpW09IXSlbQ0BASF05W0NAQEhdKFtDSDJdW0NIMl04KUM5KFtDSDNdKVtDSDNd

>  <s_epik_cmdline>  (437) 
J2VwaWtfcHl0aG9uJywgJy1waHQnLCAnMi4wJywgJy1waCcsICc3LjAnLCAnLXRuJywgJzgnLCAnLW1hJywgJzIwMCcsICctaW1hZScsICc8aW5maWxlLm1hZT4nLCAnLW9tYWUnLCAnPG91dGZpbGUubWFlPic=

>  <r_epik_Ionization_Penalty>  (437) 
0.00323083

>  <r_epik_Ionization_Penalty_Charging>  (437) 
0.00323032

>  <r_epik_Ionization_Penalty_Neutral>  (437) 
5.11575e-07

>  <r_epik_State_Penalty>  (437) 
0.00227951

>  <r_epik_Charging_Adjusted_Penalty>  (437) 
0.00550982

>  <i_epik_Tot_Q>  (437) 
-1

>  <i_epik_Tot_abs_Q>  (437) 
1

>  <s_lp_Force_Field>  (437) 
OPLS3e

>  <r_lp_Energy>  (437) 
230.802

>  <b_lp_Chiralities_Consistent>  (437) 
1

>  <s_lp_Variant>  (437) 
110:0-1

>  <s_i_glide_gridfile>  (437) 
pfpi4k_grid

>  <i_i_glide_lignum>  (437) 
39

>  <i_i_glide_rotatable_bonds>  (437) 
5

>  <r_i_docking_score>  (437) 
-1.99109

>  <r_i_glide_ligand_efficiency>  (437) 
-0.041481

>  <r_i_glide_ligand_efficiency_sa>  (437) 
-0.150752

>  <r_i_glide_ligand_efficiency_ln>  (437) 
-0.408747

>  <r_i_glide_gscore>  (437) 
-1.99109

>  <r_i_glide_lipo>  (437) 
-0.497868

>  <r_i_glide_hbond>  (437) 
-0.119153

>  <r_i_glide_metal>  (437) 
-0

>  <r_i_glide_rewards>  (437) 
-0.00882573

>  <r_i_glide_evdw>  (437) 
-21.9107

>  <r_i_glide_ecoul>  (437) 
-2.10399

>  <r_i_glide_erotb>  (437) 
0.0458944

>  <r_i_glide_esite>  (437) 
0

>  <r_i_glide_emodel>  (437) 
-21.585

>  <r_i_glide_energy>  (437) 
-24.0147

>  <r_i_glide_einternal>  (437) 
2.57126

>  <r_i_glide_intrahb_reward>  (437) 
-0

>  <i_i_glide_confnum>  (437) 
5

>  <i_i_glide_posenum>  (437) 
27

>  <r_i_glide_eff_state_penalty>  (437) 
0

>  <ligand_id>  (437) 
110

>  <original_smiles>  (437) 
CC1CC(C(C)O)C2C1=CC1=CC(C)(C)C3(O)C4C(C2OC14C)C1(C)CCC2(C(=O)O)C(C(Cl)C(O)C4(C)C5C(CCC24C)C5(C)C)C13

>  <smiles>  (437) 
[H]OC([H])(C([H])([H])[H])C1([H])C([H])([H])C([H])(C([H])([H])[H])C2=C([H])C3=C([H])C(C([H])([H])[H])(C([H])([H])[H])C4(O[H])C5([H])C3(C([H])([H])[H])OC([H])(C21[H])C5([H])C1(C([H])([H])[H])C([H])([H])C([H])([H])C2(C(=O)[O-])C([H])(C([H])(Cl)C([H])(O[H])C3(C([H])([H])[H])C5([H])C([H])(C([H])([H])C([H])([H])C23C([H])([H])[H])C5(C([H])([H])[H])C([H])([H])[H])C41[H]

$$$$
111:0:0
     RDKit          3D

 45 48  0  0  1  0  0  0  0  0999 V2000
    5.6085   -3.1407   -2.6631 C   0  0  0  0  0  0  0  0  0  0  0  0
    4.6693   -3.2576   -1.4428 C   0  0  2  0  0  0  0  0  0  0  0  0
    3.7119   -2.0004   -1.1895 C   0  0  0  0  0  0  0  0  0  0  0  0
    3.5005   -1.3852    0.3119 C   0  0  0  0  0  0  0  0  0  0  0  0
    4.5798   -1.4307    1.5464 C   0  0  2  0  0  0  0  0  0  0  0  0
    4.2377   -0.2891    2.5215 C   0  0  0  0  0  0  0  0  0  0  0  0
    5.8099   -1.0813    1.0265 O   0  0  0  0  0  0  0  0  0  0  0  0
    6.1014   -1.9952    0.0076 C   0  0  1  0  0  0  0  0  0  0  0  0
    7.6181   -2.2478    0.0056 C   0  0  0  0  0  0  0  0  0  0  0  0
    7.7523   -3.7281    0.2161 C   0  0  0  0  0  0  0  0  0  0  0  0
    6.3778   -4.1186    0.7232 C   0  0  1  0  0  0  0  0  0  0  0  0
    6.2089   -3.4893    2.0502 O   0  0  0  0  0  0  0  0  0  0  0  0
    4.9644   -2.7549    2.4045 C   0  0  2  0  0  0  0  0  0  0  0  0
    3.9015   -3.8067    2.2741 C   0  0  1  0  0  0  0  0  0  0  0  0
    4.1327   -5.0162    3.2065 C   0  0  0  0  0  0  0  0  0  0  0  0
    2.6439   -3.2890    2.6865 O   0  0  0  0  0  0  0  0  0  0  0  0
    3.9988   -4.1459    0.7776 C   0  0  1  0  0  0  0  0  0  0  0  0
    2.5945   -4.4807    0.1825 C   0  0  0  0  0  0  0  0  0  0  0  0
    5.2537   -3.4147   -0.0454 C   0  0  2  0  0  0  0  0  0  0  0  0
    6.2347   -2.2570   -2.6863 H   0  0  0  0  0  0  0  0  0  0  0  0
    5.0272   -3.1368   -3.5850 H   0  0  0  0  0  0  0  0  0  0  0  0
    6.2770   -3.9941   -2.7129 H   0  0  0  0  0  0  0  0  0  0  0  0
    4.1022   -4.1350   -1.7244 H   0  0  0  0  0  0  0  0  0  0  0  0
    4.0556   -1.1825   -1.8231 H   0  0  0  0  0  0  0  0  0  0  0  0
    2.7310   -2.2234   -1.6100 H   0  0  0  0  0  0  0  0  0  0  0  0
    3.3026   -0.3296    0.1262 H   0  0  0  0  0  0  0  0  0  0  0  0
    2.5408   -1.7185    0.6941 H   0  0  0  0  0  0  0  0  0  0  0  0
    3.2826   -0.4589    3.0203 H   0  0  0  0  0  0  0  0  0  0  0  0
    4.1709    0.6598    1.9917 H   0  0  0  0  0  0  0  0  0  0  0  0
    5.0055   -0.1758    3.2882 H   0  0  0  0  0  0  0  0  0  0  0  0
    5.9868   -1.3302   -0.8456 H   0  0  0  0  0  0  0  0  0  0  0  0
    8.0858   -1.9701   -0.9383 H   0  0  0  0  0  0  0  0  0  0  0  0
    8.1057   -1.6858    0.8034 H   0  0  0  0  0  0  0  0  0  0  0  0
    7.9751   -4.2342   -0.7210 H   0  0  0  0  0  0  0  0  0  0  0  0
    8.5408   -3.9693    0.9295 H   0  0  0  0  0  0  0  0  0  0  0  0
    6.3220   -5.2077    0.7806 H   0  0  0  0  0  0  0  0  0  0  0  0
    5.0749   -2.4808    3.4538 H   0  0  0  0  0  0  0  0  0  0  0  0
    5.0774   -5.5220    3.0079 H   0  0  0  0  0  0  0  0  0  0  0  0
    3.3405   -5.7554    3.0962 H   0  0  0  0  0  0  0  0  0  0  0  0
    4.1471   -4.7070    4.2511 H   0  0  0  0  0  0  0  0  0  0  0  0
    2.4552   -2.5148    2.1767 H   0  0  0  0  0  0  0  0  0  0  0  0
    4.2977   -5.1933    0.7835 H   0  0  0  0  0  0  0  0  0  0  0  0
    1.9662   -3.6225   -0.0324 H   0  0  0  0  0  0  0  0  0  0  0  0
    2.0355   -5.0917    0.8920 H   0  0  0  0  0  0  0  0  0  0  0  0
    2.6248   -5.0900   -0.7178 H   0  0  0  0  0  0  0  0  0  0  0  0
  1  2  1  0
  1 20  1  0
  1 21  1  0
  1 22  1  0
 19  2  1  6
  2  3  1  0
  2 23  1  6
  3  4  1  0
  3 24  1  0
  3 25  1  0
  4  5  1  0
  4 26  1  0
  4 27  1  0
  5 13  1  0
  5  6  1  1
  5  7  1  0
  6 28  1  0
  6 29  1  0
  6 30  1  0
  7  8  1  0
  8 19  1  0
  8  9  1  0
  8 31  1  6
  9 10  1  0
  9 32  1  0
  9 33  1  0
 10 11  1  0
 10 34  1  0
 10 35  1  0
 11 19  1  0
 11 12  1  0
 11 36  1  1
 12 13  1  0
 13 14  1  0
 13 37  1  1
 14 15  1  0
 14 16  1  6
 14 17  1  0
 15 38  1  0
 15 39  1  0
 15 40  1  0
 16 41  1  0
 17 18  1  0
 17 19  1  0
 17 42  1  1
 18 43  1  0
 18 44  1  0
 18 45  1  0
M  END
>  <i_m_ct_stereo_status>  (438) 
1

>  <s_m_source_file>  (438) 
/var/tmp/pbs.5076255.sched01/tmpsabrbf27/138opeauupd.sdf

>  <i_m_source_file_index>  (438) 
40

>  <i_lp_mmshare_version>  (438) 
48012

>  <i_f3d_flags>  (438) 
0

>  <s_epik_input>  (438) 
W0NIM11bQ0BASF0xW0NIMl1bQ0gyXVtDQF0oW0NIM10pKE9bQ0BASF0yW0NAQF0xMzQpW0NAQEhdKFtDQEBdKFtDSDNdKShbT0hdKVtDQEhdNFtDSDNdKU9bQ0BASF0zW0NIMl1bQ0gyXTI=

>  <s_epik_cmdline>  (438) 
J2VwaWtfcHl0aG9uJywgJy1waHQnLCAnMi4wJywgJy1waCcsICc3LjAnLCAnLXRuJywgJzgnLCAnLW1hJywgJzIwMCcsICctaW1hZScsICc8aW5maWxlLm1hZT4nLCAnLW9tYWUnLCAnPG91dGZpbGUubWFlPic=

>  <r_lp_tautomer_probability>  (438) 
1

>  <r_epik_Ionization_Penalty>  (438) 
3.71276e-08

>  <r_epik_Ionization_Penalty_Charging>  (438) 
0

>  <r_epik_Ionization_Penalty_Neutral>  (438) 
3.71276e-08

>  <r_epik_State_Penalty>  (438) 
-0

>  <r_epik_Charging_Adjusted_Penalty>  (438) 
0

>  <i_epik_Tot_Q>  (438) 
0

>  <i_epik_Tot_abs_Q>  (438) 
0

>  <s_lp_Force_Field>  (438) 
OPLS3e

>  <r_lp_Energy>  (438) 
186.106

>  <b_lp_Chiralities_Consistent>  (438) 
1

>  <s_lp_Variant>  (438) 
111:0-1

>  <s_i_glide_gridfile>  (438) 
pfpi4k_grid

>  <i_i_glide_lignum>  (438) 
40

>  <i_i_glide_rotatable_bonds>  (438) 
1

>  <r_i_docking_score>  (438) 
-3.40921

>  <r_i_glide_ligand_efficiency>  (438) 
-0.179432

>  <r_i_glide_ligand_efficiency_sa>  (438) 
-0.478796

>  <r_i_glide_ligand_efficiency_ln>  (438) 
-0.864307

>  <r_i_glide_gscore>  (438) 
-3.40921

>  <r_i_glide_lipo>  (438) 
-0.748009

>  <r_i_glide_hbond>  (438) 
0

>  <r_i_glide_metal>  (438) 
-0

>  <r_i_glide_rewards>  (438) 
-1.59289

>  <r_i_glide_evdw>  (438) 
-21.182

>  <r_i_glide_ecoul>  (438) 
-0.0613617

>  <r_i_glide_erotb>  (438) 
0

>  <r_i_glide_esite>  (438) 
0

>  <r_i_glide_emodel>  (438) 
-25.7115

>  <r_i_glide_energy>  (438) 
-21.2434

>  <r_i_glide_einternal>  (438) 
0.0063484

>  <r_i_glide_intrahb_reward>  (438) 
-0

>  <i_i_glide_confnum>  (438) 
2

>  <i_i_glide_posenum>  (438) 
17

>  <r_i_glide_eff_state_penalty>  (438) 
0

>  <ligand_id>  (438) 
111

>  <original_smiles>  (438) 
CC1CCC2(C)OC3CCC4OC2C(C)(O)C(C)C143

>  <smiles>  (438) 
[H]OC1(C([H])([H])[H])C2([H])OC3([H])C([H])([H])C([H])([H])C4([H])OC2(C([H])([H])[H])C([H])([H])C([H])([H])C([H])(C([H])([H])[H])C34C1([H])C([H])([H])[H]

$$$$
111:0:1
     RDKit          3D

 45 48  0  0  1  0  0  0  0  0999 V2000
    5.4234   -3.3439   -2.5861 C   0  0  0  0  0  0  0  0  0  0  0  0
    4.6129   -3.5442   -1.2821 C   0  0  2  0  0  0  0  0  0  0  0  0
    3.5765   -2.3777   -0.9249 C   0  0  0  0  0  0  0  0  0  0  0  0
    3.4616   -1.7802    0.5908 C   0  0  0  0  0  0  0  0  0  0  0  0
    4.6579   -1.7320    1.7103 C   0  0  2  0  0  0  0  0  0  0  0  0
    4.3210   -0.6231    2.7267 C   0  0  0  0  0  0  0  0  0  0  0  0
    5.7963   -1.2724    1.0771 O   0  0  0  0  0  0  0  0  0  0  0  0
    6.0632   -2.1599    0.0286 C   0  0  1  0  0  0  0  0  0  0  0  0
    7.5918   -2.2743   -0.1177 C   0  0  0  0  0  0  0  0  0  0  0  0
    7.8800   -3.7380    0.0634 C   0  0  0  0  0  0  0  0  0  0  0  0
    6.5898   -4.2641    0.6717 C   0  0  1  0  0  0  0  0  0  0  0  0
    6.4942   -3.6526    1.9984 O   0  0  0  0  0  0  0  0  0  0  0  0
    5.2450   -3.0189    2.5063 C   0  0  2  0  0  0  0  0  0  0  0  0
    4.2710   -4.1569    2.4912 C   0  0  1  0  0  0  0  0  0  0  0  0
    4.6993   -5.3368    3.3888 C   0  0  0  0  0  0  0  0  0  0  0  0
    3.0268   -3.7243    3.0204 O   0  0  0  0  0  0  0  0  0  0  0  0
    4.2459   -4.4886    0.9926 C   0  0  1  0  0  0  0  0  0  0  0  0
    2.8176   -4.9541    0.5484 C   0  0  0  0  0  0  0  0  0  0  0  0
    5.3380   -3.6466    0.0483 C   0  0  2  0  0  0  0  0  0  0  0  0
    5.9596   -2.4060   -2.6672 H   0  0  0  0  0  0  0  0  0  0  0  0
    4.7567   -3.4007   -3.4464 H   0  0  0  0  0  0  0  0  0  0  0  0
    6.1543   -4.1417   -2.6994 H   0  0  0  0  0  0  0  0  0  0  0  0
    4.1037   -4.4732   -1.5000 H   0  0  0  0  0  0  0  0  0  0  0  0
    3.7857   -1.5326   -1.5802 H   0  0  0  0  0  0  0  0  0  0  0  0
    2.5833   -2.6855   -1.2520 H   0  0  0  0  0  0  0  0  0  0  0  0
    3.1480   -0.7451    0.4349 H   0  0  0  0  0  0  0  0  0  0  0  0
    2.5766   -2.1965    1.0706 H   0  0  0  0  0  0  0  0  0  0  0  0
    3.4362   -0.8724    3.3138 H   0  0  0  0  0  0  0  0  0  0  0  0
    4.1283    0.3259    2.2257 H   0  0  0  0  0  0  0  0  0  0  0  0
    5.1465   -0.4497    3.4205 H   0  0  0  0  0  0  0  0  0  0  0  0
    5.8119   -1.5037   -0.8048 H   0  0  0  0  0  0  0  0  0  0  0  0
    7.9405   -1.9640   -1.0989 H   0  0  0  0  0  0  0  0  0  0  0  0
    8.1041   -1.6717    0.6351 H   0  0  0  0  0  0  0  0  0  0  0  0
    8.0783   -4.2072   -0.8965 H   0  0  0  0  0  0  0  0  0  0  0  0
    8.7381   -3.9097    0.7105 H   0  0  0  0  0  0  0  0  0  0  0  0
    6.6382   -5.3494    0.7280 H   0  0  0  0  0  0  0  0  0  0  0  0
    5.4479   -2.7357    3.5421 H   0  0  0  0  0  0  0  0  0  0  0  0
    5.6561   -5.7590    3.0979 H   0  0  0  0  0  0  0  0  0  0  0  0
    3.9707   -6.1456    3.3536 H   0  0  0  0  0  0  0  0  0  0  0  0
    4.7928   -5.0326    4.4297 H   0  0  0  0  0  0  0  0  0  0  0  0
    3.1507   -3.4957    3.9221 H   0  0  0  0  0  0  0  0  0  0  0  0
    4.6325   -5.5062    0.9623 H   0  0  0  0  0  0  0  0  0  0  0  0
    2.1043   -4.1554    0.3877 H   0  0  0  0  0  0  0  0  0  0  0  0
    2.3829   -5.5927    1.3205 H   0  0  0  0  0  0  0  0  0  0  0  0
    2.8257   -5.5927   -0.3251 H   0  0  0  0  0  0  0  0  0  0  0  0
  1  2  1  0
  1 20  1  0
  1 21  1  0
  1 22  1  0
 19  2  1  6
  2  3  1  0
  2 23  1  6
  3  4  1  0
  3 24  1  0
  3 25  1  0
  4  5  1  0
  4 26  1  0
  4 27  1  0
  5 13  1  0
  5  6  1  1
  5  7  1  0
  6 28  1  0
  6 29  1  0
  6 30  1  0
  7  8  1  0
  8 19  1  0
  8  9  1  0
  8 31  1  6
  9 10  1  0
  9 32  1  0
  9 33  1  0
 10 11  1  0
 10 34  1  0
 10 35  1  0
 11 19  1  0
 11 12  1  0
 11 36  1  1
 12 13  1  0
 13 14  1  0
 13 37  1  1
 14 15  1  0
 14 16  1  1
 14 17  1  0
 15 38  1  0
 15 39  1  0
 15 40  1  0
 16 41  1  0
 17 18  1  0
 17 19  1  0
 17 42  1  1
 18 43  1  0
 18 44  1  0
 18 45  1  0
M  END
>  <i_m_ct_stereo_status>  (439) 
1

>  <s_m_source_file>  (439) 
/var/tmp/pbs.5076255.sched01/tmpsabrbf27/138opeauupd.sdf

>  <i_m_source_file_index>  (439) 
40

>  <i_lp_mmshare_version>  (439) 
48012

>  <i_f3d_flags>  (439) 
0

>  <s_epik_input>  (439) 
W0NIM11bQ0BASF0xW0NIMl1bQ0gyXVtDQF0oW0NIM10pKE9bQ0BASF0yW0NAQF0xMzQpW0NAQEhdKFtDQEBdKFtDSDNdKShbT0hdKVtDQEhdNFtDSDNdKU9bQ0BASF0zW0NIMl1bQ0gyXTI=

>  <s_epik_cmdline>  (439) 
J2VwaWtfcHl0aG9uJywgJy1waHQnLCAnMi4wJywgJy1waCcsICc3LjAnLCAnLXRuJywgJzgnLCAnLW1hJywgJzIwMCcsICctaW1hZScsICc8aW5maWxlLm1hZT4nLCAnLW9tYWUnLCAnPG91dGZpbGUubWFlPic=

>  <r_lp_tautomer_probability>  (439) 
1

>  <r_epik_Ionization_Penalty>  (439) 
3.71276e-08

>  <r_epik_Ionization_Penalty_Charging>  (439) 
0

>  <r_epik_Ionization_Penalty_Neutral>  (439) 
3.71276e-08

>  <r_epik_State_Penalty>  (439) 
-0

>  <r_epik_Charging_Adjusted_Penalty>  (439) 
0

>  <i_epik_Tot_Q>  (439) 
0

>  <i_epik_Tot_abs_Q>  (439) 
0

>  <s_lp_Force_Field>  (439) 
OPLS3e

>  <r_lp_Energy>  (439) 
186.106

>  <b_lp_Chiralities_Consistent>  (439) 
1

>  <s_lp_Variant>  (439) 
111:0-1

>  <s_i_glide_gridfile>  (439) 
pfpi4k_grid

>  <i_i_glide_lignum>  (439) 
40

>  <i_i_glide_rotatable_bonds>  (439) 
1

>  <r_i_docking_score>  (439) 
-3.23413

>  <r_i_glide_ligand_efficiency>  (439) 
-0.170217

>  <r_i_glide_ligand_efficiency_sa>  (439) 
-0.454208

>  <r_i_glide_ligand_efficiency_ln>  (439) 
-0.819921

>  <r_i_glide_gscore>  (439) 
-3.23413

>  <r_i_glide_lipo>  (439) 
-0.774386

>  <r_i_glide_hbond>  (439) 
0

>  <r_i_glide_metal>  (439) 
-0

>  <r_i_glide_rewards>  (439) 
-1.59289

>  <r_i_glide_evdw>  (439) 
-19.5054

>  <r_i_glide_ecoul>  (439) 
0.722791

>  <r_i_glide_erotb>  (439) 
0

>  <r_i_glide_esite>  (439) 
0

>  <r_i_glide_emodel>  (439) 
-22.9902

>  <r_i_glide_energy>  (439) 
-18.7826

>  <r_i_glide_einternal>  (439) 
0.0122804

>  <r_i_glide_intrahb_reward>  (439) 
-0

>  <i_i_glide_confnum>  (439) 
2

>  <i_i_glide_posenum>  (439) 
11

>  <r_i_glide_eff_state_penalty>  (439) 
0

>  <ligand_id>  (439) 
111

>  <original_smiles>  (439) 
CC1CCC2(C)OC3CCC4OC2C(C)(O)C(C)C143

>  <smiles>  (439) 
[H]OC1(C([H])([H])[H])C2([H])OC3([H])C([H])([H])C([H])([H])C4([H])OC2(C([H])([H])[H])C([H])([H])C([H])([H])C([H])(C([H])([H])[H])C34C1([H])C([H])([H])[H]

$$$$
111:0:2
     RDKit          3D

 45 48  0  0  1  0  0  0  0  0999 V2000
    4.2098   -0.4110   -2.4005 C   0  0  0  0  0  0  0  0  0  0  0  0
    4.3300   -0.9716   -0.9561 C   0  0  2  0  0  0  0  0  0  0  0  0
    5.7981   -1.1590   -0.3227 C   0  0  0  0  0  0  0  0  0  0  0  0
    6.2361   -2.5446    0.4243 C   0  0  0  0  0  0  0  0  0  0  0  0
    5.6370   -4.0256    0.0806 C   0  0  2  0  0  0  0  0  0  0  0  0
    6.6614   -5.0645    0.5316 C   0  0  0  0  0  0  0  0  0  0  0  0
    5.5682   -4.1570   -1.2922 O   0  0  0  0  0  0  0  0  0  0  0  0
    4.8110   -3.0908   -1.7843 C   0  0  1  0  0  0  0  0  0  0  0  0
    4.0566   -3.4621   -3.0663 C   0  0  0  0  0  0  0  0  0  0  0  0
    2.6001   -3.2827   -2.6886 C   0  0  0  0  0  0  0  0  0  0  0  0
    2.6426   -3.2411   -1.1678 C   0  0  1  0  0  0  0  0  0  0  0  0
    3.1109   -4.5069   -0.5751 O   0  0  0  0  0  0  0  0  0  0  0  0
    4.1615   -4.5347    0.4815 C   0  0  2  0  0  0  0  0  0  0  0  0
    3.5983   -3.6953    1.5971 C   0  0  1  0  0  0  0  0  0  0  0  0
    2.2834   -4.2745    2.1662 C   0  0  0  0  0  0  0  0  0  0  0  0
    4.4835   -3.7056    2.7031 O   0  0  0  0  0  0  0  0  0  0  0  0
    3.4480   -2.3336    0.9042 C   0  0  1  0  0  0  0  0  0  0  0  0
    3.7231   -1.1498    1.8971 C   0  0  0  0  0  0  0  0  0  0  0  0
    3.7831   -2.3337   -0.7213 C   0  0  2  0  0  0  0  0  0  0  0  0
    4.8552   -0.8433   -3.1652 H   0  0  0  0  0  0  0  0  0  0  0  0
    4.4820    0.6239   -2.3151 H   0  0  0  0  0  0  0  0  0  0  0  0
    3.1836   -0.4684   -2.7775 H   0  0  0  0  0  0  0  0  0  0  0  0
    3.7384   -0.2649   -0.3892 H   0  0  0  0  0  0  0  0  0  0  0  0
    6.5047   -1.1000   -1.1425 H   0  0  0  0  0  0  0  0  0  0  0  0
    6.0335   -0.3094    0.3188 H   0  0  0  0  0  0  0  0  0  0  0  0
    7.2996   -2.6109    0.1974 H   0  0  0  0  0  0  0  0  0  0  0  0
    6.2287   -2.4071    1.5042 H   0  0  0  0  0  0  0  0  0  0  0  0
    6.7623   -5.0689    1.6176 H   0  0  0  0  0  0  0  0  0  0  0  0
    7.6327   -4.8572    0.0882 H   0  0  0  0  0  0  0  0  0  0  0  0
    6.3574   -6.0574    0.2056 H   0  0  0  0  0  0  0  0  0  0  0  0
    5.6318   -2.5313   -2.2338 H   0  0  0  0  0  0  0  0  0  0  0  0
    4.3175   -2.8418   -3.9302 H   0  0  0  0  0  0  0  0  0  0  0  0
    4.3258   -4.4932   -3.3019 H   0  0  0  0  0  0  0  0  0  0  0  0
    2.1991   -2.3495   -3.0999 H   0  0  0  0  0  0  0  0  0  0  0  0
    1.9653   -4.1020   -3.0018 H   0  0  0  0  0  0  0  0  0  0  0  0
    1.6441   -3.0520   -0.7762 H   0  0  0  0  0  0  0  0  0  0  0  0
    4.2137   -5.5721    0.8112 H   0  0  0  0  0  0  0  0  0  0  0  0
    1.5504   -4.4030    1.3801 H   0  0  0  0  0  0  0  0  0  0  0  0
    1.8476   -3.6304    2.9350 H   0  0  0  0  0  0  0  0  0  0  0  0
    2.4295   -5.2698    2.5888 H   0  0  0  0  0  0  0  0  0  0  0  0
    4.0306   -3.2872    3.4203 H   0  0  0  0  0  0  0  0  0  0  0  0
    2.3738   -2.1680    0.8970 H   0  0  0  0  0  0  0  0  0  0  0  0
    4.7714   -0.9624    2.1112 H   0  0  0  0  0  0  0  0  0  0  0  0
    3.2516   -1.3676    2.8544 H   0  0  0  0  0  0  0  0  0  0  0  0
    3.2647   -0.2139    1.5866 H   0  0  0  0  0  0  0  0  0  0  0  0
  1  2  1  0
  1 20  1  0
  1 21  1  0
  1 22  1  0
 19  2  1  6
  2  3  1  0
  2 23  1  1
  3  4  1  0
  3 24  1  0
  3 25  1  0
  4  5  1  0
  4 26  1  0
  4 27  1  0
  5 13  1  0
  5  6  1  1
  5  7  1  0
  6 28  1  0
  6 29  1  0
  6 30  1  0
  7  8  1  0
  8 19  1  0
  8  9  1  0
  8 31  1  6
  9 10  1  0
  9 32  1  0
  9 33  1  0
 10 11  1  0
 10 34  1  0
 10 35  1  0
 11 19  1  0
 11 12  1  0
 11 36  1  1
 12 13  1  0
 13 14  1  0
 13 37  1  1
 14 15  1  0
 14 16  1  1
 14 17  1  0
 15 38  1  0
 15 39  1  0
 15 40  1  0
 16 41  1  0
 17 18  1  0
 17 19  1  0
 17 42  1  6
 18 43  1  0
 18 44  1  0
 18 45  1  0
M  END
>  <i_m_ct_stereo_status>  (440) 
1

>  <s_m_source_file>  (440) 
/var/tmp/pbs.5076255.sched01/tmpsabrbf27/138opeauupd.sdf

>  <i_m_source_file_index>  (440) 
40

>  <i_lp_mmshare_version>  (440) 
48012

>  <i_f3d_flags>  (440) 
0

>  <s_epik_input>  (440) 
W0NIM11bQ0BASF0xW0NIMl1bQ0gyXVtDQF0oW0NIM10pKE9bQ0BASF0yW0NAQF0xMzQpW0NAQEhdKFtDQEBdKFtDSDNdKShbT0hdKVtDQEhdNFtDSDNdKU9bQ0BASF0zW0NIMl1bQ0gyXTI=

>  <s_epik_cmdline>  (440) 
J2VwaWtfcHl0aG9uJywgJy1waHQnLCAnMi4wJywgJy1waCcsICc3LjAnLCAnLXRuJywgJzgnLCAnLW1hJywgJzIwMCcsICctaW1hZScsICc8aW5maWxlLm1hZT4nLCAnLW9tYWUnLCAnPG91dGZpbGUubWFlPic=

>  <r_lp_tautomer_probability>  (440) 
1

>  <r_epik_Ionization_Penalty>  (440) 
3.71276e-08

>  <r_epik_Ionization_Penalty_Charging>  (440) 
0

>  <r_epik_Ionization_Penalty_Neutral>  (440) 
3.71276e-08

>  <r_epik_State_Penalty>  (440) 
-0

>  <r_epik_Charging_Adjusted_Penalty>  (440) 
0

>  <i_epik_Tot_Q>  (440) 
0

>  <i_epik_Tot_abs_Q>  (440) 
0

>  <s_lp_Force_Field>  (440) 
OPLS3e

>  <r_lp_Energy>  (440) 
186.106

>  <b_lp_Chiralities_Consistent>  (440) 
1

>  <s_lp_Variant>  (440) 
111:0-1

>  <s_i_glide_gridfile>  (440) 
pfpi4k_grid

>  <i_i_glide_lignum>  (440) 
40

>  <i_i_glide_rotatable_bonds>  (440) 
1

>  <r_i_docking_score>  (440) 
-2.66698

>  <r_i_glide_ligand_efficiency>  (440) 
-0.140367

>  <r_i_glide_ligand_efficiency_sa>  (440) 
-0.374556

>  <r_i_glide_ligand_efficiency_ln>  (440) 
-0.676136

>  <r_i_glide_gscore>  (440) 
-2.66698

>  <r_i_glide_lipo>  (440) 
-0.522914

>  <r_i_glide_hbond>  (440) 
0

>  <r_i_glide_metal>  (440) 
-0

>  <r_i_glide_rewards>  (440) 
-1.59289

>  <r_i_glide_evdw>  (440) 
-14.2512

>  <r_i_glide_ecoul>  (440) 
1.07591

>  <r_i_glide_erotb>  (440) 
0

>  <r_i_glide_esite>  (440) 
0

>  <r_i_glide_emodel>  (440) 
-15.73

>  <r_i_glide_energy>  (440) 
-13.1753

>  <r_i_glide_einternal>  (440) 
0.151642

>  <r_i_glide_intrahb_reward>  (440) 
-0

>  <i_i_glide_confnum>  (440) 
1

>  <i_i_glide_posenum>  (440) 
2

>  <r_i_glide_eff_state_penalty>  (440) 
0

>  <ligand_id>  (440) 
111

>  <original_smiles>  (440) 
CC1CCC2(C)OC3CCC4OC2C(C)(O)C(C)C143

>  <smiles>  (440) 
[H]OC1(C([H])([H])[H])C2([H])OC3([H])C([H])([H])C([H])([H])C4([H])OC2(C([H])([H])[H])C([H])([H])C([H])([H])C([H])(C([H])([H])[H])C34C1([H])C([H])([H])[H]

$$$$
112:0:0
     RDKit          3D

 28 31  0  0  1  0  0  0  0  0999 V2000
   -1.5342   -8.4729    2.3603 C   0  0  0  0  0  0  0  0  0  0  0  0
   -0.4383   -7.5749    2.8218 C   0  0  0  0  0  0  0  0  0  0  0  0
    0.4769   -7.0448    2.0081 N   0  0  0  0  0  0  0  0  0  0  0  0
    1.4365   -6.2711    2.6764 C   0  0  0  0  0  0  0  0  0  0  0  0
    2.5364   -5.6754    1.9157 C   0  0  0  0  0  0  0  0  0  0  0  0
    3.8304   -5.5504    2.4636 C   0  0  0  0  0  0  0  0  0  0  0  0
    4.8156   -4.9446    1.6416 C   0  0  0  0  0  0  0  0  0  0  0  0
    6.1195   -4.6872    1.8436 N   0  0  0  0  0  0  0  0  0  0  0  0
    6.5656   -4.0695    0.6744 C   0  0  0  0  0  0  0  0  0  0  0  0
    7.8104   -3.6375    0.4339 N   0  0  0  0  0  0  0  0  0  0  0  0
    8.0198   -3.0569   -0.7755 C   0  0  0  0  0  0  0  0  0  0  0  0
    7.0347   -2.8784   -1.7699 C   0  0  0  0  0  0  0  0  0  0  0  0
    5.7395   -3.3485   -1.5093 C   0  0  0  0  0  0  0  0  0  0  0  0
    5.5176   -3.9436   -0.2640 C   0  0  0  0  0  0  0  0  0  0  0  0
    4.4480   -4.4942    0.3536 N   0  0  0  0  0  0  0  0  0  0  0  0
    3.1452   -4.6522   -0.0902 C   0  0  0  0  0  0  0  0  0  0  0  0
    2.2133   -5.2354    0.6847 N   0  0  0  0  0  0  0  0  0  0  0  0
    1.1739   -6.1703    4.0206 C   0  0  0  0  0  0  0  0  0  0  0  0
   -0.2437   -7.0688    4.4900 S   0  0  0  0  0  0  0  0  0  0  0  0
   -1.4248   -8.6517    1.2917 H   0  0  0  0  0  0  0  0  0  0  0  0
   -2.5015   -8.0061    2.5485 H   0  0  0  0  0  0  0  0  0  0  0  0
   -1.4894   -9.4330    2.8772 H   0  0  0  0  0  0  0  0  0  0  0  0
    4.0849   -5.9062    3.4533 H   0  0  0  0  0  0  0  0  0  0  0  0
    9.0176   -2.7072   -0.9720 H   0  0  0  0  0  0  0  0  0  0  0  0
    7.2808   -2.4371   -2.7189 H   0  0  0  0  0  0  0  0  0  0  0  0
    4.9489   -3.2697   -2.2373 H   0  0  0  0  0  0  0  0  0  0  0  0
    2.8795   -4.3062   -1.0788 H   0  0  0  0  0  0  0  0  0  0  0  0
    1.7288   -5.6184    4.7681 H   0  0  0  0  0  0  0  0  0  0  0  0
  1  2  1  0
  1 20  1  0
  1 21  1  0
  1 22  1  0
  2 19  1  0
  2  3  2  0
  3  4  1  0
  4  5  1  0
  4 18  2  0
  5 17  1  0
  5  6  2  0
  6  7  1  0
  6 23  1  0
  7 15  1  0
  7  8  2  0
  8  9  1  0
  9 14  2  0
  9 10  1  0
 10 11  2  0
 11 12  1  0
 11 24  1  0
 12 13  2  0
 12 25  1  0
 13 14  1  0
 13 26  1  0
 14 15  1  0
 15 16  1  0
 16 17  2  0
 16 27  1  0
 18 19  1  0
 18 28  1  0
M  END
>  <i_m_ct_stereo_status>  (441) 
1

>  <s_m_source_file>  (441) 
/var/tmp/pbs.5076255.sched01/tmpsabrbf27/138opeauupd.sdf

>  <i_m_source_file_index>  (441) 
41

>  <i_lp_mmshare_version>  (441) 
48012

>  <i_f3d_flags>  (441) 
0

>  <s_epik_input>  (441) 
W0NIM11jMW5jKFtjSF1zMSktYyhbY0hdMiluW2NIXW4oYzIzKWM0YyhuMyluW2NIXVtjSF1bY0hdNA==

>  <s_epik_cmdline>  (441) 
J2VwaWtfcHl0aG9uJywgJy1waHQnLCAnMi4wJywgJy1waCcsICc3LjAnLCAnLXRuJywgJzgnLCAnLW1hJywgJzIwMCcsICctaW1hZScsICc8aW5maWxlLm1hZT4nLCAnLW9tYWUnLCAnPG91dGZpbGUubWFlPic=

>  <r_lp_tautomer_probability>  (441) 
1

>  <r_epik_Ionization_Penalty>  (441) 
0.000134831

>  <r_epik_Ionization_Penalty_Charging>  (441) 
0

>  <r_epik_Ionization_Penalty_Neutral>  (441) 
0.000134831

>  <r_epik_State_Penalty>  (441) 
-0

>  <r_epik_Charging_Adjusted_Penalty>  (441) 
0

>  <i_epik_Tot_Q>  (441) 
0

>  <i_epik_Tot_abs_Q>  (441) 
0

>  <s_lp_Force_Field>  (441) 
OPLS3e

>  <r_lp_Energy>  (441) 
35.3281

>  <b_lp_Chiralities_Consistent>  (441) 
1

>  <s_lp_Variant>  (441) 
112:0-1

>  <s_i_glide_gridfile>  (441) 
pfpi4k_grid

>  <i_i_glide_lignum>  (441) 
41

>  <i_i_glide_rotatable_bonds>  (441) 
1

>  <r_i_docking_score>  (441) 
-3.99527

>  <r_i_glide_ligand_efficiency>  (441) 
-0.210277

>  <r_i_glide_ligand_efficiency_sa>  (441) 
-0.561104

>  <r_i_glide_ligand_efficiency_ln>  (441) 
-1.01289

>  <r_i_glide_gscore>  (441) 
-3.99527

>  <r_i_glide_lipo>  (441) 
-0.342329

>  <r_i_glide_hbond>  (441) 
-0.0171546

>  <r_i_glide_metal>  (441) 
-0

>  <r_i_glide_rewards>  (441) 
-1.82222

>  <r_i_glide_evdw>  (441) 
-24.4067

>  <r_i_glide_ecoul>  (441) 
-5.38631

>  <r_i_glide_erotb>  (441) 
0.249527

>  <r_i_glide_esite>  (441) 
-0.0348087

>  <r_i_glide_emodel>  (441) 
-36.7157

>  <r_i_glide_energy>  (441) 
-29.793

>  <r_i_glide_einternal>  (441) 
2.71253

>  <r_i_glide_intrahb_reward>  (441) 
-0

>  <i_i_glide_confnum>  (441) 
3

>  <i_i_glide_posenum>  (441) 
4

>  <r_i_glide_eff_state_penalty>  (441) 
0

>  <ligand_id>  (441) 
112

>  <original_smiles>  (441) 
Cc1nc(-c2cc3nc4ncccc4n3cn2)cs1

>  <smiles>  (441) 
[H]c1nc2nc3c([H])c(-c4nc(C([H])([H])[H])sc4[H])nc([H])n3c2c([H])c1[H]

$$$$
112:0:1
     RDKit          3D

 28 31  0  0  1  0  0  0  0  0999 V2000
    5.8545   -0.9142   -0.1492 C   0  0  0  0  0  0  0  0  0  0  0  0
    4.5892   -1.3578    0.4949 C   0  0  0  0  0  0  0  0  0  0  0  0
    3.8259   -0.5658    1.2479 N   0  0  0  0  0  0  0  0  0  0  0  0
    2.6869   -1.2098    1.7483 C   0  0  0  0  0  0  0  0  0  0  0  0
    1.7417   -0.4623    2.5760 C   0  0  0  0  0  0  0  0  0  0  0  0
    1.1485   -1.0449    3.7160 C   0  0  0  0  0  0  0  0  0  0  0  0
    0.2501   -0.2292    4.4537 C   0  0  0  0  0  0  0  0  0  0  0  0
   -0.4618   -0.4623    5.5712 N   0  0  0  0  0  0  0  0  0  0  0  0
   -1.1615    0.7198    5.8275 C   0  0  0  0  0  0  0  0  0  0  0  0
   -1.9984    0.9448    6.8518 N   0  0  0  0  0  0  0  0  0  0  0  0
   -2.5786    2.1654    6.9064 C   0  0  0  0  0  0  0  0  0  0  0  0
   -2.3708    3.1967    5.9627 C   0  0  0  0  0  0  0  0  0  0  0  0
   -1.4863    2.9522    4.9012 C   0  0  0  0  0  0  0  0  0  0  0  0
   -0.8806    1.6944    4.8423 C   0  0  0  0  0  0  0  0  0  0  0  0
   -0.0060    1.0906    4.0039 N   0  0  0  0  0  0  0  0  0  0  0  0
    0.6194    1.5640    2.8501 C   0  0  0  0  0  0  0  0  0  0  0  0
    1.4800    0.7927    2.1652 N   0  0  0  0  0  0  0  0  0  0  0  0
    2.6263   -2.5287    1.3735 C   0  0  0  0  0  0  0  0  0  0  0  0
    3.9550   -2.9868    0.3474 S   0  0  0  0  0  0  0  0  0  0  0  0
    6.0304    0.1323    0.0990 H   0  0  0  0  0  0  0  0  0  0  0  0
    5.7760   -1.0199   -1.2324 H   0  0  0  0  0  0  0  0  0  0  0  0
    6.6917   -1.5068    0.2228 H   0  0  0  0  0  0  0  0  0  0  0  0
    1.3776   -2.0518    4.0450 H   0  0  0  0  0  0  0  0  0  0  0  0
   -3.2652    2.3365    7.7216 H   0  0  0  0  0  0  0  0  0  0  0  0
   -2.8851    4.1392    6.0494 H   0  0  0  0  0  0  0  0  0  0  0  0
   -1.2749    3.6932    4.1479 H   0  0  0  0  0  0  0  0  0  0  0  0
    0.4260    2.5720    2.5059 H   0  0  0  0  0  0  0  0  0  0  0  0
    1.8621   -3.2511    1.6157 H   0  0  0  0  0  0  0  0  0  0  0  0
  1  2  1  0
  1 20  1  0
  1 21  1  0
  1 22  1  0
  2 19  1  0
  2  3  2  0
  3  4  1  0
  4  5  1  0
  4 18  2  0
  5 17  1  0
  5  6  2  0
  6  7  1  0
  6 23  1  0
  7 15  1  0
  7  8  2  0
  8  9  1  0
  9 14  2  0
  9 10  1  0
 10 11  2  0
 11 12  1  0
 11 24  1  0
 12 13  2  0
 12 25  1  0
 13 14  1  0
 13 26  1  0
 14 15  1  0
 15 16  1  0
 16 17  2  0
 16 27  1  0
 18 19  1  0
 18 28  1  0
M  END
>  <i_m_ct_stereo_status>  (442) 
1

>  <s_m_source_file>  (442) 
/var/tmp/pbs.5076255.sched01/tmpsabrbf27/138opeauupd.sdf

>  <i_m_source_file_index>  (442) 
41

>  <i_lp_mmshare_version>  (442) 
48012

>  <i_f3d_flags>  (442) 
0

>  <s_epik_input>  (442) 
W0NIM11jMW5jKFtjSF1zMSktYyhbY0hdMiluW2NIXW4oYzIzKWM0YyhuMyluW2NIXVtjSF1bY0hdNA==

>  <s_epik_cmdline>  (442) 
J2VwaWtfcHl0aG9uJywgJy1waHQnLCAnMi4wJywgJy1waCcsICc3LjAnLCAnLXRuJywgJzgnLCAnLW1hJywgJzIwMCcsICctaW1hZScsICc8aW5maWxlLm1hZT4nLCAnLW9tYWUnLCAnPG91dGZpbGUubWFlPic=

>  <r_lp_tautomer_probability>  (442) 
1

>  <r_epik_Ionization_Penalty>  (442) 
0.000134831

>  <r_epik_Ionization_Penalty_Charging>  (442) 
0

>  <r_epik_Ionization_Penalty_Neutral>  (442) 
0.000134831

>  <r_epik_State_Penalty>  (442) 
-0

>  <r_epik_Charging_Adjusted_Penalty>  (442) 
0

>  <i_epik_Tot_Q>  (442) 
0

>  <i_epik_Tot_abs_Q>  (442) 
0

>  <s_lp_Force_Field>  (442) 
OPLS3e

>  <r_lp_Energy>  (442) 
35.3281

>  <b_lp_Chiralities_Consistent>  (442) 
1

>  <s_lp_Variant>  (442) 
112:0-1

>  <s_i_glide_gridfile>  (442) 
pfpi4k_grid

>  <i_i_glide_lignum>  (442) 
41

>  <i_i_glide_rotatable_bonds>  (442) 
1

>  <r_i_docking_score>  (442) 
-3.70694

>  <r_i_glide_ligand_efficiency>  (442) 
-0.195102

>  <r_i_glide_ligand_efficiency_sa>  (442) 
-0.520611

>  <r_i_glide_ligand_efficiency_ln>  (442) 
-0.93979

>  <r_i_glide_gscore>  (442) 
-3.70694

>  <r_i_glide_lipo>  (442) 
-0.0873947

>  <r_i_glide_hbond>  (442) 
-0.16

>  <r_i_glide_metal>  (442) 
-0

>  <r_i_glide_rewards>  (442) 
-1.58652

>  <r_i_glide_evdw>  (442) 
-22.8017

>  <r_i_glide_ecoul>  (442) 
-5.81735

>  <r_i_glide_erotb>  (442) 
0.249527

>  <r_i_glide_esite>  (442) 
-0.109867

>  <r_i_glide_emodel>  (442) 
-34.8823

>  <r_i_glide_energy>  (442) 
-28.619

>  <r_i_glide_einternal>  (442) 
2.84135

>  <r_i_glide_intrahb_reward>  (442) 
-0

>  <i_i_glide_confnum>  (442) 
3

>  <i_i_glide_posenum>  (442) 
10

>  <r_i_glide_eff_state_penalty>  (442) 
0

>  <ligand_id>  (442) 
112

>  <original_smiles>  (442) 
Cc1nc(-c2cc3nc4ncccc4n3cn2)cs1

>  <smiles>  (442) 
[H]c1nc2nc3c([H])c(-c4nc(C([H])([H])[H])sc4[H])nc([H])n3c2c([H])c1[H]

$$$$
112:0:2
     RDKit          3D

 28 31  0  0  1  0  0  0  0  0999 V2000
    4.1049   -4.5818    0.3023 C   0  0  0  0  0  0  0  0  0  0  0  0
    3.9186   -3.1189    0.4845 C   0  0  0  0  0  0  0  0  0  0  0  0
    3.0330   -2.5925    1.3338 N   0  0  0  0  0  0  0  0  0  0  0  0
    3.0172   -1.1921    1.3154 C   0  0  0  0  0  0  0  0  0  0  0  0
    2.0744   -0.4551    2.1616 C   0  0  0  0  0  0  0  0  0  0  0  0
    1.3881   -1.0817    3.2213 C   0  0  0  0  0  0  0  0  0  0  0  0
    0.5068   -0.2792    3.9863 C   0  0  0  0  0  0  0  0  0  0  0  0
   -0.2705   -0.5648    5.0495 N   0  0  0  0  0  0  0  0  0  0  0  0
   -0.9061    0.6346    5.3796 C   0  0  0  0  0  0  0  0  0  0  0  0
   -1.7741    0.8262    6.3878 N   0  0  0  0  0  0  0  0  0  0  0  0
   -2.2638    2.0868    6.5180 C   0  0  0  0  0  0  0  0  0  0  0  0
   -1.9494    3.1732    5.6710 C   0  0  0  0  0  0  0  0  0  0  0  0
   -1.0410    2.9575    4.6273 C   0  0  0  0  0  0  0  0  0  0  0  0
   -0.5218    1.6686    4.4905 C   0  0  0  0  0  0  0  0  0  0  0  0
    0.3506    1.0836    3.6412 N   0  0  0  0  0  0  0  0  0  0  0  0
    1.0603    1.6123    2.5628 C   0  0  0  0  0  0  0  0  0  0  0  0
    1.9308    0.8523    1.8687 N   0  0  0  0  0  0  0  0  0  0  0  0
    3.9669   -0.6764    0.4620 C   0  0  0  0  0  0  0  0  0  0  0  0
    4.8514   -1.9112   -0.3838 S   0  0  0  0  0  0  0  0  0  0  0  0
    3.4075   -5.1221    0.9365 H   0  0  0  0  0  0  0  0  0  0  0  0
    5.1216   -4.8650    0.5718 H   0  0  0  0  0  0  0  0  0  0  0  0
    3.9196   -4.8622   -0.7328 H   0  0  0  0  0  0  0  0  0  0  0  0
    1.5325   -2.1226    3.4679 H   0  0  0  0  0  0  0  0  0  0  0  0
   -2.9804    2.2401    7.3110 H   0  0  0  0  0  0  0  0  0  0  0  0
   -2.4120    4.1352    5.8159 H   0  0  0  0  0  0  0  0  0  0  0  0
   -0.7456    3.7425    3.9457 H   0  0  0  0  0  0  0  0  0  0  0  0
    0.9339    2.6565    2.3040 H   0  0  0  0  0  0  0  0  0  0  0  0
    4.1883    0.3634    0.2695 H   0  0  0  0  0  0  0  0  0  0  0  0
  1  2  1  0
  1 20  1  0
  1 21  1  0
  1 22  1  0
  2 19  1  0
  2  3  2  0
  3  4  1  0
  4  5  1  0
  4 18  2  0
  5 17  1  0
  5  6  2  0
  6  7  1  0
  6 23  1  0
  7 15  1  0
  7  8  2  0
  8  9  1  0
  9 14  2  0
  9 10  1  0
 10 11  2  0
 11 12  1  0
 11 24  1  0
 12 13  2  0
 12 25  1  0
 13 14  1  0
 13 26  1  0
 14 15  1  0
 15 16  1  0
 16 17  2  0
 16 27  1  0
 18 19  1  0
 18 28  1  0
M  END
>  <i_m_ct_stereo_status>  (443) 
1

>  <s_m_source_file>  (443) 
/var/tmp/pbs.5076255.sched01/tmpsabrbf27/138opeauupd.sdf

>  <i_m_source_file_index>  (443) 
41

>  <i_lp_mmshare_version>  (443) 
48012

>  <i_f3d_flags>  (443) 
0

>  <s_epik_input>  (443) 
W0NIM11jMW5jKFtjSF1zMSktYyhbY0hdMiluW2NIXW4oYzIzKWM0YyhuMyluW2NIXVtjSF1bY0hdNA==

>  <s_epik_cmdline>  (443) 
J2VwaWtfcHl0aG9uJywgJy1waHQnLCAnMi4wJywgJy1waCcsICc3LjAnLCAnLXRuJywgJzgnLCAnLW1hJywgJzIwMCcsICctaW1hZScsICc8aW5maWxlLm1hZT4nLCAnLW9tYWUnLCAnPG91dGZpbGUubWFlPic=

>  <r_lp_tautomer_probability>  (443) 
1

>  <r_epik_Ionization_Penalty>  (443) 
0.000134831

>  <r_epik_Ionization_Penalty_Charging>  (443) 
0

>  <r_epik_Ionization_Penalty_Neutral>  (443) 
0.000134831

>  <r_epik_State_Penalty>  (443) 
-0

>  <r_epik_Charging_Adjusted_Penalty>  (443) 
0

>  <i_epik_Tot_Q>  (443) 
0

>  <i_epik_Tot_abs_Q>  (443) 
0

>  <s_lp_Force_Field>  (443) 
OPLS3e

>  <r_lp_Energy>  (443) 
35.3281

>  <b_lp_Chiralities_Consistent>  (443) 
1

>  <s_lp_Variant>  (443) 
112:0-1

>  <s_i_glide_gridfile>  (443) 
pfpi4k_grid

>  <i_i_glide_lignum>  (443) 
41

>  <i_i_glide_rotatable_bonds>  (443) 
1

>  <r_i_docking_score>  (443) 
-3.43943

>  <r_i_glide_ligand_efficiency>  (443) 
-0.181023

>  <r_i_glide_ligand_efficiency_sa>  (443) 
-0.483042

>  <r_i_glide_ligand_efficiency_ln>  (443) 
-0.871971

>  <r_i_glide_gscore>  (443) 
-3.43943

>  <r_i_glide_lipo>  (443) 
-0.0644909

>  <r_i_glide_hbond>  (443) 
-0.0969918

>  <r_i_glide_metal>  (443) 
-0

>  <r_i_glide_rewards>  (443) 
-1.58652

>  <r_i_glide_evdw>  (443) 
-23.0164

>  <r_i_glide_ecoul>  (443) 
-4.60336

>  <r_i_glide_erotb>  (443) 
0.249527

>  <r_i_glide_esite>  (443) 
-0.0996315

>  <r_i_glide_emodel>  (443) 
-34.5008

>  <r_i_glide_energy>  (443) 
-27.6198

>  <r_i_glide_einternal>  (443) 
0.525711

>  <r_i_glide_intrahb_reward>  (443) 
-0

>  <i_i_glide_confnum>  (443) 
5

>  <i_i_glide_posenum>  (443) 
11

>  <r_i_glide_eff_state_penalty>  (443) 
0

>  <ligand_id>  (443) 
112

>  <original_smiles>  (443) 
Cc1nc(-c2cc3nc4ncccc4n3cn2)cs1

>  <smiles>  (443) 
[H]c1nc2nc3c([H])c(-c4nc(C([H])([H])[H])sc4[H])nc([H])n3c2c([H])c1[H]

$$$$
113:0:0
     RDKit          3D

 41 43  0  0  1  0  0  0  0  0999 V2000
    1.9098   -3.6014   -2.2350 C   0  0  0  0  0  0  0  0  0  0  0  0
    3.0953   -3.4783   -1.3444 N   0  0  2  0  0  0  0  0  0  0  0  0
    2.6453   -3.3550    0.0743 C   0  0  0  0  0  0  0  0  0  0  0  0
    3.6710   -2.9714    1.1707 C   0  0  2  0  0  0  0  0  0  0  0  0
    3.0737   -3.3890    2.5355 C   0  0  0  0  0  0  0  0  0  0  0  0
    3.8233   -1.4378    1.2171 C   0  0  0  0  0  0  0  0  0  0  0  0
    4.7092   -0.9138    0.0937 C   0  0  1  0  0  0  0  0  0  0  0  0
    6.1009   -1.5367    0.2371 C   0  0  0  0  0  0  0  0  0  0  0  0
    6.0115   -3.0509   -0.0037 C   0  0  1  0  0  0  0  0  0  0  0  0
    7.4057   -3.6795    0.1913 C   0  0  0  0  0  0  0  0  0  0  0  0
    5.0380   -3.6879    1.0184 C   0  0  0  0  0  0  0  0  0  0  0  0
    5.5547   -3.2723   -1.4612 C   0  0  0  0  0  0  0  0  0  0  0  0
    4.2061   -2.6027   -1.8427 C   0  0  1  0  0  0  0  0  0  0  0  0
    4.2009   -2.5246   -3.3964 C   0  0  0  0  0  0  0  0  0  0  0  0
    4.1165   -1.1447   -1.3122 C   0  0  0  0  0  0  0  0  0  0  0  0
    1.4191   -2.6448   -2.4043 H   0  0  0  0  0  0  0  0  0  0  0  0
    1.1862   -4.2872   -1.7981 H   0  0  0  0  0  0  0  0  0  0  0  0
    2.1710   -4.0291   -3.2024 H   0  0  0  0  0  0  0  0  0  0  0  0
    1.8134   -2.6566    0.1246 H   0  0  0  0  0  0  0  0  0  0  0  0
    2.2267   -4.3257    0.3373 H   0  0  0  0  0  0  0  0  0  0  0  0
    3.7306   -3.0892    3.3554 H   0  0  0  0  0  0  0  0  0  0  0  0
    2.9456   -4.4710    2.6113 H   0  0  0  0  0  0  0  0  0  0  0  0
    2.1040   -2.9203    2.7170 H   0  0  0  0  0  0  0  0  0  0  0  0
    2.8493   -0.9465    1.1816 H   0  0  0  0  0  0  0  0  0  0  0  0
    4.2661   -1.1362    2.1686 H   0  0  0  0  0  0  0  0  0  0  0  0
    4.7986    0.1584    0.2430 H   0  0  0  0  0  0  0  0  0  0  0  0
    6.7835   -1.0782   -0.4709 H   0  0  0  0  0  0  0  0  0  0  0  0
    6.5030   -1.3284    1.2312 H   0  0  0  0  0  0  0  0  0  0  0  0
    7.3761   -4.7597    0.0431 H   0  0  0  0  0  0  0  0  0  0  0  0
    7.7786   -3.5065    1.2022 H   0  0  0  0  0  0  0  0  0  0  0  0
    8.1370   -3.2609   -0.5024 H   0  0  0  0  0  0  0  0  0  0  0  0
    5.5355   -3.6789    1.9912 H   0  0  0  0  0  0  0  0  0  0  0  0
    4.8789   -4.7416    0.7825 H   0  0  0  0  0  0  0  0  0  0  0  0
    6.3388   -2.8850   -2.1170 H   0  0  0  0  0  0  0  0  0  0  0  0
    5.5023   -4.3407   -1.6727 H   0  0  0  0  0  0  0  0  0  0  0  0
    5.0368   -1.9324   -3.7638 H   0  0  0  0  0  0  0  0  0  0  0  0
    3.3059   -2.0354   -3.7878 H   0  0  0  0  0  0  0  0  0  0  0  0
    4.2849   -3.5142   -3.8523 H   0  0  0  0  0  0  0  0  0  0  0  0
    3.0827   -0.8007   -1.3515 H   0  0  0  0  0  0  0  0  0  0  0  0
    4.6615   -0.4861   -1.9915 H   0  0  0  0  0  0  0  0  0  0  0  0
    3.5024   -4.4038   -1.3968 H   0  0  0  0  0  0  0  0  0  0  0  0
  1  2  1  0
  1 16  1  0
  1 17  1  0
  1 18  1  0
  2 13  1  0
  2  3  1  0
  2 41  1  1
  3  4  1  0
  3 19  1  0
  3 20  1  0
  4 11  1  0
  4  5  1  1
  4  6  1  0
  5 21  1  0
  5 22  1  0
  5 23  1  0
  6  7  1  0
  6 24  1  0
  6 25  1  0
  7 15  1  0
  7  8  1  0
  7 26  1  1
  8  9  1  0
  8 27  1  0
  8 28  1  0
  9 10  1  6
  9 11  1  0
  9 12  1  0
 10 29  1  0
 10 30  1  0
 10 31  1  0
 11 32  1  0
 11 33  1  0
 12 13  1  0
 12 34  1  0
 12 35  1  0
 13 14  1  6
 13 15  1  0
 14 36  1  0
 14 37  1  0
 14 38  1  0
 15 39  1  0
 15 40  1  0
M  CHG  1   2   1
M  END
>  <i_m_ct_stereo_status>  (444) 
1

>  <s_m_source_file>  (444) 
/var/tmp/pbs.5076255.sched01/tmpsabrbf27/138opeauupd.sdf

>  <i_m_source_file_index>  (444) 
42

>  <i_lp_mmshare_version>  (444) 
48012

>  <i_f3d_flags>  (444) 
0

>  <s_epik_input>  (444) 
W0NIM11bQ0BAXTEyW0NIMl1OKFtDSDNdKVtDQF0zKFtDSDNdKVtDSDJdW0NAXShbQ0gzXSkoW0NIMl0yKVtDSDJdW0NASF0oW0NIMl0xKVtDSDJdMw==

>  <s_epik_cmdline>  (444) 
J2VwaWtfcHl0aG9uJywgJy1waHQnLCAnMi4wJywgJy1waCcsICc3LjAnLCAnLXRuJywgJzgnLCAnLW1hJywgJzIwMCcsICctaW1hZScsICc8aW5maWxlLm1hZT4nLCAnLW9tYWUnLCAnPG91dGZpbGUubWFlPic=

>  <r_lp_tautomer_probability>  (444) 
1

>  <r_epik_Ionization_Penalty>  (444) 
0.000287078

>  <r_epik_Ionization_Penalty_Charging>  (444) 
0.000287078

>  <r_epik_Ionization_Penalty_Neutral>  (444) 
0

>  <r_epik_State_Penalty>  (444) 
-0

>  <r_epik_Charging_Adjusted_Penalty>  (444) 
0.000287078

>  <i_epik_Tot_Q>  (444) 
1

>  <i_epik_Tot_abs_Q>  (444) 
1

>  <s_lp_Force_Field>  (444) 
OPLS3e

>  <r_lp_Energy>  (444) 
37.9477

>  <b_lp_Chiralities_Consistent>  (444) 
1

>  <s_lp_Variant>  (444) 
113:0-1

>  <s_i_glide_gridfile>  (444) 
pfpi4k_grid

>  <i_i_glide_lignum>  (444) 
42

>  <i_i_glide_rotatable_bonds>  (444) 
0

>  <r_i_docking_score>  (444) 
-4.14624

>  <r_i_glide_ligand_efficiency>  (444) 
-0.276416

>  <r_i_glide_ligand_efficiency_sa>  (444) 
-0.681701

>  <r_i_glide_ligand_efficiency_ln>  (444) 
-1.11817

>  <r_i_glide_gscore>  (444) 
-4.14624

>  <r_i_glide_lipo>  (444) 
-0.698218

>  <r_i_glide_hbond>  (444) 
0

>  <r_i_glide_metal>  (444) 
-0

>  <r_i_glide_rewards>  (444) 
-1.98843

>  <r_i_glide_evdw>  (444) 
-14.9458

>  <r_i_glide_ecoul>  (444) 
-4.74864

>  <r_i_glide_erotb>  (444) 
0

>  <r_i_glide_esite>  (444) 
0

>  <r_i_glide_emodel>  (444) 
-25.0977

>  <r_i_glide_energy>  (444) 
-19.6945

>  <r_i_glide_einternal>  (444) 
0

>  <r_i_glide_intrahb_reward>  (444) 
-0

>  <i_i_glide_confnum>  (444) 
2

>  <i_i_glide_posenum>  (444) 
2

>  <r_i_glide_eff_state_penalty>  (444) 
0

>  <ligand_id>  (444) 
113

>  <original_smiles>  (444) 
CN1CC2(C)CC3CC(C)(C2)CC1(C)C3

>  <smiles>  (444) 
[H]C([H])([H])C12C([H])([H])C3([H])C([H])([H])C(C([H])([H])[H])(C1([H])[H])C([H])([H])[N+]([H])(C([H])([H])[H])C(C([H])([H])[H])(C3([H])[H])C2([H])[H]

$$$$
114:0:0
     RDKit          3D

 79 86  0  0  1  0  0  0  0  0999 V2000
    4.1326   -9.3565    1.0955 C   0  0  0  0  0  0  0  0  0  0  0  0
    5.0810   -8.2989    1.0483 O   0  0  0  0  0  0  0  0  0  0  0  0
    5.3715   -7.7375    2.2879 C   0  0  2  0  0  0  0  0  0  0  0  0
    4.2449   -7.0637    2.7924 O   0  0  0  0  0  0  0  0  0  0  0  0
    4.4310   -6.4174    4.0258 C   0  0  1  0  0  0  0  0  0  0  0  0
    4.9368   -7.3116    4.9480 O   0  0  0  0  0  0  0  0  0  0  0  0
    5.4004   -6.7840    6.1603 C   0  0  1  0  0  0  0  0  0  0  0  0
    6.1495   -5.6245    6.1117 O   0  0  0  0  0  0  0  0  0  0  0  0
    5.6094   -4.6434    5.3104 C   0  0  2  0  0  0  0  0  0  0  0  0
    4.3381   -4.1236    6.0345 C   0  0  2  0  0  0  0  0  0  0  0  0
    3.7047   -5.1948    6.9413 C   0  0  0  0  0  0  0  0  0  0  0  0
    4.1919   -6.4551    7.0268 C   0  0  0  0  0  0  0  0  0  0  0  0
    3.5908   -7.5525    7.8758 C   0  0  0  0  0  0  0  0  0  0  0  0
    3.4339   -3.6405    5.0474 O   0  0  0  0  0  0  0  0  0  0  0  0
    4.0979   -2.9650    4.0203 C   0  0  2  0  0  0  0  0  0  0  0  0
    3.3252   -1.9189    3.5130 O   0  0  0  0  0  0  0  0  0  0  0  0
    2.6839   -2.0957    2.2942 C   0  0  1  0  0  0  0  0  0  0  0  0
    1.2710   -1.5248    2.4941 C   0  0  0  0  0  0  0  0  0  0  0  0
    3.4171   -1.2826    1.2044 C   0  0  0  0  0  0  0  0  0  0  0  0
    4.9479   -1.2678    1.3517 C   0  0  0  0  0  0  0  0  0  0  0  0
    5.7441   -2.5825    1.2084 C   0  0  1  0  0  0  0  0  0  0  0  0
    5.8186   -3.4147    2.3620 O   0  0  0  0  0  0  0  0  0  0  0  0
    4.6891   -4.0144    2.9935 C   0  0  2  0  0  0  0  0  0  0  0  0
    3.5040   -4.3749    2.0241 C   0  0  2  0  0  0  0  0  0  0  0  0
    3.7613   -4.9712    0.6245 C   0  0  0  0  0  0  0  0  0  0  0  0
    4.3463   -4.0469   -0.4478 C   0  0  0  0  0  0  0  0  0  0  0  0
    5.6897   -3.3838   -0.1139 C   0  0  1  0  0  0  0  0  0  0  0  0
    6.1821   -2.5536   -1.3131 C   0  0  0  0  0  0  0  0  0  0  0  0
    2.4781   -3.4078    1.8901 O   0  0  0  0  0  0  0  0  0  0  0  0
    5.3926   -5.2114    3.8763 C   0  0  2  0  0  0  0  0  0  0  0  0
    6.7596   -5.9100    3.3686 C   0  0  1  0  0  0  0  0  0  0  0  0
    7.8005   -6.6011    4.3878 C   0  0  0  0  0  0  0  0  0  0  0  0
    7.4460   -7.8928    5.2479 C   0  0  0  0  0  0  0  0  0  0  0  0
    6.4953   -7.7983    6.5127 C   0  0  1  0  0  0  0  0  0  0  0  0
    7.2464   -7.4527    7.8171 C   0  0  0  0  0  0  0  0  0  0  0  0
    6.5327   -6.7329    2.0821 C   0  0  1  0  0  0  0  0  0  0  0  0
    7.7834   -7.4326    1.5071 C   0  0  0  0  0  0  0  0  0  0  0  0
    3.9604   -9.7217    0.0837 H   0  0  0  0  0  0  0  0  0  0  0  0
    3.1717   -9.0211    1.4899 H   0  0  0  0  0  0  0  0  0  0  0  0
    4.4870  -10.1968    1.6967 H   0  0  0  0  0  0  0  0  0  0  0  0
    5.6561   -8.5449    2.9609 H   0  0  0  0  0  0  0  0  0  0  0  0
    3.4465   -6.1130    4.3837 H   0  0  0  0  0  0  0  0  0  0  0  0
    6.3478   -3.8435    5.2777 H   0  0  0  0  0  0  0  0  0  0  0  0
    4.6235   -3.3010    6.6913 H   0  0  0  0  0  0  0  0  0  0  0  0
    2.8420   -4.8980    7.5193 H   0  0  0  0  0  0  0  0  0  0  0  0
    3.4133   -8.4325    7.2569 H   0  0  0  0  0  0  0  0  0  0  0  0
    2.6367   -7.2376    8.2970 H   0  0  0  0  0  0  0  0  0  0  0  0
    4.2536   -7.8302    8.6937 H   0  0  0  0  0  0  0  0  0  0  0  0
    4.9005   -2.3785    4.4699 H   0  0  0  0  0  0  0  0  0  0  0  0
    0.7363   -2.1173    3.2373 H   0  0  0  0  0  0  0  0  0  0  0  0
    0.7202   -1.5507    1.5552 H   0  0  0  0  0  0  0  0  0  0  0  0
    1.3170   -0.4897    2.8342 H   0  0  0  0  0  0  0  0  0  0  0  0
    3.0690   -1.5716    0.2194 H   0  0  0  0  0  0  0  0  0  0  0  0
    3.0920   -0.2454    1.2974 H   0  0  0  0  0  0  0  0  0  0  0  0
    5.3186   -0.5795    0.5927 H   0  0  0  0  0  0  0  0  0  0  0  0
    5.2180   -0.7890    2.2929 H   0  0  0  0  0  0  0  0  0  0  0  0
    6.7709   -2.2140    1.2147 H   0  0  0  0  0  0  0  0  0  0  0  0
    2.9022   -5.1156    2.5347 H   0  0  0  0  0  0  0  0  0  0  0  0
    4.3339   -5.8832    0.6604 H   0  0  0  0  0  0  0  0  0  0  0  0
    2.7991   -5.3132    0.2432 H   0  0  0  0  0  0  0  0  0  0  0  0
    4.4998   -4.6550   -1.3401 H   0  0  0  0  0  0  0  0  0  0  0  0
    3.6041   -3.3167   -0.7523 H   0  0  0  0  0  0  0  0  0  0  0  0
    6.4183   -4.1874   -0.0036 H   0  0  0  0  0  0  0  0  0  0  0  0
    5.4995   -1.7321   -1.5362 H   0  0  0  0  0  0  0  0  0  0  0  0
    6.2591   -3.1715   -2.2100 H   0  0  0  0  0  0  0  0  0  0  0  0
    7.1725   -2.1391   -1.1243 H   0  0  0  0  0  0  0  0  0  0  0  0
    7.3628   -5.0806    3.0074 H   0  0  0  0  0  0  0  0  0  0  0  0
    8.6854   -6.8677    3.8148 H   0  0  0  0  0  0  0  0  0  0  0  0
    8.2138   -5.8408    5.0472 H   0  0  0  0  0  0  0  0  0  0  0  0
    7.0548   -8.6601    4.5836 H   0  0  0  0  0  0  0  0  0  0  0  0
    8.3882   -8.3174    5.5934 H   0  0  0  0  0  0  0  0  0  0  0  0
    6.0127   -8.7642    6.6597 H   0  0  0  0  0  0  0  0  0  0  0  0
    7.8260   -6.5322    7.7365 H   0  0  0  0  0  0  0  0  0  0  0  0
    7.9464   -8.2489    8.0690 H   0  0  0  0  0  0  0  0  0  0  0  0
    6.5675   -7.3496    8.6624 H   0  0  0  0  0  0  0  0  0  0  0  0
    6.2381   -6.0183    1.3248 H   0  0  0  0  0  0  0  0  0  0  0  0
    8.1280   -8.2549    2.1325 H   0  0  0  0  0  0  0  0  0  0  0  0
    8.5996   -6.7194    1.3980 H   0  0  0  0  0  0  0  0  0  0  0  0
    7.5944   -7.8376    0.5149 H   0  0  0  0  0  0  0  0  0  0  0  0
  1  2  1  0
  1 38  1  0
  1 39  1  0
  1 40  1  0
  2  3  1  0
  3 36  1  0
  3  4  1  0
  3 41  1  1
  4  5  1  0
  5 30  1  0
  5  6  1  0
  5 42  1  1
  6  7  1  0
  7 12  1  1
  7 34  1  0
  7  8  1  0
  8  9  1  0
  9 30  1  0
  9 10  1  0
  9 43  1  6
 10 11  1  0
 10 14  1  0
 10 44  1  1
 11 12  2  0
 11 45  1  0
 12 13  1  0
 13 46  1  0
 13 47  1  0
 13 48  1  0
 14 15  1  0
 15 23  1  0
 15 16  1  0
 15 49  1  1
 16 17  1  0
 17 29  1  0
 17 18  1  1
 17 19  1  0
 18 50  1  0
 18 51  1  0
 18 52  1  0
 19 20  1  0
 19 53  1  0
 19 54  1  0
 20 21  1  0
 20 55  1  0
 20 56  1  0
 21 27  1  0
 21 22  1  0
 21 57  1  6
 23 22  1  6
 23 24  1  0
 30 23  1  6
 24 25  1  0
 24 29  1  0
 24 58  1  1
 25 26  1  0
 25 59  1  0
 25 60  1  0
 26 27  1  0
 26 61  1  0
 26 62  1  0
 27 28  1  0
 27 63  1  1
 28 64  1  0
 28 65  1  0
 28 66  1  0
 30 31  1  0
 31 32  1  0
 31 36  1  0
 31 67  1  6
 32 33  1  0
 32 68  1  0
 32 69  1  0
 33 34  1  0
 33 70  1  0
 33 71  1  0
 34 35  1  0
 34 72  1  1
 35 73  1  0
 35 74  1  0
 35 75  1  0
 36 37  1  0
 36 76  1  6
 37 77  1  0
 37 78  1  0
 37 79  1  0
M  END
>  <i_m_ct_stereo_status>  (445) 
1

>  <s_m_source_file>  (445) 
/var/tmp/pbs.5076255.sched01/tmpsabrbf27/138opeauupd.sdf

>  <i_m_source_file_index>  (445) 
43

>  <i_lp_mmshare_version>  (445) 
48012

>  <i_f3d_flags>  (445) 
0

>  <s_epik_input>  (445) 
W0NIM11PW0NASF0oTzEpW0NASF0oW0NIM10pW0NASF0oW0NIMl1bQ0gyXVtDQEhdMltDSDNdKVtDQF0zKFtDQEBIXTFPW0NAQF0yNDUpW0NAQF02N1tDQEhdKE9bQ0BIXShbQ0BIXTNPNClbQ0hdPUM1W0NIM10pT1tDQEBdOChbQ0gzXSlbQ0gyXVtDSDJdW0NAQEhdKE82KVtDQEhdKFtDSDNdKVtDSDJdW0NIMl1bQ0BASF03Tzg=

>  <s_epik_cmdline>  (445) 
J2VwaWtfcHl0aG9uJywgJy1waHQnLCAnMi4wJywgJy1waCcsICc3LjAnLCAnLXRuJywgJzgnLCAnLW1hJywgJzIwMCcsICctaW1hZScsICc8aW5maWxlLm1hZT4nLCAnLW9tYWUnLCAnPG91dGZpbGUubWFlPic=

>  <r_lp_tautomer_probability>  (445) 
1

>  <r_epik_Ionization_Penalty>  (445) 
1.11811e-12

>  <r_epik_Ionization_Penalty_Charging>  (445) 
0

>  <r_epik_Ionization_Penalty_Neutral>  (445) 
1.11811e-12

>  <r_epik_State_Penalty>  (445) 
-0

>  <r_epik_Charging_Adjusted_Penalty>  (445) 
0

>  <i_epik_Tot_Q>  (445) 
0

>  <i_epik_Tot_abs_Q>  (445) 
0

>  <s_epik_Chemistry_Notes>  (445) 
This compound contains an acetal/aminal-like group ( X-CH(R)-Y where X, Y are N, S, or O) that may be acid/base labile, releasing an aldehyde.

>  <s_lp_Force_Field>  (445) 
OPLS3e

>  <r_lp_Energy>  (445) 
125.795

>  <b_lp_Chiralities_Consistent>  (445) 
1

>  <s_lp_Variant>  (445) 
114:0-1

>  <s_i_glide_gridfile>  (445) 
pfpi4k_grid

>  <i_i_glide_lignum>  (445) 
43

>  <i_i_glide_rotatable_bonds>  (445) 
1

>  <r_i_docking_score>  (445) 
-1.37801

>  <r_i_glide_ligand_efficiency>  (445) 
-0.0372434

>  <r_i_glide_ligand_efficiency_sa>  (445) 
-0.124103

>  <r_i_glide_ligand_efficiency_ln>  (445) 
-0.298857

>  <r_i_glide_gscore>  (445) 
-1.37801

>  <r_i_glide_lipo>  (445) 
-0.313951

>  <r_i_glide_hbond>  (445) 
0

>  <r_i_glide_metal>  (445) 
-0

>  <r_i_glide_rewards>  (445) 
-0.0206937

>  <r_i_glide_evdw>  (445) 
-19.2824

>  <r_i_glide_ecoul>  (445) 
-0.464226

>  <r_i_glide_erotb>  (445) 
0

>  <r_i_glide_esite>  (445) 
-0.00960924

>  <r_i_glide_emodel>  (445) 
-21.4345

>  <r_i_glide_energy>  (445) 
-19.7466

>  <r_i_glide_einternal>  (445) 
0.00208674

>  <r_i_glide_intrahb_reward>  (445) 
-0

>  <i_i_glide_confnum>  (445) 
1

>  <i_i_glide_posenum>  (445) 
32

>  <r_i_glide_eff_state_penalty>  (445) 
0

>  <ligand_id>  (445) 
114

>  <original_smiles>  (445) 
COC1OC2OC34OC5C(C=C3C)OC3OC6(C)CCC7OC3(C(CCC7C)O6)C25C(CCC4C)C1C

>  <smiles>  (445) 
[H]C1=C(C([H])([H])[H])C23OC4([H])OC([H])(OC([H])([H])[H])C([H])(C([H])([H])[H])C([H])(C([H])([H])C([H])([H])C2([H])C([H])([H])[H])C42C([H])(O3)C1([H])OC1([H])OC3(C([H])([H])[H])OC4([H])C([H])([H])C([H])([H])C([H])(C([H])([H])[H])C([H])(OC142)C([H])([H])C3([H])[H]

$$$$
115:0:0
     RDKit          3D

 69 73  0  0  1  0  0  0  0  0999 V2000
    2.1722    0.4640    2.7289 C   0  0  0  0  0  0  0  0  0  0  0  0
    3.4116   -0.0362    2.0037 C   0  0  0  0  0  0  0  0  0  0  0  0
    3.8999    0.6308    1.1090 O   0  0  0  0  0  0  0  0  0  0  0  0
    3.8531   -1.2195    2.4218 O   0  0  0  0  0  0  0  0  0  0  0  0
    4.9597   -1.8738    1.7841 C   0  0  0  0  0  0  0  0  0  0  0  0
    4.6139   -2.7310    0.5034 C   0  0  1  0  0  0  0  0  0  0  0  0
    3.9065   -1.7383   -0.4815 C   0  0  0  0  0  0  0  0  0  0  0  0
    3.8952   -2.0038   -1.9991 C   0  0  1  0  0  0  0  0  0  0  0  0
    3.5365   -0.7165   -2.7583 C   0  0  0  0  0  0  0  0  0  0  0  0
    5.1970   -2.3809   -2.3972 O   0  0  0  0  0  0  0  0  0  0  0  0
    5.6588   -3.5338   -1.7125 C   0  0  0  0  0  0  0  0  0  0  0  0
    5.9270   -3.2537   -0.2015 C   0  0  1  0  0  0  0  0  0  0  0  0
    7.1372   -2.2776   -0.1910 C   0  0  0  0  0  0  0  0  0  0  0  0
    6.2463   -4.5873    0.5231 C   0  0  1  0  0  0  0  0  0  0  0  0
    7.0166   -4.3311    1.6788 O   0  0  0  0  0  0  0  0  0  0  0  0
    4.8683   -5.2347    0.7978 C   0  0  1  0  0  0  0  0  0  0  0  0
    4.6304   -6.1759    2.0359 C   0  0  1  0  0  0  0  0  0  0  0  0
    3.4975   -7.1723    1.6197 C   0  0  0  0  0  0  0  0  0  0  0  0
    5.7966   -7.0072    2.6794 C   0  0  0  0  0  0  0  0  0  0  0  0
    5.3772   -7.7159    4.0183 C   0  0  0  0  0  0  0  0  0  0  0  0
    4.0694   -7.1082    4.5765 C   0  0  1  0  0  0  0  0  0  0  0  0
    3.5079   -7.4329    5.9380 C   0  0  0  0  0  0  0  0  0  0  0  0
    3.7973   -8.3996    6.6337 O   0  0  0  0  0  0  0  0  0  0  0  0
    2.6263   -6.4411    6.2227 O   0  0  0  0  0  0  0  0  0  0  0  0
    2.6139   -5.4125    5.2218 C   0  0  0  0  0  0  0  0  0  0  0  0
    3.9922   -5.5901    4.5513 C   0  0  1  0  0  0  0  0  0  0  0  0
    5.0491   -4.9029    5.4727 C   0  0  0  0  0  0  0  0  0  0  0  0
    4.2126   -5.1096    3.0793 C   0  0  2  0  0  0  0  0  0  0  0  0
    3.2239   -4.2104    2.3450 C   0  0  0  0  0  0  0  0  0  0  0  0
    3.8106   -4.0722    0.8865 C   0  0  1  0  0  0  0  0  0  0  0  0
    2.6316   -4.3731   -0.0705 C   0  0  0  0  0  0  0  0  0  0  0  0
    1.8308   -0.2487    3.4759 H   0  0  0  0  0  0  0  0  0  0  0  0
    1.3605    0.6100    2.0210 H   0  0  0  0  0  0  0  0  0  0  0  0
    2.3499    1.4180    3.2241 H   0  0  0  0  0  0  0  0  0  0  0  0
    5.7261   -1.1327    1.5681 H   0  0  0  0  0  0  0  0  0  0  0  0
    5.4055   -2.5103    2.5366 H   0  0  0  0  0  0  0  0  0  0  0  0
    2.8900   -1.5609   -0.1579 H   0  0  0  0  0  0  0  0  0  0  0  0
    4.4497   -0.8243   -0.3939 H   0  0  0  0  0  0  0  0  0  0  0  0
    3.1742   -2.7774   -2.3047 H   0  0  0  0  0  0  0  0  0  0  0  0
    2.5645   -0.3398   -2.4431 H   0  0  0  0  0  0  0  0  0  0  0  0
    3.5008   -0.8634   -3.8327 H   0  0  0  0  0  0  0  0  0  0  0  0
    4.2546    0.0726   -2.5532 H   0  0  0  0  0  0  0  0  0  0  0  0
    4.9540   -4.3409   -1.8742 H   0  0  0  0  0  0  0  0  0  0  0  0
    6.5795   -3.8434   -2.2047 H   0  0  0  0  0  0  0  0  0  0  0  0
    7.9712   -2.6856   -0.7625 H   0  0  0  0  0  0  0  0  0  0  0  0
    7.5272   -2.0447    0.7999 H   0  0  0  0  0  0  0  0  0  0  0  0
    6.8584   -1.3308   -0.6503 H   0  0  0  0  0  0  0  0  0  0  0  0
    6.8533   -5.2385   -0.1051 H   0  0  0  0  0  0  0  0  0  0  0  0
    7.8575   -4.0142    1.4034 H   0  0  0  0  0  0  0  0  0  0  0  0
    4.6968   -5.8041   -0.1120 H   0  0  0  0  0  0  0  0  0  0  0  0
    3.6574   -8.1761    2.0087 H   0  0  0  0  0  0  0  0  0  0  0  0
    3.4306   -7.3082    0.5443 H   0  0  0  0  0  0  0  0  0  0  0  0
    2.5150   -6.8517    1.9607 H   0  0  0  0  0  0  0  0  0  0  0  0
    6.1965   -7.7326    1.9634 H   0  0  0  0  0  0  0  0  0  0  0  0
    6.6298   -6.3579    2.9355 H   0  0  0  0  0  0  0  0  0  0  0  0
    5.2047   -8.7757    3.8202 H   0  0  0  0  0  0  0  0  0  0  0  0
    6.1874   -7.6760    4.7461 H   0  0  0  0  0  0  0  0  0  0  0  0
    3.2588   -7.5009    3.9747 H   0  0  0  0  0  0  0  0  0  0  0  0
    1.8013   -5.5767    4.5114 H   0  0  0  0  0  0  0  0  0  0  0  0
    2.4937   -4.4233    5.6666 H   0  0  0  0  0  0  0  0  0  0  0  0
    4.9331   -3.8191    5.4447 H   0  0  0  0  0  0  0  0  0  0  0  0
    6.0706   -5.1278    5.1653 H   0  0  0  0  0  0  0  0  0  0  0  0
    4.9615   -5.1927    6.5191 H   0  0  0  0  0  0  0  0  0  0  0  0
    5.0922   -4.4808    3.1737 H   0  0  0  0  0  0  0  0  0  0  0  0
    2.2485   -4.6884    2.3337 H   0  0  0  0  0  0  0  0  0  0  0  0
    3.0489   -3.2953    2.8905 H   0  0  0  0  0  0  0  0  0  0  0  0
    2.1225   -5.3031    0.1757 H   0  0  0  0  0  0  0  0  0  0  0  0
    2.9538   -4.4957   -1.0966 H   0  0  0  0  0  0  0  0  0  0  0  0
    1.8826   -3.5843   -0.0476 H   0  0  0  0  0  0  0  0  0  0  0  0
  1  2  1  0
  1 32  1  0
  1 33  1  0
  1 34  1  0
  2  3  2  0
  2  4  1  0
  4  5  1  0
  6  5  1  1
  5 35  1  0
  5 36  1  0
  6 12  1  0
  6 30  1  0
  6  7  1  0
  7  8  1  0
  7 37  1  0
  7 38  1  0
  8  9  1  0
  8 10  1  0
  8 39  1  1
  9 40  1  0
  9 41  1  0
  9 42  1  0
 10 11  1  0
 11 12  1  0
 11 43  1  0
 11 44  1  0
 12 13  1  6
 12 14  1  0
 13 45  1  0
 13 46  1  0
 13 47  1  0
 14 15  1  0
 14 16  1  0
 14 48  1  6
 15 49  1  0
 16 30  1  0
 16 17  1  0
 16 50  1  6
 17 28  1  0
 17 18  1  6
 17 19  1  0
 18 51  1  0
 18 52  1  0
 18 53  1  0
 19 20  1  0
 19 54  1  0
 19 55  1  0
 20 21  1  0
 20 56  1  0
 20 57  1  0
 21 26  1  0
 21 22  1  0
 21 58  1  6
 22 23  2  0
 22 24  1  0
 24 25  1  0
 25 26  1  0
 25 59  1  0
 25 60  1  0
 26 27  1  1
 26 28  1  0
 27 61  1  0
 27 62  1  0
 27 63  1  0
 28 29  1  0
 28 64  1  1
 29 30  1  0
 29 65  1  0
 29 66  1  0
 30 31  1  6
 31 67  1  0
 31 68  1  0
 31 69  1  0
M  END
>  <i_m_ct_stereo_status>  (446) 
1

>  <s_m_source_file>  (446) 
/var/tmp/pbs.5076255.sched01/tmpsabrbf27/138opeauupd.sdf

>  <i_m_source_file_index>  (446) 
44

>  <i_lp_mmshare_version>  (446) 
48012

>  <i_f3d_flags>  (446) 
0

>  <s_epik_input>  (446) 
W0NIM11DKD1PKU9bQ0gyXVtDQF0xMltDQF0oW0NIM10pKFtDSDJdT1tDQEBIXShbQ0gyXTEpW0NIM10pW0NAQEhdKFtPSF0pW0NASF0zW0NAXTQoW0NIM10pW0NAQEhdKFtDSDJdW0NAQF0yM1tDSDNdKVtDQF01KFtDSDNdKVtDQEBIXShbQ0gyXVtDSDJdNClDKD1PKU9bQ0gyXTU=

>  <s_epik_cmdline>  (446) 
J2VwaWtfcHl0aG9uJywgJy1waHQnLCAnMi4wJywgJy1waCcsICc3LjAnLCAnLXRuJywgJzgnLCAnLW1hJywgJzIwMCcsICctaW1hZScsICc8aW5maWxlLm1hZT4nLCAnLW9tYWUnLCAnPG91dGZpbGUubWFlPic=

>  <r_lp_tautomer_probability>  (446) 
1

>  <r_epik_Ionization_Penalty>  (446) 
2.86719e-07

>  <r_epik_Ionization_Penalty_Charging>  (446) 
0

>  <r_epik_Ionization_Penalty_Neutral>  (446) 
2.86719e-07

>  <r_epik_State_Penalty>  (446) 
-0

>  <r_epik_Charging_Adjusted_Penalty>  (446) 
0

>  <i_epik_Tot_Q>  (446) 
0

>  <i_epik_Tot_abs_Q>  (446) 
0

>  <s_epik_Chemistry_Notes>  (446) 
This compound has an ester and may undergo hydrolysis at high or low pH.

>  <s_lp_Force_Field>  (446) 
OPLS3e

>  <r_lp_Energy>  (446) 
78.539

>  <b_lp_Chiralities_Consistent>  (446) 
1

>  <s_lp_Variant>  (446) 
115:0-1

>  <s_i_glide_gridfile>  (446) 
pfpi4k_grid

>  <i_i_glide_lignum>  (446) 
44

>  <i_i_glide_rotatable_bonds>  (446) 
4

>  <r_i_docking_score>  (446) 
-2.19109

>  <r_i_glide_ligand_efficiency>  (446) 
-0.0706804

>  <r_i_glide_ligand_efficiency_sa>  (446) 
-0.222034

>  <r_i_glide_ligand_efficiency_ln>  (446) 
-0.494159

>  <r_i_glide_gscore>  (446) 
-2.19109

>  <r_i_glide_lipo>  (446) 
-0.520721

>  <r_i_glide_hbond>  (446) 
0

>  <r_i_glide_metal>  (446) 
-0

>  <r_i_glide_rewards>  (446) 
-0.464996

>  <r_i_glide_evdw>  (446) 
-25.5604

>  <r_i_glide_ecoul>  (446) 
-0.921223

>  <r_i_glide_erotb>  (446) 
0.210931

>  <r_i_glide_esite>  (446) 
-0.000105604

>  <r_i_glide_emodel>  (446) 
-27.7777

>  <r_i_glide_energy>  (446) 
-26.4816

>  <r_i_glide_einternal>  (446) 
1.0006

>  <r_i_glide_intrahb_reward>  (446) 
-0

>  <i_i_glide_confnum>  (446) 
1

>  <i_i_glide_posenum>  (446) 
30

>  <r_i_glide_eff_state_penalty>  (446) 
0

>  <ligand_id>  (446) 
115

>  <original_smiles>  (446) 
CC(=O)OCC12CC(C)OCC1(C)C(O)C1C3(C)CCC4C(=O)OCC4(C)C3CC12C

>  <smiles>  (446) 
[H]OC1([H])C2([H])C3(C([H])([H])[H])C([H])([H])C([H])([H])C4([H])C(=O)OC([H])([H])C4(C([H])([H])[H])C3([H])C([H])([H])C2(C([H])([H])[H])C2(C([H])([H])OC(=O)C([H])([H])[H])C([H])([H])C([H])(C([H])([H])[H])OC([H])([H])C12C([H])([H])[H]

$$$$
115:0:1
     RDKit          3D

 69 73  0  0  1  0  0  0  0  0999 V2000
    2.1585    0.4990    2.7375 C   0  0  0  0  0  0  0  0  0  0  0  0
    3.3967    0.0180    2.0233 C   0  0  0  0  0  0  0  0  0  0  0  0
    3.8902    0.6919    1.1182 O   0  0  0  0  0  0  0  0  0  0  0  0
    3.8403   -1.1790    2.3981 O   0  0  0  0  0  0  0  0  0  0  0  0
    4.9486   -1.8428    1.7585 C   0  0  0  0  0  0  0  0  0  0  0  0
    4.5970   -2.7170    0.4916 C   0  0  1  0  0  0  0  0  0  0  0  0
    3.9095   -1.7270   -0.5104 C   0  0  0  0  0  0  0  0  0  0  0  0
    3.8810   -2.0095   -2.0215 C   0  0  1  0  0  0  0  0  0  0  0  0
    3.5314   -0.7210   -2.7831 C   0  0  0  0  0  0  0  0  0  0  0  0
    5.1884   -2.3791   -2.4106 O   0  0  0  0  0  0  0  0  0  0  0  0
    5.6471   -3.5255   -1.7149 C   0  0  0  0  0  0  0  0  0  0  0  0
    5.9165   -3.2368   -0.2063 C   0  0  1  0  0  0  0  0  0  0  0  0
    7.1222   -2.2625   -0.2009 C   0  0  0  0  0  0  0  0  0  0  0  0
    6.2390   -4.5640    0.5255 C   0  0  1  0  0  0  0  0  0  0  0  0
    7.0294   -4.3358    1.6587 O   0  0  0  0  0  0  0  0  0  0  0  0
    4.8581   -5.2129    0.8086 C   0  0  1  0  0  0  0  0  0  0  0  0
    4.6198   -6.1438    2.0514 C   0  0  1  0  0  0  0  0  0  0  0  0
    3.4864   -7.1415    1.6377 C   0  0  0  0  0  0  0  0  0  0  0  0
    5.7827   -6.9777    2.6937 C   0  0  0  0  0  0  0  0  0  0  0  0
    5.3613   -7.6701    4.0405 C   0  0  0  0  0  0  0  0  0  0  0  0
    4.0545   -7.0620    4.5929 C   0  0  1  0  0  0  0  0  0  0  0  0
    3.4900   -7.3699    5.9622 C   0  0  0  0  0  0  0  0  0  0  0  0
    3.7880   -8.3429    6.6528 O   0  0  0  0  0  0  0  0  0  0  0  0
    2.6149   -6.3820    6.2312 O   0  0  0  0  0  0  0  0  0  0  0  0
    2.6033   -5.3581    5.2250 C   0  0  0  0  0  0  0  0  0  0  0  0
    3.9789   -5.5386    4.5589 C   0  0  1  0  0  0  0  0  0  0  0  0
    5.0372   -4.8520    5.4735 C   0  0  0  0  0  0  0  0  0  0  0  0
    4.1977   -5.0749    3.0829 C   0  0  2  0  0  0  0  0  0  0  0  0
    3.2116   -4.1798    2.3448 C   0  0  0  0  0  0  0  0  0  0  0  0
    3.7990   -4.0526    0.8863 C   0  0  1  0  0  0  0  0  0  0  0  0
    2.6222   -4.3542   -0.0693 C   0  0  0  0  0  0  0  0  0  0  0  0
    1.8195   -0.2317    3.4791 H   0  0  0  0  0  0  0  0  0  0  0  0
    1.3590    0.6531    2.0193 H   0  0  0  0  0  0  0  0  0  0  0  0
    2.3532    1.4457    3.2330 H   0  0  0  0  0  0  0  0  0  0  0  0
    5.7151   -1.0961    1.5411 H   0  0  0  0  0  0  0  0  0  0  0  0
    5.4036   -2.4645    2.5164 H   0  0  0  0  0  0  0  0  0  0  0  0
    2.8827   -1.5413   -0.1823 H   0  0  0  0  0  0  0  0  0  0  0  0
    4.4653   -0.8250   -0.4356 H   0  0  0  0  0  0  0  0  0  0  0  0
    3.1591   -2.7820   -2.3197 H   0  0  0  0  0  0  0  0  0  0  0  0
    2.5583   -0.3355   -2.4718 H   0  0  0  0  0  0  0  0  0  0  0  0
    3.4947   -0.8703   -3.8579 H   0  0  0  0  0  0  0  0  0  0  0  0
    4.2492    0.0765   -2.5837 H   0  0  0  0  0  0  0  0  0  0  0  0
    4.9433   -4.3346   -1.8746 H   0  0  0  0  0  0  0  0  0  0  0  0
    6.5708   -3.8405   -2.2062 H   0  0  0  0  0  0  0  0  0  0  0  0
    7.9578   -2.6789   -0.7702 H   0  0  0  0  0  0  0  0  0  0  0  0
    7.5184   -2.0304    0.7872 H   0  0  0  0  0  0  0  0  0  0  0  0
    6.8474   -1.3208   -0.6669 H   0  0  0  0  0  0  0  0  0  0  0  0
    6.8377   -5.2216   -0.1079 H   0  0  0  0  0  0  0  0  0  0  0  0
    6.5328   -3.7985    2.2752 H   0  0  0  0  0  0  0  0  0  0  0  0
    4.6833   -5.7859   -0.1022 H   0  0  0  0  0  0  0  0  0  0  0  0
    3.6440   -8.1453    2.0332 H   0  0  0  0  0  0  0  0  0  0  0  0
    3.4227   -7.2865    0.5613 H   0  0  0  0  0  0  0  0  0  0  0  0
    2.5011   -6.8204    1.9750 H   0  0  0  0  0  0  0  0  0  0  0  0
    6.1820   -7.7045    1.9847 H   0  0  0  0  0  0  0  0  0  0  0  0
    6.6161   -6.3283    2.9490 H   0  0  0  0  0  0  0  0  0  0  0  0
    5.1906   -8.7320    3.8493 H   0  0  0  0  0  0  0  0  0  0  0  0
    6.1749   -7.6293    4.7697 H   0  0  0  0  0  0  0  0  0  0  0  0
    3.2418   -7.4583    3.9929 H   0  0  0  0  0  0  0  0  0  0  0  0
    1.7888   -5.5298    4.5194 H   0  0  0  0  0  0  0  0  0  0  0  0
    2.4797   -4.3663    5.6648 H   0  0  0  0  0  0  0  0  0  0  0  0
    4.9215   -3.7673    5.4410 H   0  0  0  0  0  0  0  0  0  0  0  0
    6.0591   -5.0796    5.1702 H   0  0  0  0  0  0  0  0  0  0  0  0
    4.9483   -5.1342    6.5239 H   0  0  0  0  0  0  0  0  0  0  0  0
    5.0775   -4.4479    3.1759 H   0  0  0  0  0  0  0  0  0  0  0  0
    2.2341   -4.6554    2.3316 H   0  0  0  0  0  0  0  0  0  0  0  0
    3.0333   -3.2629    2.8851 H   0  0  0  0  0  0  0  0  0  0  0  0
    2.1112   -5.2825    0.1792 H   0  0  0  0  0  0  0  0  0  0  0  0
    2.9436   -4.4832   -1.0966 H   0  0  0  0  0  0  0  0  0  0  0  0
    1.8724   -3.5644   -0.0555 H   0  0  0  0  0  0  0  0  0  0  0  0
  1  2  1  0
  1 32  1  0
  1 33  1  0
  1 34  1  0
  2  3  2  0
  2  4  1  0
  4  5  1  0
  6  5  1  1
  5 35  1  0
  5 36  1  0
  6 12  1  0
  6 30  1  0
  6  7  1  0
  7  8  1  0
  7 37  1  0
  7 38  1  0
  8  9  1  0
  8 10  1  0
  8 39  1  1
  9 40  1  0
  9 41  1  0
  9 42  1  0
 10 11  1  0
 11 12  1  0
 11 43  1  0
 11 44  1  0
 12 13  1  6
 12 14  1  0
 13 45  1  0
 13 46  1  0
 13 47  1  0
 14 15  1  0
 14 16  1  0
 14 48  1  6
 15 49  1  0
 16 30  1  0
 16 17  1  0
 16 50  1  6
 17 28  1  0
 17 18  1  6
 17 19  1  0
 18 51  1  0
 18 52  1  0
 18 53  1  0
 19 20  1  0
 19 54  1  0
 19 55  1  0
 20 21  1  0
 20 56  1  0
 20 57  1  0
 21 26  1  0
 21 22  1  0
 21 58  1  6
 22 23  2  0
 22 24  1  0
 24 25  1  0
 25 26  1  0
 25 59  1  0
 25 60  1  0
 26 27  1  1
 26 28  1  0
 27 61  1  0
 27 62  1  0
 27 63  1  0
 28 29  1  0
 28 64  1  1
 29 30  1  0
 29 65  1  0
 29 66  1  0
 30 31  1  6
 31 67  1  0
 31 68  1  0
 31 69  1  0
M  END
>  <i_m_ct_stereo_status>  (447) 
1

>  <s_m_source_file>  (447) 
/var/tmp/pbs.5076255.sched01/tmpsabrbf27/138opeauupd.sdf

>  <i_m_source_file_index>  (447) 
44

>  <i_lp_mmshare_version>  (447) 
48012

>  <i_f3d_flags>  (447) 
0

>  <s_epik_input>  (447) 
W0NIM11DKD1PKU9bQ0gyXVtDQF0xMltDQF0oW0NIM10pKFtDSDJdT1tDQEBIXShbQ0gyXTEpW0NIM10pW0NAQEhdKFtPSF0pW0NASF0zW0NAXTQoW0NIM10pW0NAQEhdKFtDSDJdW0NAQF0yM1tDSDNdKVtDQF01KFtDSDNdKVtDQEBIXShbQ0gyXVtDSDJdNClDKD1PKU9bQ0gyXTU=

>  <s_epik_cmdline>  (447) 
J2VwaWtfcHl0aG9uJywgJy1waHQnLCAnMi4wJywgJy1waCcsICc3LjAnLCAnLXRuJywgJzgnLCAnLW1hJywgJzIwMCcsICctaW1hZScsICc8aW5maWxlLm1hZT4nLCAnLW9tYWUnLCAnPG91dGZpbGUubWFlPic=

>  <r_lp_tautomer_probability>  (447) 
1

>  <r_epik_Ionization_Penalty>  (447) 
2.86719e-07

>  <r_epik_Ionization_Penalty_Charging>  (447) 
0

>  <r_epik_Ionization_Penalty_Neutral>  (447) 
2.86719e-07

>  <r_epik_State_Penalty>  (447) 
-0

>  <r_epik_Charging_Adjusted_Penalty>  (447) 
0

>  <i_epik_Tot_Q>  (447) 
0

>  <i_epik_Tot_abs_Q>  (447) 
0

>  <s_epik_Chemistry_Notes>  (447) 
This compound has an ester and may undergo hydrolysis at high or low pH.

>  <s_lp_Force_Field>  (447) 
OPLS3e

>  <r_lp_Energy>  (447) 
78.539

>  <b_lp_Chiralities_Consistent>  (447) 
1

>  <s_lp_Variant>  (447) 
115:0-1

>  <s_i_glide_gridfile>  (447) 
pfpi4k_grid

>  <i_i_glide_lignum>  (447) 
44

>  <i_i_glide_rotatable_bonds>  (447) 
4

>  <r_i_docking_score>  (447) 
-2.15516

>  <r_i_glide_ligand_efficiency>  (447) 
-0.0695212

>  <r_i_glide_ligand_efficiency_sa>  (447) 
-0.218393

>  <r_i_glide_ligand_efficiency_ln>  (447) 
-0.486054

>  <r_i_glide_gscore>  (447) 
-2.15516

>  <r_i_glide_lipo>  (447) 
-0.511472

>  <r_i_glide_hbond>  (447) 
0

>  <r_i_glide_metal>  (447) 
-0

>  <r_i_glide_rewards>  (447) 
-0.472626

>  <r_i_glide_evdw>  (447) 
-24.7551

>  <r_i_glide_ecoul>  (447) 
-0.961437

>  <r_i_glide_erotb>  (447) 
0.210931

>  <r_i_glide_esite>  (447) 
-2.06525e-05

>  <r_i_glide_emodel>  (447) 
-27.4643

>  <r_i_glide_energy>  (447) 
-25.7165

>  <r_i_glide_einternal>  (447) 
0.705806

>  <r_i_glide_intrahb_reward>  (447) 
-0

>  <i_i_glide_confnum>  (447) 
1

>  <i_i_glide_posenum>  (447) 
28

>  <r_i_glide_eff_state_penalty>  (447) 
0

>  <ligand_id>  (447) 
115

>  <original_smiles>  (447) 
CC(=O)OCC12CC(C)OCC1(C)C(O)C1C3(C)CCC4C(=O)OCC4(C)C3CC12C

>  <smiles>  (447) 
[H]OC1([H])C2([H])C3(C([H])([H])[H])C([H])([H])C([H])([H])C4([H])C(=O)OC([H])([H])C4(C([H])([H])[H])C3([H])C([H])([H])C2(C([H])([H])[H])C2(C([H])([H])OC(=O)C([H])([H])[H])C([H])([H])C([H])(C([H])([H])[H])OC([H])([H])C12C([H])([H])[H]

$$$$
116:0:0
     RDKit          3D

 18 19  0  0  1  0  0  0  0  0999 V2000
    5.8791   -0.8514    0.4209 C   0  0  0  0  0  0  0  0  0  0  0  0
    5.0035   -1.2170   -0.6784 N   0  0  0  0  0  0  0  0  0  0  0  0
    4.9881   -0.6664   -1.9374 C   0  0  0  0  0  0  0  0  0  0  0  0
    4.1298   -1.1650   -2.7801 N   0  0  0  0  0  0  0  0  0  0  0  0
    3.4770   -2.1195   -2.0198 C   0  0  0  0  0  0  0  0  0  0  0  0
    2.4207   -3.0181   -2.2840 C   0  0  0  0  0  0  0  0  0  0  0  0
    1.8175   -3.0553   -3.4706 N   0  0  0  0  0  0  0  0  0  0  0  0
    1.9991   -3.8410   -1.2928 N   0  0  0  0  0  0  0  0  0  0  0  0
    2.6150   -3.8089   -0.1034 C   0  0  0  0  0  0  0  0  0  0  0  0
    3.6080   -3.0123    0.2959 N   0  0  0  0  0  0  0  0  0  0  0  0
    4.0072   -2.1745   -0.7025 C   0  0  0  0  0  0  0  0  0  0  0  0
    1.0792   -3.7386   -3.6237 H   0  0  0  0  0  0  0  0  0  0  0  0
    5.6732   -1.4421    1.3133 H   0  0  0  0  0  0  0  0  0  0  0  0
    5.7388    0.1984    0.6623 H   0  0  0  0  0  0  0  0  0  0  0  0
    6.9164   -1.0072    0.1349 H   0  0  0  0  0  0  0  0  0  0  0  0
    5.6400    0.1308   -2.2386 H   0  0  0  0  0  0  0  0  0  0  0  0
    2.1263   -2.4321   -4.2027 H   0  0  0  0  0  0  0  0  0  0  0  0
    2.2426   -4.4910    0.6458 H   0  0  0  0  0  0  0  0  0  0  0  0
  1 13  1  0
  1 14  1  0
  1 15  1  0
  1  2  1  0
  2  3  1  0
  2 11  1  0
  3  4  2  0
  3 16  1  0
  4  5  1  0
  5  6  1  0
  5 11  2  0
  6  8  2  0
  6  7  1  0
  7 17  1  0
  7 12  1  0
  8  9  1  0
  9 18  1  0
  9 10  2  0
 10 11  1  0
M  END
>  <i_m_ct_stereo_status>  (448) 
1

>  <s_m_source_file>  (448) 
/var/tmp/pbs.5076255.sched01/tmpsabrbf27/138opeauupd.sdf

>  <i_m_source_file_index>  (448) 
45

>  <i_lp_mmshare_version>  (448) 
48012

>  <i_f3d_flags>  (448) 
0

>  <s_epik_input>  (448) 
bjFbY0hdbihbQ0gzXSljKGMxMiluW2NIXVtuSF1jXDI9TlxbSF0=

>  <s_epik_cmdline>  (448) 
J2VwaWtfcHl0aG9uJywgJy1waHQnLCAnMi4wJywgJy1waCcsICc3LjAnLCAnLXRuJywgJzgnLCAnLW1hJywgJzIwMCcsICctaW1hZScsICc8aW5maWxlLm1hZT4nLCAnLW9tYWUnLCAnPG91dGZpbGUubWFlPic=

>  <r_lp_tautomer_probability>  (448) 
1

>  <r_epik_Ionization_Penalty>  (448) 
0.000983644

>  <r_epik_Ionization_Penalty_Charging>  (448) 
0

>  <r_epik_Ionization_Penalty_Neutral>  (448) 
0.000983644

>  <r_epik_State_Penalty>  (448) 
-0

>  <r_epik_Charging_Adjusted_Penalty>  (448) 
0

>  <i_epik_Tot_Q>  (448) 
0

>  <i_epik_Tot_abs_Q>  (448) 
0

>  <s_lp_Force_Field>  (448) 
OPLS3e

>  <r_lp_Energy>  (448) 
15.0689

>  <b_lp_Chiralities_Consistent>  (448) 
1

>  <s_lp_Variant>  (448) 
116:0-1

>  <s_i_glide_gridfile>  (448) 
pfpi4k_grid

>  <i_i_glide_lignum>  (448) 
45

>  <i_i_glide_rotatable_bonds>  (448) 
0

>  <r_i_docking_score>  (448) 
-4.08239

>  <r_i_glide_ligand_efficiency>  (448) 
-0.371127

>  <r_i_glide_ligand_efficiency_sa>  (448) 
-0.825378

>  <r_i_glide_ligand_efficiency_ln>  (448) 
-1.20145

>  <r_i_glide_gscore>  (448) 
-4.08239

>  <r_i_glide_lipo>  (448) 
-0.151169

>  <r_i_glide_hbond>  (448) 
-0.32

>  <r_i_glide_metal>  (448) 
-0

>  <r_i_glide_rewards>  (448) 
-2.25

>  <r_i_glide_evdw>  (448) 
-13.7003

>  <r_i_glide_ecoul>  (448) 
-3.47179

>  <r_i_glide_erotb>  (448) 
0

>  <r_i_glide_esite>  (448) 
-0.155438

>  <r_i_glide_emodel>  (448) 
-22.1501

>  <r_i_glide_energy>  (448) 
-17.1721

>  <r_i_glide_einternal>  (448) 
0

>  <r_i_glide_intrahb_reward>  (448) 
-0

>  <i_i_glide_confnum>  (448) 
2

>  <i_i_glide_posenum>  (448) 
9

>  <r_i_glide_eff_state_penalty>  (448) 
0

>  <ligand_id>  (448) 
116

>  <original_smiles>  (448) 
Cn1cnc2c(=N)[nH]cnc21

>  <smiles>  (448) 
[H]c1nc(N([H])[H])c2nc([H])n(C([H])([H])[H])c2n1

$$$$
116:0:1
     RDKit          3D

 18 19  0  0  1  0  0  0  0  0999 V2000
   -3.1989    3.0710    2.9172 C   0  0  0  0  0  0  0  0  0  0  0  0
   -1.8051    2.8141    3.2133 N   0  0  0  0  0  0  0  0  0  0  0  0
   -1.1952    1.5797    3.2465 C   0  0  0  0  0  0  0  0  0  0  0  0
    0.0766    1.5898    3.5345 N   0  0  0  0  0  0  0  0  0  0  0  0
    0.3654    2.9419    3.6872 C   0  0  0  0  0  0  0  0  0  0  0  0
    1.5391    3.6707    3.9887 C   0  0  0  0  0  0  0  0  0  0  0  0
    2.7133    3.0722    4.2187 N   0  0  0  0  0  0  0  0  0  0  0  0
    1.4774    5.0205    4.0683 N   0  0  0  0  0  0  0  0  0  0  0  0
    0.3022    5.6299    3.8673 C   0  0  0  0  0  0  0  0  0  0  0  0
   -0.8952    5.0816    3.6236 N   0  0  0  0  0  0  0  0  0  0  0  0
   -0.8073    3.7225    3.5141 C   0  0  0  0  0  0  0  0  0  0  0  0
    3.5333    3.6265    4.4014 H   0  0  0  0  0  0  0  0  0  0  0  0
   -3.4114    4.1391    2.9250 H   0  0  0  0  0  0  0  0  0  0  0  0
   -3.8078    2.5667    3.6631 H   0  0  0  0  0  0  0  0  0  0  0  0
   -3.4418    2.6753    1.9321 H   0  0  0  0  0  0  0  0  0  0  0  0
   -1.7436    0.6667    3.0554 H   0  0  0  0  0  0  0  0  0  0  0  0
    2.7615    2.0684    4.1300 H   0  0  0  0  0  0  0  0  0  0  0  0
    0.3296    6.7130    3.9026 H   0  0  0  0  0  0  0  0  0  0  0  0
  1 13  1  0
  1 14  1  0
  1 15  1  0
  1  2  1  0
  2  3  1  0
  2 11  1  0
  3  4  2  0
  3 16  1  0
  4  5  1  0
  5  6  1  0
  5 11  2  0
  6  8  2  0
  6  7  1  0
  7 17  1  0
  7 12  1  0
  8  9  1  0
  9 18  1  0
  9 10  2  0
 10 11  1  0
M  END
>  <i_m_ct_stereo_status>  (449) 
1

>  <s_m_source_file>  (449) 
/var/tmp/pbs.5076255.sched01/tmpsabrbf27/138opeauupd.sdf

>  <i_m_source_file_index>  (449) 
45

>  <i_lp_mmshare_version>  (449) 
48012

>  <i_f3d_flags>  (449) 
0

>  <s_epik_input>  (449) 
bjFbY0hdbihbQ0gzXSljKGMxMiluW2NIXVtuSF1jXDI9TlxbSF0=

>  <s_epik_cmdline>  (449) 
J2VwaWtfcHl0aG9uJywgJy1waHQnLCAnMi4wJywgJy1waCcsICc3LjAnLCAnLXRuJywgJzgnLCAnLW1hJywgJzIwMCcsICctaW1hZScsICc8aW5maWxlLm1hZT4nLCAnLW9tYWUnLCAnPG91dGZpbGUubWFlPic=

>  <r_lp_tautomer_probability>  (449) 
1

>  <r_epik_Ionization_Penalty>  (449) 
0.000983644

>  <r_epik_Ionization_Penalty_Charging>  (449) 
0

>  <r_epik_Ionization_Penalty_Neutral>  (449) 
0.000983644

>  <r_epik_State_Penalty>  (449) 
-0

>  <r_epik_Charging_Adjusted_Penalty>  (449) 
0

>  <i_epik_Tot_Q>  (449) 
0

>  <i_epik_Tot_abs_Q>  (449) 
0

>  <s_lp_Force_Field>  (449) 
OPLS3e

>  <r_lp_Energy>  (449) 
15.0689

>  <b_lp_Chiralities_Consistent>  (449) 
1

>  <s_lp_Variant>  (449) 
116:0-1

>  <s_i_glide_gridfile>  (449) 
pfpi4k_grid

>  <i_i_glide_lignum>  (449) 
45

>  <i_i_glide_rotatable_bonds>  (449) 
0

>  <r_i_docking_score>  (449) 
-3.93707

>  <r_i_glide_ligand_efficiency>  (449) 
-0.357915

>  <r_i_glide_ligand_efficiency_sa>  (449) 
-0.795997

>  <r_i_glide_ligand_efficiency_ln>  (449) 
-1.15868

>  <r_i_glide_gscore>  (449) 
-3.93707

>  <r_i_glide_lipo>  (449) 
0

>  <r_i_glide_hbond>  (449) 
-0.137735

>  <r_i_glide_metal>  (449) 
-0

>  <r_i_glide_rewards>  (449) 
-2.25

>  <r_i_glide_evdw>  (449) 
-13.6961

>  <r_i_glide_ecoul>  (449) 
-3.92176

>  <r_i_glide_erotb>  (449) 
0

>  <r_i_glide_esite>  (449) 
-0.276266

>  <r_i_glide_emodel>  (449) 
-22.4336

>  <r_i_glide_energy>  (449) 
-17.6178

>  <r_i_glide_einternal>  (449) 
0

>  <r_i_glide_intrahb_reward>  (449) 
-0

>  <i_i_glide_confnum>  (449) 
1

>  <i_i_glide_posenum>  (449) 
8

>  <r_i_glide_eff_state_penalty>  (449) 
0

>  <ligand_id>  (449) 
116

>  <original_smiles>  (449) 
Cn1cnc2c(=N)[nH]cnc21

>  <smiles>  (449) 
[H]c1nc(N([H])[H])c2nc([H])n(C([H])([H])[H])c2n1

$$$$
116:0:2
     RDKit          3D

 18 19  0  0  1  0  0  0  0  0999 V2000
   -2.1324    2.3981    8.2882 C   0  0  0  0  0  0  0  0  0  0  0  0
   -1.6900    2.5607    6.9172 N   0  0  0  0  0  0  0  0  0  0  0  0
   -1.3381    3.7484    6.3125 C   0  0  0  0  0  0  0  0  0  0  0  0
   -0.9831    3.6593    5.0608 N   0  0  0  0  0  0  0  0  0  0  0  0
   -1.0631    2.2976    4.7918 C   0  0  0  0  0  0  0  0  0  0  0  0
   -0.7954    1.4978    3.6537 C   0  0  0  0  0  0  0  0  0  0  0  0
   -0.3619    2.0054    2.4886 N   0  0  0  0  0  0  0  0  0  0  0  0
   -0.9821    0.1586    3.7438 N   0  0  0  0  0  0  0  0  0  0  0  0
   -1.4188   -0.3734    4.8922 C   0  0  0  0  0  0  0  0  0  0  0  0
   -1.7218    0.2415    6.0413 N   0  0  0  0  0  0  0  0  0  0  0  0
   -1.5158    1.5913    5.9431 C   0  0  0  0  0  0  0  0  0  0  0  0
   -0.2070    1.4008    1.6951 H   0  0  0  0  0  0  0  0  0  0  0  0
   -2.3316    1.3520    8.5148 H   0  0  0  0  0  0  0  0  0  0  0  0
   -3.0426    2.9749    8.4458 H   0  0  0  0  0  0  0  0  0  0  0  0
   -1.3631    2.7639    8.9668 H   0  0  0  0  0  0  0  0  0  0  0  0
   -1.3594    4.6916    6.8422 H   0  0  0  0  0  0  0  0  0  0  0  0
   -0.2170    3.0041    2.3791 H   0  0  0  0  0  0  0  0  0  0  0  0
   -1.5474   -1.4501    4.8779 H   0  0  0  0  0  0  0  0  0  0  0  0
  1 13  1  0
  1 14  1  0
  1 15  1  0
  1  2  1  0
  2  3  1  0
  2 11  1  0
  3  4  2  0
  3 16  1  0
  4  5  1  0
  5  6  1  0
  5 11  2  0
  6  8  2  0
  6  7  1  0
  7 17  1  0
  7 12  1  0
  8  9  1  0
  9 18  1  0
  9 10  2  0
 10 11  1  0
M  END
>  <i_m_ct_stereo_status>  (450) 
1

>  <s_m_source_file>  (450) 
/var/tmp/pbs.5076255.sched01/tmpsabrbf27/138opeauupd.sdf

>  <i_m_source_file_index>  (450) 
45

>  <i_lp_mmshare_version>  (450) 
48012

>  <i_f3d_flags>  (450) 
0

>  <s_epik_input>  (450) 
bjFbY0hdbihbQ0gzXSljKGMxMiluW2NIXVtuSF1jXDI9TlxbSF0=

>  <s_epik_cmdline>  (450) 
J2VwaWtfcHl0aG9uJywgJy1waHQnLCAnMi4wJywgJy1waCcsICc3LjAnLCAnLXRuJywgJzgnLCAnLW1hJywgJzIwMCcsICctaW1hZScsICc8aW5maWxlLm1hZT4nLCAnLW9tYWUnLCAnPG91dGZpbGUubWFlPic=

>  <r_lp_tautomer_probability>  (450) 
1

>  <r_epik_Ionization_Penalty>  (450) 
0.000983644

>  <r_epik_Ionization_Penalty_Charging>  (450) 
0

>  <r_epik_Ionization_Penalty_Neutral>  (450) 
0.000983644

>  <r_epik_State_Penalty>  (450) 
-0

>  <r_epik_Charging_Adjusted_Penalty>  (450) 
0

>  <i_epik_Tot_Q>  (450) 
0

>  <i_epik_Tot_abs_Q>  (450) 
0

>  <s_lp_Force_Field>  (450) 
OPLS3e

>  <r_lp_Energy>  (450) 
15.0689

>  <b_lp_Chiralities_Consistent>  (450) 
1

>  <s_lp_Variant>  (450) 
116:0-1

>  <s_i_glide_gridfile>  (450) 
pfpi4k_grid

>  <i_i_glide_lignum>  (450) 
45

>  <i_i_glide_rotatable_bonds>  (450) 
0

>  <r_i_docking_score>  (450) 
-3.75076

>  <r_i_glide_ligand_efficiency>  (450) 
-0.340978

>  <r_i_glide_ligand_efficiency_sa>  (450) 
-0.758329

>  <r_i_glide_ligand_efficiency_ln>  (450) 
-1.10385

>  <r_i_glide_gscore>  (450) 
-3.75076

>  <r_i_glide_lipo>  (450) 
0

>  <r_i_glide_hbond>  (450) 
-0.200795

>  <r_i_glide_metal>  (450) 
-0

>  <r_i_glide_rewards>  (450) 
-2.31474

>  <r_i_glide_evdw>  (450) 
-13.887

>  <r_i_glide_ecoul>  (450) 
-2.57891

>  <r_i_glide_erotb>  (450) 
0

>  <r_i_glide_esite>  (450) 
-0.154045

>  <r_i_glide_emodel>  (450) 
-21.0862

>  <r_i_glide_energy>  (450) 
-16.4659

>  <r_i_glide_einternal>  (450) 
0

>  <r_i_glide_intrahb_reward>  (450) 
-0

>  <i_i_glide_confnum>  (450) 
2

>  <i_i_glide_posenum>  (450) 
38

>  <r_i_glide_eff_state_penalty>  (450) 
0

>  <ligand_id>  (450) 
116

>  <original_smiles>  (450) 
Cn1cnc2c(=N)[nH]cnc21

>  <smiles>  (450) 
[H]c1nc(N([H])[H])c2nc([H])n(C([H])([H])[H])c2n1

$$$$
